# total energy = -340857.3556501575 ev
CRYSTAL
PRIMVEC
9.38612895742039 0.00000000000000 0.00000000000000

0.00000000000000 9.38612895742039 0.00000000000000

0.00000000000000 0.00000000000000 13.73754849363542

PRIMCOORD
 96 1
Ni 4.894556457878926 2.3269902945429477 8.860004423909576 1.1863499360401053 -0.171606223617498 -1.288554372025013
Ni 2.462676173333164 3.6089853186632377 2.451410941476218 1.3285874766874988 -0.6203457434527316 0.11032655087141001
Ni 7.706546802840251 0.8079072871137489 8.36135881935553 1.4460426681838903 1.7064123717900421 1.2274569904930603
Ni 2.4786795230382914 5.947811521697778 2.648530910876404 -0.4282581120524302 -0.42550060391195105 1.0670255525454593
Ni 3.852208075794593 5.855930706293972 10.770086339844026 -1.3555310951558786 -1.415142379060608 0.6061098023590078
Ni 4.077578415835537 4.387095401100214 13.265374617898871 0.17836385405630573 -0.12979931488404098 -1.0480713800404595
Ni 9.643027206191515 3.517949254856769 1.6418291689739672 -0.22918993556923753 -1.2736466016752452 -0.6428884046399379
Ni 0.7561521725835018 8.397769490426574 7.9156857102447855 -4.284546986001421 -0.8404463151261913 1.4732292559010112
Ni 4.546340463327304 5.920291391882275 3.9338983710958444 0.534039466755319 1.181983945761926 -1.0067169854633888
Ni 8.166091671792172 6.572289446965533 3.6575125434787674 -0.22214511290731417 -1.0686844283051207 -0.9541538666546922
Ni 3.2851638730169683 2.311475023538505 6.864268450456586 -0.018426839246619878 0.23939207291321998 -0.46194316300970123
Ni 7.492533678719074 1.700400490281847 1.6438490639044914 -1.1514940047031845 1.351675211744898 2.728722583705997
Ni 8.641208128521694 8.513312736684707 9.915446455752647 -0.5597702958625198 -0.6417920862519657 1.4000335484436275
Ni 8.829625279243526 6.7869314417202835 0.6441869186465392 -0.948854823039282 0.12170908167673879 -2.0714311162668517
Ni 1.5755555903241363 6.33502688165984 12.186881192190212 1.7182808410928538 -2.1463263229138456 -0.19859792171499346
Ni 4.765647364125132 8.845975915716448 12.710089357356193 -0.394340890479695 1.284797218975426 1.0901526254812257
Ni 4.457059605617527 1.0608484420660362 3.2475836902900546 -1.2974223639386042 0.5091984964522391 -1.1478666923632426
Ni 0.09962437171273908 5.982361862028906 9.577736355233256 -0.9019525020607886 2.102542492959676 0.3665066418762462
Ni 7.51988485821511 8.863987896997466 3.1580972763582587 1.3082801325887146 0.08063622289582888 -2.0215118628389055
Ni 3.9724443864823815 2.0911074901795743 0.7171875358498393 -3.9142140284005493 -1.8740614105320046 0.07880405478309654
Ni 9.281820809298607 4.618313299420509 13.00091386699755 0.5876616229561492 2.4642918226565946 -0.2700643051860962
Ni 5.778551459977802 2.251751085606702 13.271694298459845 1.2764159368902661 -0.49864617485768964 -0.17099147285163455
Ni 6.162885278380057 7.853589897550234 0.622165183116821 0.8132147331037479 0.476554999385605 1.3652676057173518
Ni 5.952607833544886 4.45537010242285 10.3680709318966 -0.8657182023191026 -0.39826670789666246 1.124544215587218
P 2.28384226017669 7.51714410858819 4.896502202391461 0.4786746168317691 0.1452066505780467 -1.685056274711769
P 4.88548945740083 6.522589894655476 8.82674561490949 -0.2302371458868293 -0.0606590084429536 -0.07347107260595732
P 9.1697316584607 7.111569480577312 11.959826980631908 -2.9990985065952414 -0.9576803917507118 -1.570726773328553
P 2.023837104644884 9.21341470217194 9.542705445104529 0.4024223819362489 0.46176112890588217 0.5659797671073413
P 8.43835511161424 4.680299294407407 4.69762327244304 0.1821109798035638 0.03561157855602254 2.858054214925
P 6.25630541891679 7.355552514146272 4.504624752224977 -1.0674420712575874 -0.9108765440232958 0.054225851223100155
P 1.8041359864349649 3.1281245510718168 13.3843006249979 0.5853345174848694 0.15555636924348695 1.3804607685180226
P 5.986585620015597 0.15489177566214085 10.645762370038007 -0.6127080244018157 -1.2766481075057303 -0.8766975841487418
Ni 2.311850468692877 0.5676721347983125 4.897477421179943 0.8508991350283991 -0.6542285122431055 -1.5578267774374333
Ni 1.996223113540788 4.980955774028893 0.5721211598776264 -0.18298721176093 1.0524815932930132 -0.3682634766663529
Ni 2.3334761095847325 0.14247580440704272 7.126092637761326 2.144865164987287 0.9218050180103414 1.5232043022675574
Ni 6.257140784385269 8.765940394933093 7.560116622344779 -0.6277163248851899 -0.46921270008792093 -0.7351910081301016
Ni 5.21693243968086 7.604369404077778 10.858405119345724 -1.1947304467943167 0.675883628619036 -1.271441109383494
Ni 9.011143625253764 5.843250046205041 7.2843211822329526 0.6736616812670526 -0.9678935848382879 -0.4124468560517865
Ni 3.8099329514122515 4.340145984545934 8.81550854143912 -0.9017586408824275 1.4464391322913606 -1.1381193831684917
Ni 6.710866253444418 4.177024451099949 8.161601347745878 -1.013387198394713 1.3492154373504959 -0.3201630216147003
Ni 0.6573406396299791 1.2299770979819817 0.07421612089058112 1.1399078425274818 1.0202870108383395 2.0906254298071154
Ni 0.25676037078514147 2.9485115892200198 4.4768746622524205 0.36942818639841535 -1.543921737320567 -1.374649304042568
Ni 5.020781118778955 7.083917944957779 6.436508768273838 -0.8332693377617777 -0.014557843209516865 0.20190358904945874
Ni 7.92147038146078 0.2263943666994948 0.21346779003445013 -0.5390238073437879 -1.3890824487487625 -0.1002038606151113
Ni 2.5338887329887654 7.1786239851482385 9.129575921974793 0.7685934948499473 -0.5872515320019241 0.7880678015244751
Ni 7.090197265164659 6.528653333898591 10.398816135588163 2.05254019289962 -0.4626353039807194 -1.1703803000847264
Ni 6.060679721231006 6.231760691949689 12.646374437433408 -1.7640248800971878 -0.9410947194778888 -0.0968547416372203
Ni 0.12363315072197362 8.35361714027237 4.478000997715538 0.8106803967176685 0.707135387544466 0.5642748686010927
Ni 4.976347184758971 1.9528122675664692 11.083179440204102 -0.24635719137714343 0.3245115283913831 1.226078879198611
Ni 0.25869672916881753 8.418268795855312 1.9262514001203876 0.35307879850611446 -1.140277824272391 0.41213369568674185
Ni 5.337713145842488 7.975816067556196 2.7719078202805183 -0.7419663791807222 1.422666198241479 -0.39024358048186986
Ni 3.396502133546129 5.197597014230677 5.644580426930182 -0.21838641719583035 -0.6464524678421124 1.200585362913197
Ni 8.044287877584878 3.3999843873529336 6.644660254922374 1.965096203053338 -0.0920300665550673 -1.9355737681141894
Ni 6.060097781241729 0.1962282871585515 4.631436046178713 -2.7365773038637258 -1.451367165720597 2.6129854033419777
Ni 1.4205436722125964 3.9088439773316828 6.153088975689592 0.5917249943922455 0.8834788687366333 0.46492050047047023
Ni 7.584865028308127 7.173395911373602 6.065169106664416 0.8354691736265741 0.9729486307636923 0.24974821933656344
P 0.4855453845051031 0.5812219504196154 6.03013819653569 -0.8693825385445673 0.363441115577045 0.9931215061671411
P 2.5088559273209796 2.625046816470405 4.343977402346306 -0.6460634599338099 0.44069093849914426 0.9771138178849752
P 6.224045294027334 2.233419975944465 3.9809219380681125 0.8636973152343319 0.5103277249606759 -0.8961770330295922
P 3.6231114425965023 3.6404476225996514 10.940761829795987 -0.6016463672710155 -0.2511934364235222 -0.07006796046167933
P 1.9869496182277873 0.39143067043278024 1.6650185389337842 1.950786985519518 -0.5869481418288923 -0.17630131510032218
P 1.3971815974817683 4.665131310170759 8.262915222653293 0.03502459570430097 -0.17071996435780276 0.1341475645504077
P 5.144039762959442 3.399674645100577 6.8274241402322415 0.2417546596081256 1.179802878950207 -0.5743340526093077
P 0.378061068485576 5.585722828692093 2.094674219146113 1.3056231545818417 0.10203680005879202 0.8215060265782625
Ni 2.612309839608318 8.339763214076024 11.7167412609819 0.49856852754221875 1.140127671847772 -2.6681810746775145
Ni 5.073456073937415 3.5377446006210587 1.7285128848283728 0.43070091716596787 1.2772836842072004 3.129064943184766
Ni 6.507299890743656 1.6509449773221314 6.571149970922013 -1.794451057797529 0.08713262925344994 -0.15968119004513792
Ni 0.39372839477753985 2.6672937824661687 11.976903164865655 0.29315229735381126 -1.326194036754658 -3.543620875159755
Ni 1.365024720009765 4.504741140222833 10.543156025186663 1.9591880650990192 -1.9696647962606273 0.13522022878929615
Ni 9.516032882725023 9.041517138242497 12.419980070733914 0.30943123701949293 0.5053346426214588 -2.040225380088009
Ni 0.8258873555566474 5.908999878864522 4.974901720914637 0.11561890961860088 0.14509043671515656 -0.22888140318988323
Ni 3.012346651592202 8.090655354149881 2.9653596905224853 -0.5676355575432096 1.6207465568901056 -0.35770704130674524
Ni 6.454061767853638 4.491666262721811 0.35320472204034553 0.38393023666933235 -1.7682674574236257 -1.8389787078962585
Ni 6.423134473262204 5.148272907074992 5.445303525118126 -0.8009641978711689 -1.018952094077 0.2309421423736539
Ni 0.3419892366663535 1.1717173961522314 9.785763944980847 -1.4121161906397743 0.08229998375149697 0.809757884903399
Ni 0.6927573196548217 2.486366762574068 7.786525068237562 -0.1797036559136518 -1.0369359322489302 0.6231395041477849
Ni 7.725037476693094 3.7780670439348865 2.9847983633901203 -1.8561145962455972 -0.0244380784377063 -0.808968042012252
Ni 1.8857765352532618 8.05913673344031 0.044097910606820306 0.18864698114986866 0.2382942118633509 2.3555626981792916
Ni 2.814928203294289 1.5406861216117917 12.388452063895485 0.23602727020604514 -0.25593120821882376 -0.7251099697450157
Ni 4.502366449621427 -0.010654194868205213 8.958448020611813 -1.2435397549875358 -0.48212478016389876 0.22251689442443615
Ni 2.4129484626365287 1.9967111922414722 9.827292872118875 1.7885058959576876 0.9188821879365917 -0.009223318370480888
Ni 7.131749657624834 8.13910655132165 12.353724325728916 1.9148853865269022 1.0140178900001762 -2.0626333154695637
Ni 4.445402033574261 3.420906068580341 4.172464669700095 0.6058146397160921 0.9801274079003183 0.5598096337408875
Ni 4.619148664888988 6.24415976817284 1.4342962282172604 -0.3703270440636009 -1.3695592911141705 -1.2770255454498072
Ni 2.142703040519213 7.010800001143737 6.853511946783813 0.7502936680994949 -1.8401863550511148 -0.10300739150217743
Ni 8.117227484950593 2.7647405722835474 13.456478078700236 -1.4560288328623248 -0.466239733502526 -0.0608541551728952
Ni 7.422034464856781 1.1857872033123402 11.589009187787065 1.9381440999445263 0.9765923981638664 0.006970774890878318
Ni 8.047300824948719 1.0806156294437477 4.905650862190632 2.183016479246027 0.9299384457507534 0.09730905556581951
P 3.7918083365849196 6.634303600339009 12.833122734444055 -0.20756952908598442 0.8279602668440386 1.077400210911564
P 7.234865669273237 5.68169599627856 1.6873556483931749 -0.10998793658506863 2.1389840236161617 1.6826348097544699
P 9.468726793274088 0.9388381530238378 2.6436951772880866 -1.78324850421349 2.238225263207687 0.8822804775531579
P 7.837924448484041 7.42940257601134 8.262146498699716 0.7827448466496648 -0.3110212072144321 0.5556051087412366
P 5.355922235829555 0.5298854572364936 1.2366938117937056 1.335145589520991 -0.5764750102117104 -0.4207882860379463
P 4.354516147829542 9.515094269839093 6.466731164587937 1.4150007112764211 0.06876055450416546 -0.038195280122798735
P 7.357504828949009 4.584241651661206 12.038020942933066 0.15119449273036542 -0.3690530624471837 0.044393438513710644
P 7.294552062689603 2.854894339977241 9.68552102737628 0.12169545482998397 -1.9862417267827015 0.25013697013454983
