# total energy = -381166.78325192427 ev
CRYSTAL
PRIMVEC
9.20440840913839 0.00000000000000 0.00000000000000

0.00000000000000 9.20440840913839 0.00000000000000

0.00000000000000 0.00000000000000 13.47158210263161

PRIMCOORD
 96 1
Ni 0.10395642875956693 7.721274417333819 1.4564264190138776 0.17997387885590296 -0.8795507373268208 0.7538063092384438
Ni 0.1629723337619323 6.242935983807624 5.607033785618857 0.7953453090224948 1.1779789383675905 -0.10696997569435127
Ni 6.778908681888901 3.3166888907524275 5.980426257733811 1.0902315583482771 0.04107851520786474 0.39683537476677466
Ni 8.038946162634852 4.9987116766028645 1.6933506512038405 0.2690032109114335 2.0611652155644697 0.864923474331949
Ni 7.960414150613051 5.105943033852512 4.251389194925455 -1.0401516109727504 -0.5912457407629818 -0.5724070107899238
Ni 6.482453097829108 8.345149215134764 8.38100774917538 -1.815067705606616 -0.03294071659207875 -1.5193851856317833
Ni 5.483415820187961 3.49345955306826 7.8396790058766275 0.7326150198728092 1.118983690780305 1.213318494209149
Ni 3.9692630337812185 6.056224560476372 2.9286006602696797 -1.038634660107592 1.5159910723485697 1.9542695447514795
Ni 6.842161376053673 2.4500662315999855 3.9075134194996135 -0.28290747969735147 -0.16593025627864327 -0.09388537459625121
Ni 7.2606674148027635 0.866181767992591 11.279297372315549 0.5554045626946564 -0.5297783774861199 -0.1473468368495011
Ni 9.101779194533277 4.120574302607565 6.477392514119592 -1.5985826191985568 0.9738947967270454 0.748302348701079
Ni 7.909357297508864 0.31269400126664654 4.067784259411522 0.5383074980030536 -0.20376995283423616 3.0047659892936642
Ni 1.2151659900513558 4.001064264622208 3.9658454369617515 -0.013984230094233982 2.880611531400226 0.8255709406762557
Ni 1.2193171782161276 1.3174637844266837 10.845741205477282 0.4343415992423487 -0.05904795520209186 -0.11932181239148483
Ni 1.9828412594669993 1.9032967625269612 13.30524839871941 0.4928673633923834 -0.24903679509183566 -0.7107089638283373
Ni 0.20326923350776502 0.8496294804610854 2.4370769705398394 -0.6246605687780016 -0.42268267484718175 -0.03000451678189026
Ni 9.353611806923864 5.86520547403844 13.021038359525274 0.3301000782227541 0.23924526292271053 0.27020468741870235
Ni 4.077746190566139 4.758366165830096 9.286123244037524 -1.116939663767083 -0.5995666019238513 0.7946703944426572
Ni 3.424306833152673 8.37993267428038 3.6677459455710735 0.10424923432907852 1.1691045186960962 -0.28942214088741763
Ni 3.0557163008726658 8.382335024859106 11.249444714721749 -0.7977940276733035 -1.1359604278439597 -0.05520981240292427
Ni 7.413074008222475 4.624230322980388 13.02165781620707 -2.0972272513943495 1.8214908355241404 -2.5769439363373876
Ni 3.519581663958775 0.7239874656345514 8.995473800763401 -0.12908043444014544 -1.6095643150210408 0.8651877837369293
Ni 7.822614953240995 2.510714078202382 8.006794243835818 0.10477091116050342 -0.006611848889562806 -0.6133335738009565
Ni 3.946445305487496 3.575277538870158 12.193196634063815 2.105260663221787 0.6191105854940498 0.573567092536296
P 4.495230539988646 2.2715651405148023 4.379544013230887 1.1633241645688934 -1.2580073524760915 -1.9498873565233836
Ni 8.96475316746242 1.257856035967567 13.703428342514478 1.526174697749791 -3.0999662260465968 -1.7386200668708378
P 0.20659754756626048 -0.5431337277757189 10.48503977159201 1.1590016259341394 0.6647078145078746 1.5118276849994994
Ni 1.4297943839009053 5.417806797486203 9.163895144267117 1.169751408251476 -0.11490851381513759 -0.0883202218036479
P 3.1643467281911484 2.572853038957091 10.024028695534495 0.1306557493470653 0.9006232417264037 0.67932684997263
P 6.693454954789699 6.377937041042006 11.534476707581325 -0.1791704091180011 -1.4134194828322304 1.5665248194320636
P 6.331058989327633 0.3532283747478476 -0.04610856317651312 0.6878222890381509 -3.08152524573259 1.4464350185263024
Ni 4.857838206842708 7.623615644765686 12.853788737204209 1.170819958725306 0.045158341704193194 -0.7229129620936969
Ni 1.8514115126714885 8.187312020789964 9.102452036783488 0.3679971103788437 1.0591132396769178 -0.7447868793486528
Ni 5.749736171317684 1.159286026973021 6.711502038236857 1.1960597071287014 0.7240866706868239 -0.3015940003632612
Ni 2.770462481771912 7.553330782623344 1.5554695345974907 -0.06808255460053436 1.614787511093193 -1.2506092602398073
Ni 1.5821273420538364 5.661870889231406 1.5906165678728361 -1.746651421815747 -0.3677564551229473 0.7327260915293768
Ni 2.9464323605615026 3.1101235586153835 7.981683697422707 0.12585112886957037 1.2520652759600435 1.877177073342851
Ni 5.370054326978807 4.713006841493078 4.871700966255042 -0.09358455552638076 0.5059203399215997 -0.29578587832191644
Ni 8.314323651578622 8.294377698689352 12.70348627153276 -1.7331821836847183 0.9244172588222078 -1.9107659650418898
Ni 2.548801919944789 6.015200512471078 12.386378756463436 1.5074946048417843 -0.0057353598218804445 2.5474613534972383
Ni 1.6645620232150236 2.913158424384896 6.218010446002298 0.3110803425871416 -0.26943335647031663 -1.2258737051663404
Ni 3.159818159284125 7.824731967160945 5.893588187619128 2.079792857967986 -0.7294373934757761 0.265649206837536
Ni 3.0669272702400536 4.312458603430172 0.7958269523468058 1.2542090617759238 -0.349058878713444 -0.5134485299778447
Ni 4.114407349014667 3.169832555566324 6.148753716272382 0.1286086370100495 1.271930904535719 -1.0384197158833086
Ni 7.529215232752607 7.818831941410129 10.31250958020192 0.0511667526818022 -0.5982445406783181 0.2316653936929236
Ni 6.270981816042788 6.80675201714042 3.030445597754305 1.4562628032500016 -0.9588345599598134 1.5001373931457649
Ni 0.5223630598985042 3.4022990927935397 9.487738445365224 -0.5622095014316317 -1.5197991332407503 -1.2611042462338604
Ni 8.827579869858003 3.086910040762713 11.686192970374966 0.22573103048635965 -0.2500456959723242 1.311287809066787
Ni -0.08461796682124016 7.253929787892314 8.50964763980073 -1.0024119303301318 -2.6312464064346943 -1.1391768778987283
Ni 4.607846476121644 5.750987970852959 6.967475713943031 -0.6398241638923174 -0.020536686500771083 -0.4211999196540681
Ni 1.1918236104818192 6.797068979558734 10.905097673588509 -0.3947648653909911 1.2722792890140733 0.28588224605495927
Ni 7.358105281570554 8.860485629700705 2.171389882704433 -0.568732133041498 -0.17134268554346618 -2.300119429609323
Ni 2.3385916421020916 1.7162079584534584 4.043899740190311 2.2760019677358287 0.9963274146989486 -0.37845867203179984
Ni 5.257834180404758 8.517078358659756 10.547359138750332 0.4312832720319992 0.48600997415091785 -0.22772106433319494
Ni 7.807933921926558 2.841428470131978 0.7321223217321684 -1.7937555743924012 0.6878711399982153 2.2667727358280767
Ni 7.108711837392084 6.019903965136707 6.442528056180518 -0.7832667805914059 -0.791554988742127 0.39969212748927935
P 8.582668972544818 3.4145777735292504 2.9573082894650375 -0.5406032360157658 -0.4703717533930286 -1.0243010170937392
Ni 4.575318097021193 6.140794664374205 11.190775815914087 -0.2479150227825666 -0.6422592556963713 -1.282351585648411
P 5.057435801860612 6.800180069580227 4.982396862806728 -0.2953207657600398 1.1659981118566307 0.09306622112906553
Ni 9.303815957763296 2.2247883372922526 4.574195159202785 -1.9059338337605691 -1.7497704270607028 1.958269409939492
P 8.119125763750874 5.2728097527863165 8.24819181848272 0.5509046179417738 -0.5525634937014355 -0.008410849771514548
P 2.208864710850889 0.5498299348486045 1.9759177035079276 1.2667105366770441 -1.256647238903771 -0.48400014280974063
P 4.494236463887105 8.903681918076034 7.411512020125886 -0.2872796406231181 -1.8809887337794573 0.18448513646269515
Ni 6.219796101221734 4.055471522364925 10.747143583257692 -1.7554538505987252 2.3414283156604387 0.8821773763163904
Ni 1.6483346512981887 6.865586595298336 3.7704671427303915 -1.3867489155195796 0.1373331613672409 -1.0225758068725164
Ni 7.013004399393645 7.175729134571027 0.5396259277544451 -0.5842176302716068 -1.4440606047568552 0.2703442983203602
Ni 4.945869168279241 6.155650579447246 1.0286736316387781 0.22538033201516022 -2.490017252447157 -1.4138282882348747
Ni 8.54409329715999 0.17780523781410437 8.655127915938868 -0.25145388917376055 2.0511955059462674 0.4134171903848557
Ni 1.5428981536763262 1.363402986489601 8.057932095733467 -2.7034203574957827 -0.8836704159221491 -0.054182399579674426
Ni 5.540096566792538 9.331889403223505 4.326533064234502 -0.0898806243122323 0.4792675132207617 -0.058290251100460905
Ni 7.542349923464646 8.294745875023258 6.011854710036723 0.0559708589386649 0.12551868523081608 0.5640370415586737
Ni 6.0120986268579335 5.9369446326997055 8.886757772447286 1.8623922017241925 -0.12730534481759365 0.4345729985268645
Ni 1.1139451114526986 8.21820201520454 6.4583973766126315 -1.9648792019465255 0.7293646312563116 2.1756962914355302
Ni 5.707579981085634 4.388542242831509 2.633182413030661 0.8503319496710194 -0.9040998874210947 -1.3298560589872774
Ni 5.123293343587755 8.310568252972798 1.9140291026602734 -1.0889310943692987 1.2846218697398264 -0.644556022150348
Ni 3.530203551191916 2.249483764888888 1.727164886150452 2.2947121425508223 -1.1709832237760478 -0.07664407101730025
Ni 5.443054489583695 1.8652825560513355 9.445047479008178 1.1193863255353624 -0.006556313061279032 1.0544623711684677
Ni 1.1751360181476038 8.176717746781867 13.029848819195607 3.839437863829923 0.6154619329978691 -0.8751379529711056
Ni 2.124791645003827 4.085956522812207 11.151721511295182 -2.103396870540171 0.2914846798434012 -0.7618785447236168
Ni 3.1320116416659975 1.0276353743771678 6.319856303927758 0.305704422987209 -0.7900778899759683 -0.49644685321352566
Ni 2.0244451851981924 5.9756583742097495 7.189109582985946 0.3250424611941886 0.7113453118607556 -0.3520377588361099
Ni 1.3894882797467252 2.715401711036514 2.083191401035973 -1.3586698978951761 2.0757531406809737 -1.6559830114948964
Ni 3.407214246851163 4.0004383648545705 3.303555120481224 0.08345698017407563 -2.003191467263163 0.41181719288758756
Ni 1.1765350882164403 -0.05995659553549105 4.43425225512657 -0.8340298700768861 -1.243014478611685 -0.12925244124163549
Ni 3.8506182101805373 0.14158497052542776 0.1122477597990932 -1.315215169145651 1.7952802385670437 1.6679324705472889
Ni 5.804355130452397 1.5296806232891595 2.06314604053655 -0.2556599568353081 0.1479459038860807 -1.1380522773759818
Ni 3.9315893904144548 7.150315763123277 8.90058003246289 0.1185437965748797 0.7187698864596008 -0.26507456528098866
Ni 5.81354112998331 2.1359197746960867 12.716553770063861 -0.26080344870946054 1.7396839893589782 -0.5742834018770303
P 8.60683974886564 7.1981510733058025 3.455298996499908 -0.1775156471233975 -0.12182580976026117 0.8784878432799452
Ni 2.714711380410443 5.444398333202447 5.094170595575919 1.37188176859976 -0.9035602128675406 0.8289894794395014
P 1.0794653977825548 3.866293317596515 13.222263293939035 0.42398982369437954 0.903868745246895 0.5066374205932823
Ni 3.7922070348066095 1.2983186150636568 11.638733200053023 0.22788510071488494 0.34913241226385683 -1.0287192007660928
P 5.546622492310993 3.8147946528916425 0.5481897092810606 -0.7455175868670902 0.5627165229750374 -0.014118441679253102
P 8.605228977404808 0.8914138125958918 6.639684642104636 0.5411313406050938 0.5123216154622531 -1.2331614970770053
P 7.468328071533174 2.6624303409960235 10.117306169729165 1.2109019143478565 -1.634989954182997 -1.2008563571863964
Ni 8.740855934406829 5.344640955531059 10.510744002343545 -2.551810888715186 -0.3699521772226854 0.2553622230892312
