# total energy = -340890.36777996144 ev
CRYSTAL
PRIMVEC
9.12303948350851 0.00000000000000 0.00000000000000

0.00000000000000 9.12303948350851 0.00000000000000

0.00000000000000 0.00000000000000 13.35249045508164

PRIMCOORD
 96 1
Ni 6.4182315656150974 2.073201583829954 11.446729554279537 0.5257790265187396 -0.5750732447681774 0.4505560042186821
Ni 4.409584608679786 0.5116948592696611 5.684755618187046 2.2999055138263036 -0.8463662801550521 1.5221192967334947
Ni 2.4988096185796556 1.3902417302460253 4.8577694290677265 -0.8381716601594016 1.1178770879796878 0.3294354480555617
Ni 3.489279761696899 4.578187500093001 5.412098076127672 0.9320827457872657 -0.33218421444529245 -2.322556161346284
Ni 5.08237227331692 4.493315864423008 2.764206133569294 -0.4146929717734858 -0.24474768079817852 -0.3542681908285254
Ni 6.827299529906915 6.105968172547001 2.4387526501161965 1.2694161085336655 -0.716172815156386 0.6727707940216672
Ni 5.358827736684411 4.387972128307625 11.588666713789085 -0.2972280100850817 0.7888221631919964 -0.6139593803104136
Ni 5.3279644943462845 7.789570358194969 12.727994754115459 1.231117727174099 0.7048501910547151 0.21022624998254116
Ni 1.9119518621845586 6.44026370580031 0.41207126886696144 0.07669883551463566 -0.9724392952274413 -0.740470511361486
Ni 2.707654236848758 1.7267359159981475 0.4114344807158526 0.04171871989502493 -1.27186508429479 0.7450941261764265
Ni 0.7452017899870804 8.687386913021935 4.629028374140268 1.2830411555162677 1.090155710805019 0.8175408712829274
Ni 8.818120067826944 2.1580458503817037 1.480297076911147 -0.11433875735459664 1.483090464965807 -0.5212564560580378
Ni 6.784941257906939 1.0105317067889958 4.836792824542734 -0.3513314767977046 -1.0009404879909278 0.745792952015664
Ni 1.0123928068294856 7.149351944266411 2.4712388811661024 -0.7931837825948017 0.870951939914216 0.47482978916438223
Ni 7.566220107257342 3.8964045185934992 3.5643404807808965 0.13756353221049214 0.04738388860060226 0.5857806038833524
Ni 7.722388295949046 4.010935155398947 12.499012850947468 1.048897989706813 -0.7861253330861236 0.6592128528315744
Ni 8.202807551499061 8.982197931690731 6.881619931186746 -0.03897252460845546 0.2032387629211145 -0.21599503414551832
Ni 6.736096504883491 0.9240179240244535 0.459887855348433 -0.015142254958077146 -0.9412315021660693 -2.332625372656828
Ni 1.9854926829021557 6.55274165873757 9.228413256312084 -0.42304725727545206 0.1918230648850051 0.45259668879779474
Ni -0.04419109061828177 4.9134135833665535 1.798420198194962 0.01567473042277946 -0.6753835490541659 -1.3460236698860755
Ni 6.513457851020168 1.92649398701074 7.110628291169039 -0.4098258734891716 0.6652821989541059 0.16255028406281682
Ni 3.2099870330716014 4.270777563993241 0.42242865551386477 0.5896169469103071 0.5634377174117781 0.5812076398006893
Ni 6.247831435437293 5.768899235311787 4.8000069050169305 -0.3673571628019996 0.11965657002308425 0.627298777731797
Ni 5.505964116356091 2.978143232439385 9.356370270223362 -0.25219668087705605 1.5115584904985129 0.2211902051932126
P 0.3567601055067519 5.649131973882607 12.451824841881633 -0.6675236866901149 0.212989157439659 0.178902243058279
P 4.00899194800373 6.047717565887548 12.777131444400162 0.5496491482681178 -0.04080083606644586 -0.08746918665726226
P 2.4084094210246785 8.371775364488842 1.2804413893768227 0.8222421334133388 1.4569603435376584 1.4703159389089582
P 6.383883322220759 8.152913648942983 5.814221582817426 0.05750477908468807 -0.6897434173202637 0.1332445931201641
P 4.745494919909402 1.144293710679507 12.66416905807001 -0.11581251368664569 -0.18876936566034586 0.7872607322421473
P 4.13876718367025 6.342099801703876 8.333435791350807 -0.0906756094097019 -1.3217342012110913 -0.2938269548233327
P 4.786055953144786 1.072851189027168 3.6701987563192375 -0.5246837365720318 0.1150938903530663 -1.0013652342331723
P 9.023671268867533 5.771043149574116 3.761490274824979 -0.7529426756865678 -0.022252126529981032 1.1369790989164612
Ni 1.6361988728519579 0.9512319505969126 2.690566784026024 -1.4375698548261888 -0.07039731877664004 -1.2829614513182679
Ni 1.8352271007114171 6.406097923194255 4.701946091265878 0.25162075376892795 0.02408635152524239 0.8747725992118871
Ni 6.223929072172176 5.808903763142908 9.24196644366577 -1.6339008348838764 -0.0519707366403363 1.2124923987634277
Ni 8.912580017921226 2.187412914255906 10.337991977412804 -0.9615247051974665 0.42258060205167863 0.3243246091915576
Ni 2.2614737482201104 5.31740001470468 7.12208500406535 -0.013731490653479577 -0.31905256215934086 1.0064045964292927
Ni 0.49976283601987254 9.10108938133615 9.194524814104222 0.572021345315731 0.08928335704786558 -0.07816950652289117
Ni 1.7129327573645134 1.1878379778033243 11.51221016967472 -0.3448245289171223 -0.6576308530564351 -0.1759606439314518
Ni 3.970583952070088 6.836121509020415 1.8348056162904827 0.6252848326255618 -0.9593079000518059 -1.3405611041096075
Ni 5.824120992885738 7.923606053267906 8.048467619905956 -0.8844165500595542 1.1121401854959105 0.4250861420823518
Ni 5.41461512270204 3.0324070708748483 4.671395769179658 -0.9940964684859008 -0.2725166233813307 0.12077345723634685
Ni 1.0987423748845728 7.449071158140028 7.0268012435119696 -1.116096341930181 0.7097802813664809 -0.27467326471301723
Ni 5.040862443982461 4.458429361703235 7.287095242557265 0.8851392871581918 0.8975626005232089 0.32630821528048964
Ni 8.219010069498621 7.10131001871141 9.441639670411812 0.24790268148739242 0.7966761120187763 0.438209052617555
Ni 4.624404817765169 0.276040365074147 10.653004142256387 0.1483598514950477 0.9364829317374903 -0.7257676579336726
Ni 7.908963575008168 7.841562559816305 4.141715750008909 -0.7791486446579743 -1.4833370337589744 0.3820530742512775
Ni 7.4852896246142695 6.625917557878601 7.182758689993207 0.3890611301379944 0.016656120499442283 -1.714360680102841
Ni 2.4811109221161725 5.08942438278407 2.6604835615578097 -0.37885102237421203 -0.5246156023382578 0.2632459967126821
Ni 2.50319780053787 5.381589720022757 11.37582802886446 -1.3086840528953525 -0.46289318562779636 1.088727462998925
Ni 0.9583296752611342 3.3425265496806147 4.026964335649638 -0.26240524597894166 -0.05729677683894003 -0.6054356591101187
Ni 3.295697988367697 2.634277630840616 2.939257189240441 0.9542088882623437 0.6238905233811964 -0.21531806268315176
Ni 0.9643782503927267 3.4443396695427144 8.459804484100077 -0.31897774305734744 0.016463287762345843 -1.6556760217774387
Ni 3.680571652133145 2.589720706341826 6.928620917944591 -0.12452186853518556 -0.2748223886963718 0.21376717325626413
Ni 4.301640806331367 7.000819739564364 6.190054314523435 -0.06805247269354732 0.06439250734345685 -0.6249539316487044
Ni 0.8056829797832981 7.659010541138831 11.180400664661772 0.441332171627569 -0.8937087739947576 1.1178668035670425
P 0.2191089499139815 5.7774110310852045 8.104668279609047 0.7269477942847029 -0.5736755930897024 0.3574100788916167
P 8.494690074515908 1.722657917380015 8.132387722565051 1.0799630865427337 -0.31455004630329697 -0.082847885835167
P 1.7972387645908272 3.148306163592421 10.431473025377946 0.8254210453619525 0.9783572033737731 0.5110669171195457
P 3.979706991484255 6.203995231052222 3.9217200406638706 0.5720295728458471 -0.36708025499152913 0.5241006103750522
P 7.187559233332941 3.9399944009143875 10.26863954409025 -0.11399062998655853 0.5091064509590651 0.7417048979892193
P 6.216749240153227 7.888254275538009 10.564410306505415 0.8716353391344861 -0.9575279253332479 -0.7167423145066107
P 2.604144231655624 8.578257115549675 6.065823149908903 -0.7580884815535653 -0.22034945445947213 -1.5406759766897593
P 6.940461710800238 3.7345070611496984 1.3318068381904051 -0.4329706870367511 0.19171147900780533 0.7387499291259535
Ni 4.898643382555018 2.6964328983693333 0.839636195571002 1.2102359986290836 0.3737913484631175 0.27803986719240503
Ni 1.5679767841128196 1.0465950815931964 7.149777990207053 -0.8454566238565892 0.555215843722618 -0.26034939189117745
Ni 7.092415055282598 0.5791761572083689 9.314483659361098 -1.2619678797857363 -0.0052604770679909405 0.003219535378562197
Ni 2.694982335102481 1.6389722768338644 9.16289249954348 1.0427761930797914 -0.4920063009436688 0.40428077530122625
Ni 6.594899223870434 1.689705499016045 2.549244517372993 -0.4954850035208887 1.0124207207163853 0.7272288158602314
Ni 4.064861441376086 6.952796060088191 10.527784040169362 1.1775243673286753 0.019403087116960132 -0.07181991015577953
Ni 8.551745563012107 7.3308183212536 0.33420339055522497 -0.639545199199318 -1.622948963858063 -0.5868159871264023
Ni 7.631331239556249 4.445200954552694 7.98635158144672 0.20810637542606095 -2.2072414132316633 0.24759851998341229
Ni 2.984273914925705 8.32224638350933 12.5170518367811 0.360321853221773 0.5760230102759564 -0.17756449808346192
Ni 0.1248205129606865 4.8009173843504644 10.446107292902209 -0.177264707454856 0.11524352855705314 -0.5483371143249137
Ni 8.675700299532389 2.2734066837738407 5.988418721999406 0.6546419456314403 0.8959669739013151 -0.4656774332411529
Ni 3.5163113274810747 2.9164167477631335 11.836702084773565 0.9294098269407929 -0.519517361879744 -1.2269929063724483
Ni 1.2771616567074298 3.4130932595491936 12.629145709759023 -2.016187879522831 0.4167310852494371 0.11971467695452932
Ni 3.28488718666191 8.408787535392115 8.176290525137844 0.5528118622668157 0.7851233741841704 0.18972350204349905
Ni 5.568447813303718 7.852647052704517 3.571911691190713 -0.4874346224125863 0.6975346312299083 0.36884994529744214
Ni 3.1037857312512878 8.382102645105679 3.5846365065655927 0.2882690011195809 -0.13410154180382067 0.4319216769469465
Ni 3.43414923451709 4.421617897667073 9.419007234233147 0.35314410452641115 -0.4742250657008477 -0.625638873530871
Ni 7.292428571398787 6.225169805532503 11.667753430166552 0.5505780878402904 0.7223925708138527 -0.8606757547991887
Ni 0.7199355323295459 0.10255208605464715 0.2637379464241433 0.7814500390976413 0.09527968384061655 -0.3909292936949848
Ni 4.602655491801795 -0.008409617731978805 1.5780905856073648 0.17629205912894155 1.2218365589824893 -0.5427387943015298
Ni 6.091371309484336 5.558011056213911 0.2508480040358672 -0.7276826155681984 -0.12323348874106518 0.6758442907406683
Ni 7.985131831077045 8.931975599715743 11.423950237166306 -0.29773528873880334 -0.3572812666232363 0.5155033556243445
Ni 0.02686187725107224 4.978095932812995 5.95359516825159 -0.4694039901631207 -0.4623537681845586 -0.6913174466756029
Ni 8.32750125421189 8.95730115712947 2.0389655538204106 0.37656196922971924 0.13782758450515617 0.821410895761295
P 8.531264339527302 1.2947782458161856 3.6779433044779233 1.5320956912199164 0.5200104994660787 0.2877054153066271
P 1.5842249173094505 3.289786258827317 1.6268276867657259 0.5909986577491823 -0.327176733928372 0.617819120376136
P 4.849524938349144 1.3262162396374038 8.40588640885841 -0.9758578339906872 -2.5036983494786753 -0.9547714456340332
P 8.609749847607379 1.480185775830294 12.579902279913178 -0.46133458289142487 1.7457235106848386 -0.46138754761654727
P 6.637522064013421 7.8536688331189035 1.3631289694110633 -1.5755203380624543 0.599353971692413 -0.8172521363979152
P 1.7850047687364297 3.2994840497245765 6.065889748096627 -0.44655613903066965 -0.5782670691151266 0.20252990977954793
P 6.843857846443627 3.9764774355316397 5.945543173664647 0.7170611312986103 -0.1521188043168477 0.3256279013840134
P 2.580533805651761 8.639053050205682 10.284489000464482 -1.6977063593756117 0.02377293404988164 -0.30279779086337527
