# total energy = -340862.42110531946 ev
CRYSTAL
PRIMVEC
9.36344559772780 0.00000000000000 0.00000000000000
0.00000000000000 9.36344559772780 0.00000000000000
0.00000000000000 0.00000000000000 13.70434910386028
PRIMCOORD
 96 1
Ni 3.2308194775064445 8.253446646899153 8.400341319044518 -0.31267159833366154 1.7391594843140759 0.8737025060761597
Ni 3.6468841862206416 7.665749978902157 6.152362471570295 0.27249656877667267 -1.053884901398443 -0.481877440039783
Ni 1.0461216049597155 3.7586181834995096 9.417135675795302 0.44379991644177114 -0.17994559672112878 -1.3617274537745774
Ni 3.765041507234807 4.825667089550172 12.77842821441655 1.6288923259256913 0.2460594576310665 1.5062435060435027
Ni 1.1436980723730303 7.656845342062115 3.2350760999117885 -0.5372209498070941 -1.6075863653590634 -0.8953920752344515
Ni 8.049613797928762 7.2096190861306155 11.300113365561806 -0.2621054553503357 0.19995906372857822 -0.2449417990868556
Ni 6.041519874319999 2.7128711163669252 1.109585167077935 -1.6395441492125826 -0.19855369874061932 -0.18479598283489465
Ni 5.30853061973319 0.5891236571183667 10.174328501115887 1.2026383887874836 -0.7451558326522972 1.343450252731944
Ni 1.367400153072724 6.450842902145836 5.541024975924786 0.9148913216096437 0.060629697866914946 -2.2794834985265258
Ni 6.7815785303939045 4.843513817012967 0.6456311154421949 0.12751334706334166 1.1312414251017355 0.1315947162215669
Ni 2.7064009754032363 7.493537485987304 13.191943256872552 0.048157276431517064 -1.1386469735371874 -0.3367978019579038
Ni 5.531595986126762 8.869083836800128 1.4769721307444783 -0.6427089416392802 -0.9045200056776486 -1.157441480535871
Ni 7.132866921905786 0.9686484554176593 0.1192865525629658 0.4546193756547784 -1.5348835383776986 -0.10315908658869331
Ni 2.398212524348458 4.8563136472551705 0.8511315940878877 -3.3778124891709567 -0.4490033150195815 -1.642333539032262
Ni 8.216498490252675 8.806376841092712 6.900427810043695 -0.732288489771326 -0.6004888566278045 -0.8583833592205862
Ni 2.0393210149458145 6.1838629755211505 9.273746677711888 1.0721885848036374 -0.032393328729040986 0.8255871386261716
Ni 4.017760906091478 6.14139038592449 11.053283574036772 0.7912950502125211 -0.26859466261910514 -1.7411544032569175
Ni 2.5950040621687864 4.397167724975225 3.14964308519863 -2.9629806778267613 0.4336947096869692 0.6223825713771023
Ni 0.21744355360833384 6.719114984274124 7.401829089980564 -0.6402396541631812 0.1711241417747569 0.8858321994601582
Ni 8.903962671951705 1.1538667743796382 1.3275895910823976 2.4893526222799642 -0.046032259668714264 1.3513265701562274
Ni 6.305419227316531 5.544714173522026 12.219057842285473 -2.0692752462661135 0.4558133959628795 -1.4803527543196697
Ni 7.801660392922333 0.44899969254296535 10.0905668614563 -0.916629644456989 -2.180672404493883 1.3389551930750683
Ni 5.6900442138945495 3.0180632648046557 6.45097960845274 -0.5129829031953359 0.8184957789970292 -0.13521071570759938
Ni 6.1790501644425175 4.5694832157925385 8.668453286251706 -0.2617614417473556 -0.11746958967409447 -0.7825772107235491
P 1.304487161560387 2.4197297225171366 11.188436485301576 -0.010762380722826625 -1.4303134303740914 -1.5052492604510335
P 1.637413836097171 5.8897290564294655 11.866458568378633 0.5235308539145113 -0.24283632270807856 -1.0569527416904894
P 1.2958353377536598 0.3779245854328752 2.4810490555750304 -0.4221622835673374 -0.02775171619197156 0.9113660820652046
P 0.10842214654246209 5.215532877256553 3.777110052369537 0.20136931381254353 0.29872722033842747 -0.4174522796861778
P 9.007662832838614 8.17883871173465 9.247777161123189 1.5134703628092452 -0.24241826133405348 -0.08951912720775551
P 5.571287632356974 8.910011457859872 5.7664883207565625 -0.29519555303608513 -0.8196486616545497 0.7020281482248877
P 1.0607379436635045 6.729377320737515 0.7673362460238595 -1.4379724895812462 0.17635865070081883 0.45310602433404545
P 4.131938762692377 2.3660678153349366 2.376183145701178 0.09942198814376425 -0.39081745070746887 -0.5269583915388215
Ni 4.6954871042851 4.194964115552853 3.4729291560650606 3.642074071632347 -2.209042213885828 2.0117558118934067
Ni 3.8939012466592424 6.1510628253101505 7.962432627907469 1.8522790245495908 -0.5128016404224652 0.6196903692569199
Ni 7.594503520736154 3.928358726755299 2.4548604343574603 -0.4425812135433217 -0.8126508901804779 1.99036140537803
Ni 8.382109753964345 5.077843408557504 12.675097909633934 2.4113584649926727 -0.2964821330579926 -0.33233925196591796
Ni 3.4911981749279453 0.1487327165320084 2.3869960527704515 -0.9171698332311753 -0.13711024672315741 -0.5865138825049512
Ni 7.324105936438897 7.1474458068268625 8.491872745927937 -0.10236333016027532 -1.1216308985951648 1.3638450143382124
Ni 9.370374628077993 4.166873778518025 5.663610270400208 -0.5817925657698819 0.9801333214375894 -0.3594785313848712
Ni 2.7542950000476187 8.004032544366915 10.85052845766395 0.12548217556592584 0.5309430872181824 0.009088849675145637
Ni 4.689719221747282 2.3180895196794498 8.718789297528982 0.24862773257887502 0.6810170931908595 -0.2954675757505492
Ni 4.397673351041852 4.546617681446189 1.3909913544591406 2.1838744563709485 0.445271101670659 -1.3139080202984532
Ni 8.951482158768957 1.3605367473905474 11.852974270257345 -0.7597648408147237 -0.09996269113858268 1.6634376680007288
Ni 1.3145154118818208 0.2692505622016675 10.144973162569922 -0.9476782862326776 0.7665535816017831 -0.6481326837580128
Ni 3.577032881460702 0.6099929048461085 6.385898042921314 0.6438291712866524 1.5624151681390641 1.3270468716732564
Ni 2.9536895757665076 6.830764710541888 1.8294618523368846 0.9481811940110252 0.7293530612920859 1.0086476268271984
Ni 0.26706513398035786 8.489162028404076 13.045334169820377 0.5342402699122155 0.3022671151708859 -0.5861385014434035
Ni 4.976690104895087 6.43268718097566 2.96658023143179 0.537786335392261 -0.4295421209711764 -1.2718992799668354
Ni 9.296806035383778 5.882940558312714 9.60732411172331 -2.3145376619171816 -0.2237137429460147 1.2727297462879306
Ni 0.2594133261720707 4.507974741131943 1.607931154689983 0.116674861686941 0.609635299013763 -0.2496086084349056
Ni 0.7893178710981804 3.446085093650011 12.924859396000839 0.9580624576804792 0.7716045137621292 1.2474938545392775
Ni 3.3975262643624715 1.1143623970629914 11.130988000687081 -1.8745391214993719 1.3049834641153137 0.4221638262292342
Ni 8.049323531112735 7.2683840712074765 0.3207064415820658 -1.0473116190562994 -0.6641002628308628 0.7707737903307178
Ni 8.774934390505061 9.19630817291884 3.800106674955383 0.10379826283458898 1.0174659964497765 0.5230498005130347
Ni 2.544366547940669 1.8323514116732005 4.063997600850806 -0.6548710309231108 0.7803871450507657 0.020984572671467083
Ni 6.482725434680366 5.2505896178760185 4.901099944278932 -0.18983765902386016 -0.009015059014416732 0.3739484428662721
P 3.5541018029946043 2.7591920821373574 5.738736940455289 -0.2110541452004752 0.5544807653288064 0.31711523592731194
P 2.8730515815851945 1.1647939154861864 8.747759798457569 -0.9152289074547205 -1.4347059030148324 -1.0286891188591056
P 3.7151156148782394 9.351638373275764 13.008237134387615 -1.094232194867238 0.4527416990160912 0.5659481425384576
P 7.353919147478528 4.867343786264179 10.476220971296591 1.354334760854932 -0.08009551990101045 -0.2899597585584425
P 7.2294789544142395 9.028234322993784 12.171298651258859 1.3433762049608995 0.17222174571430987 -0.5371970385476942
P 7.506140683870263 8.548207916851284 2.1651366981802425 0.8347412943216139 -0.4940631834726975 -1.0147966771477297
P 9.2965813126875 1.1647377348121168 5.689538587827922 -0.05391397640963618 0.1046582968420391 0.5371641284272297
P 6.931655837725312 3.2484976629470297 4.394012243781646 -0.23013173065721657 -1.7095568309562943 0.509747941197806
Ni 1.297970203368307 9.22298462965625 6.933441446816159 0.8045935670936402 -0.3895370413331485 -0.5486991256500227
Ni 6.318219057558735 7.879086725235998 3.867709816407969 -0.9375522535422692 3.285544338463154 2.370923496906078
Ni 1.2081466689766047 2.605331942751925 6.95512156893964 0.7803681188873721 -1.1504519365919155 -0.03858943023742386
Ni 7.617134968940547 6.4112355269267285 3.0386928083230336 2.0417559577999222 -1.8210735454810636 -1.9533652877696555
Ni 3.997470319306654 4.9166329643146245 5.492209588225662 -0.38968128022049664 0.7041189693156453 1.460984377095387
Ni 2.044789267221928 2.267929541180925 1.6530732626495197 -0.9555826286814187 0.5084137957674147 0.13543491590326354
Ni 5.902566340454382 8.995040908064297 8.222938668190194 -0.3020881663908604 0.10056021551326552 -1.8821105060887264
Ni 9.13601694619642 0.9420094524629639 8.305027060107074 0.36601144740738256 1.5710674444974233 0.12878810001070723
Ni 1.628593470268235 1.096571850274267 13.043237694333012 1.5527290511995517 -0.2415782819312614 0.46186114481885615
Ni 2.144603598152351 4.921136781685875 7.140911994432562 -1.0026225036790408 -1.2976568485469135 0.25922684825096004
Ni 5.791843595308767 6.699610926926275 6.833467937309207 -0.11189029581410408 0.8828800588103698 -1.4916614944642697
Ni 6.733160152791538 1.1844946051932792 2.7250136327225136 0.7128031273532047 0.6050301961415838 0.9231864717389003
Ni 8.344468702337675 2.7342104090677166 9.97849297109931 -0.18726578453162587 1.481382738246081 0.5431468283732258
Ni 8.215328059542893 3.169329729737205 7.572790626552799 -0.5867591657465379 0.39433909070748213 -0.27997616498316946
Ni 5.299766434578324 1.3739639284931955 12.69315999634733 -2.135522804540438 -3.2846886753310787 0.19196807510330163
Ni 0.08929637240001538 2.649087324406509 3.3536182585433316 0.32143648901048516 -0.2800895506325822 0.8003939271899958
Ni 5.3997305806396 7.915079810423292 12.248193139857996 -0.710694308540318 0.162608648104578 0.12106244923167539
Ni 4.784702014707714 1.0023287695224183 4.162010404832728 0.7326630995019253 -0.02975100601018747 0.7339231971612715
Ni 6.944118583923098 1.209953813992512 5.689689339303343 1.0454640243245996 0.19249926501642334 -0.7528493446418132
Ni 3.632427026093383 2.6350983365631646 -0.003081509972720654 -0.24852386001115911 -0.15627113592232442 0.04733452341990558
Ni 2.3637175904696894 8.861742895388359 4.675663753439622 -0.3330943849643876 0.20380209162375226 -0.5178417739495339
Ni 8.183829428281172 7.058539890111631 5.2313205830146945 0.6657221147050019 -0.4905279166259294 0.7033306690863952
Ni 6.805914125711743 2.7266728352967045 12.10052879247788 2.517588734307522 2.664362729372689 -0.91182862352392
Ni 2.8136779725392453 3.8843037148390094 11.028657711902905 -0.23352558683011398 0.41590807512750955 -1.4944051186476779
P 3.3159519256133305 6.596182305964038 4.216608656582756 -1.433975452606711 0.4114760074980849 -0.18629159354381464
P 5.200963355781155 6.269135875313212 0.20734133206604177 -1.0041535956115868 0.8483437155963971 0.8907936572304918
P 8.257669560900057 2.9289981695128935 0.09695567096484521 -0.03438156280366337 0.828400953925883 0.6214292063248975
P 4.757950650404879 3.0479420199640344 11.554095893240477 -0.7930336301701826 0.7973116887202462 -0.12250123856073096
P 4.960912698927192 7.721705930275534 9.946918495927594 -0.5253979890302372 0.5526460261129128 -0.8567450522862148
P 3.5112078583424213 4.19704280049343 8.763068095796982 -0.481839387712996 -0.020962975404912283 0.47944080557383234
P 7.581713053939629 5.533449948371061 6.971347483955524 1.0505085287270424 -1.1518539591457646 -0.1572774656996517
P 6.825511817516375 1.787940588821137 8.751241127560752 -0.4350964751305023 0.6524431382079086 -1.3837654074112233
