# total energy = -381179.3718668195 ev
CRYSTAL
PRIMVEC
9.14073489497628 0.00000000000000 0.00000000000000

0.00000000000000 9.14073489497628 0.00000000000000

0.00000000000000 0.00000000000000 13.37838947844472

PRIMCOORD
 96 1
Ni 9.365505776123321 2.6693962934623823 7.63761525277099 -1.7716955092685682 -0.7409993872817625 -0.33957433626177647
Ni 0.9136082465848071 4.489718844219566 4.667399195314168 -0.055880870328019895 0.44345513150784277 -0.21002287572248343
Ni 4.081521036858241 0.7475201757440432 8.639510203392792 -1.216587394768408 -1.2457223644611513 0.3835263163626943
Ni 6.297491165684431 5.968150480030927 2.209440901744249 0.19615511660145574 0.4235306246697738 0.8153060684151378
Ni 8.029093741560878 7.060523168893197 0.8985251195962741 -0.08826237198251895 0.13410668401014322 -0.060325022142302565
Ni 3.185281101036971 3.6293562936658503 11.445266154930161 0.3531086233027854 -0.2017704059057041 0.5858705924939974
Ni 7.783107419284402 4.058852013810207 2.8899859973369795 0.3820523029203291 -0.9289264595464712 0.7071269029040338
Ni 2.990126406651673 7.669862852130329 10.76946967122189 -1.2449320073493721 -0.33936581979539615 -1.4186858734374923
Ni 1.1914856795517221 0.45165926054136074 11.058817812665813 0.1747817931320022 -0.881109082952876 0.5267964120396604
Ni 3.17143288736045 1.0458737694084994 12.527042903664498 0.3637326786755349 0.9432397908453497 -1.3236177913870495
Ni 8.02427657416317 8.52043567539193 5.094370244423901 1.3654912916923838 0.22949795372795959 -0.8060534394686183
Ni 3.377318804753165 4.469234456860435 7.67044603102971 0.0019095583178870342 0.7338977432399748 -0.4759212224563481
Ni 0.23054670661904256 2.331673553722166 9.9523848450727 -1.2866242448818357 0.13144302113505105 0.6647345539807521
Ni 4.758940915120278 6.323341164547269 6.122593254354273 0.0882122354708739 -1.2470557385605943 0.8316012060307355
Ni 5.511826702368029 2.8857849154850133 4.330972611811133 -0.08475024506420244 1.4039287697329756 -1.1176739708299461
Ni 4.854214797067724 2.8953095614592277 9.21994505409666 0.2172070521757485 1.2108700326686566 0.668281905012378
Ni 4.535989245295837 5.190941196682039 3.67488355297849 0.012092669498475948 1.4134241108179206 0.907823616129585
Ni 4.002618211474921 7.7812884129995 12.831521703919472 0.6265493011602822 0.9647879493297706 0.7024868330288611
Ni 1.7658803325015004 9.047298505821637 0.4110835374323986 -1.7126403549776246 -1.3062705583578536 -0.07283575301480359
Ni 2.705136567703437 8.766979582509508 2.613334336946976 -0.6407639020977675 -0.3584698876146987 -0.44900640034337513
Ni 7.650840982387201 5.215456648220276 9.733607748968435 -0.07577606659005015 -1.0429458858884362 1.1138270862800301
Ni 8.439101414472006 8.62474060361819 9.81522994304401 0.1512754824799459 0.6228875360379789 0.9598092651682566
Ni 1.1013945944059844 4.184089225415499 2.371547268375447 -0.17893155363431762 0.4560627929695243 1.0750214262667421
Ni 3.5862485869341842 5.455053596661842 9.88629550215258 -0.825613878099049 -0.07793039392889159 0.3204931512606093
P 7.2299101310315566 8.281807644870964 2.931994073636114 1.1657065487581408 -0.724204941432243 2.1284373584485667
Ni 0.5340383074832167 5.153290508805081 0.38614212763850053 -1.2411673981006173 -1.2669704752066502 -0.2900150372764102
P 1.843274936593319 6.939710073076313 8.70913152635556 0.4675178288840013 0.37213555802724946 0.45711823081723213
Ni 3.0384900360658467 8.168051196551291 6.9272768451932745 -0.404286174617865 1.109633617023973 -0.693151157450232
P 1.689198705747483 1.6586138061028366 1.7199929282259203 -1.6241694665287254 -0.516464176875717 -0.13090437502276164
P 6.969252928919557 2.9966163285726823 10.134545070439819 0.2345332021590219 -0.07658262165174554 -0.08527989231542732
P 8.978541896399332 8.19331618836773 12.367210751926184 0.18060688445421155 -0.1674945154419696 -0.3860182295466126
Ni 1.1011020908827838 4.372690012734087 11.122204240216858 -0.9188706179723659 0.7864734604541617 0.5013666591126462
Ni 9.023569157502 2.699341341650028 1.0714422336302587 -0.7886370437643837 -0.1766602411016377 0.5825230161780032
Ni 7.72938731910162 0.15511736057372721 7.677604140686531 1.3575116159210168 1.0000537145106 -2.481240277585475
Ni 3.6577839798268936 7.759122130381966 4.374439549432229 0.19433786088705884 -0.8118597617377501 0.5533507654894212
Ni 8.667089629336555 6.746017896307017 8.27758462525476 0.41560468495447783 0.07802166809111724 0.8001188191517381
Ni 4.771984744107997 3.7313668973820064 0.2922384418825469 -0.5621519087208189 0.26088726667251844 -0.2846139208654969
Ni 0.9339820310492284 2.3325145013513673 12.438142856302292 0.0785888534484969 -0.46423324459545856 -0.9191434120177784
Ni 6.372116127040944 0.8227913870721283 9.316362442005117 -0.5703781532853531 1.0162002423634757 0.8429459416195935
Ni 0.20463729297805294 -0.2793417787299372 2.6124650530389655 -1.0513888744494666 2.036170750402661 0.5152153920702804
Ni 6.751575463247825 7.928710188692524 12.217653700513795 0.3052701636632678 1.6459197137216233 0.24821841295559832
Ni 5.565866728279312 5.1474404383410715 8.483062865862014 -0.4464376111749343 -0.008069407271695781 0.06207465784355762
Ni 6.268213391159087 1.140443814753244 5.4994684285128095 1.4724584391732576 -0.18136613121773926 0.4792731696477165
Ni 5.8854176866407 7.82063013686996 4.767322055133481 0.42404613085361165 -0.25176113600153416 -1.5228592602233126
Ni 5.363911326979602 8.825562553765497 6.961458624099777 -0.18526572338246158 -0.2697200344728 0.323243717422553
Ni 3.2076484798267053 3.6149870580886287 5.214922829290435 -0.09141171624477806 0.6469301788094795 -0.2880057201558653
Ni 6.842242414704864 2.512385886649442 7.57235588859795 -0.8706884018401845 -1.1570517012966202 0.7379744844125097
Ni 5.698544498256014 6.766895335275448 10.499373746045617 0.13285121433648733 0.9300178928384369 -0.7732127387895135
Ni 3.7664033350203603 1.3577373695507764 1.3691578039847336 2.0085265063228315 -0.41413144284306097 0.3498664622164039
Ni 1.780011908966122 1.7609443355474932 6.077976412257595 0.47113717080414347 -0.23053796495669973 0.21399934387172823
Ni 7.455201829041601 4.630285068587581 7.384469906764183 1.466832351235732 1.4997566127675783 -1.079113851168561
Ni 7.059471984356696 7.001976760577608 6.635400376420687 -1.0697393519321965 -0.034850017799649656 0.8424867425949878
Ni 6.778997668547866 5.29007246884169 4.903300544554798 -0.517559981043057 -0.1599634971722471 0.1328535283293325
Ni 7.9959128731478275 5.779686803738839 12.121664099008017 -0.4003570147667879 1.931375156651809 -0.2820713569493013
Ni 7.398556693626815 1.591612217819734 2.8411415652565446 -0.5937543661174484 -0.3443193071459296 -0.22047646695563966
Ni 6.127784277817572 8.779529811801826 1.323624146157524 -1.107968313506408 -0.8217371687524622 -0.41317627801864326
P 5.833982770232922 3.7097764810757736 2.1758212780463975 -0.7920028749128231 -0.24339862296945175 0.4974886642144787
Ni 1.0187349268965578 6.95768075828294 1.9269428271842768 2.1037619671890737 -1.520606202523078 -0.2813956710385154
P 5.277558802489771 0.6214977749936604 13.11189181534816 -1.7652009026831599 -0.5893539230569076 -2.3548114218355636
Ni 1.9610624490920991 6.525771884072179 12.821327042062428 0.17163373442132376 0.6857224690863287 -0.5736915339293023
P 3.459859642706291 0.6380991780823059 5.267326663618815 1.6205786638536734 -0.5124949078153238 0.7150885809532717
P 3.3220904832788802 1.7071236872786109 10.474034714274866 -0.5623046322485993 -0.761427059008495 -0.5960333919596122
P 1.3894831425531249 4.129555599808815 6.684859979973353 0.9655309981433823 0.6804383378692539 0.31345861301133116
Ni 7.535402638809123 1.1036249337703876 11.50846519741166 0.6987772453877579 0.1863926378980532 0.021733792132665797
Ni 5.568864889392116 4.676436640107551 11.383257236158688 0.9476659449375036 -1.0102743637973441 -0.3856204798875617
Ni 1.6595735832883378 0.1908146733598118 8.630331991278869 -0.010537152085897982 0.3531201932670112 1.1078040200144017
Ni 9.439271508380434 2.4655121970565705 3.811690192999869 -0.5492010049871058 -1.643349639001602 -0.005222938961836166
Ni 1.2512203834303135 7.673903057044536 4.366987108105189 -0.5940538996357382 0.3539563160150614 0.7108915121527886
Ni 0.44969034620081766 6.739692507617807 10.651338467083349 0.981492149458329 -0.08927950039312366 -0.04588210724409517
Ni -0.042527270052815036 6.217427466943408 5.998829529247104 -0.09111372538838501 -0.9339982176424236 -0.4337325049034401
Ni 0.8321569842556026 4.741143903880551 8.837737098845205 0.5491626955500026 0.5943449485135958 -0.5687113071058915
Ni 4.2635496356399205 2.350604016114295 6.989258341759448 -0.10718234881547346 -1.607796681597657 -1.2461363120701183
Ni 8.569466578468404 6.07466746615139 3.4926959054060713 0.05175244998194313 1.662703875158498 0.04944668466690194
Ni 2.4202472768413013 6.154310691077812 5.960326924858824 -0.608395770179707 -0.8756912543714144 -0.16116034569382567
Ni 0.6304355857744541 8.312383403780512 6.893469836425872 0.29044595416624175 0.2487118076522491 -1.3937531147515545
Ni 5.7042848798988235 6.181678051967254 13.291041996646845 0.4587439393461131 -0.4745330838595699 0.6807615255366275
Ni 7.244763825569079 4.354518231355259 0.5181169750860124 -0.18929489914651268 0.9986900013938543 0.9101854314935423
Ni 4.386044626715208 7.216482391169636 8.472922134342058 0.14601860495638078 0.2501511112019369 0.8207460084837865
Ni 2.9897059328370723 5.31621497122773 1.7132095887082 0.12336127256818111 1.8247756769229995 -1.6413809453110055
Ni 5.280154771258175 2.3114725291511347 11.58734425688372 0.5881956410827482 -0.3939446834825409 -0.05973752506994873
Ni 5.110073113252215 0.6383752282823262 3.5157067919468465 -1.1881203976769668 -0.4468191628840692 -0.502837844341534
Ni 7.861854852171023 3.1324385114237905 5.499601883245271 0.17117890627209228 0.005520672707913073 -0.7736320857151193
Ni 8.13411164712494 3.6087073730749184 12.005954275597471 -0.1376946584717177 -2.137487641576293 -1.2903608291061324
Ni 8.27174369552585 0.45844442820610104 0.600248308106658 1.0325254618860604 -0.5724116387756142 -0.7761419966211666
Ni 3.606376485624415 3.403516151549805 2.5895748242015104 1.0793015416993346 -1.4700945669267713 0.720078063748063
Ni 4.253037790274904 7.219919307567241 1.8096013825583774 0.23556421452669754 0.3417698012511985 0.5565119368262222
Ni 2.2909607195867037 2.6378881795726343 8.770056353944172 0.6602716331133919 0.004927519208604417 0.35800014706713185
Ni 2.44553969086304 1.670889813342155 3.6831915671108924 0.5496301221047244 0.539849902789509 1.0363345512195055
P 6.649619703942269 7.831946366923777 8.745051873078083 -1.1131287746614247 -1.6161455677829841 0.526055677218894
Ni 6.601429748494995 2.052424096416739 0.2796635326054577 0.9265075656923334 1.3951327687079005 1.1094772939517665
P 8.81597392264558 1.1945021221347267 5.970548094847661 -0.40404397670007186 0.05434566463041608 -0.09926000864460326
Ni 4.761408913597282 9.169528415579023 10.87509269344957 0.740314445399596 -0.7318691428457201 0.6337550748801022
P 3.8648216298422104 5.537822952992469 12.44317300282783 -0.7798341007607731 0.12704386362609088 -0.24390641584380576
P 2.3436479167031843 5.987885327111857 3.679284816929147 0.0848597740588732 -0.5916429762014005 -0.2698107944143934
P 5.421863587513691 3.9570607877364514 6.269434593368448 0.8125560164738264 1.548129090533695 0.3195822094105657
Ni 2.361664305585312 3.3119077043774645 0.5645546516146134 0.22087087418058093 0.3907279763174561 -1.2949533335728214
