# total energy = -381170.09983960865 ev
CRYSTAL
PRIMVEC
9.28235890452766 0.00000000000000 0.00000000000000

0.00000000000000 9.28235890452766 0.00000000000000

0.00000000000000 0.00000000000000 13.58567053199164

PRIMCOORD
 96 1
Ni 3.1426539587880575 1.151142443762567 5.40833293616416 -0.15831336316333383 -0.4856885862557571 -0.625850989541677
Ni 4.997027904957225 9.119796846686286 12.33358801858144 -1.8057014339003676 -1.587644632129814 -1.6669986458791095
Ni 2.9864875543993485 3.586610615296807 11.647566009383153 0.05581196476329743 0.7040264096018392 0.3343056316636694
Ni 1.7225458865443182 3.4091968916234 9.422504777627836 -0.26874018705803393 -0.4940323302347621 0.017493271688756966
Ni 6.707580983936742 7.822494381317406 1.5719980939350005 0.2701715201879218 -0.28126197367412853 0.3517104574036782
Ni 1.2133249653388845 8.387975679187127 0.3262433516695328 -0.29520455189714967 -0.8321663345055862 -1.2538231391914147
Ni 8.936024707237424 0.26939354522168135 12.166076715271908 1.0181496527803626 -0.07029061799544667 -0.6810785425564142
Ni 0.9251894094716228 6.57218849853412 5.417543820797714 -1.4816915277357514 -0.15938885561569968 0.18937640311672546
Ni 8.021972271849585 0.5859804590354382 0.794038962038903 0.1033156667712156 -0.9284652036393365 0.2384194245873055
Ni 4.56415438485124 2.8239441695175906 1.9016267218575384 -0.18791858762427638 1.1169154953973668 0.23020269310446806
Ni 6.063942225002296 0.027281780738163116 10.19300274952348 0.6596591963403736 0.541217472560997 -0.787430167940476
Ni 0.4109968568948984 8.6846769957516 3.8208880689562608 -0.12513430530820385 -0.3086228821855846 1.381217444178389
Ni 0.15472671053940565 2.758187939804703 1.7715307503840767 -0.8016907916245483 0.8728033913006582 -0.6244281410522214
Ni 4.953512206920237 8.559597210971651 5.357563074727875 0.5427621913402976 0.2558617884334691 -0.30350433001209665
Ni 5.534365090956608 6.531698849464721 6.631994736258588 0.33301828031081354 -0.2123741495634794 -0.7116247907743872
Ni 0.5949982706060297 0.5844033862759492 9.076572614715502 0.7288072160909449 0.2966338281445085 -0.20491049419658258
Ni 5.416488416602576 6.940419671982771 13.44783030142113 1.7634805775579434 0.8788966486825895 0.5929982046777142
Ni 4.696409432980718 2.3803309602843035 12.740994459093935 0.14760009051088774 0.2256055606520889 -1.2125530767980341
Ni 0.6741953558559387 9.110226734767316 6.1053461864131275 0.8716808476604407 0.7495369924391285 -0.20059078377530615
Ni 3.5989190230606822 1.8044627029215388 10.17216199755406 -0.0014367324465265577 -0.8911564398865491 0.36979148327510514
Ni 0.9792053117789681 6.223264631381743 12.949806689631655 1.2993164956375236 0.0653579565805197 -0.2740541430717796
Ni 6.694929128897405 2.3145840129302124 8.637837285029665 0.5002582565398159 0.48121280987259063 -0.5735506374760638
Ni 3.526841507007524 8.456136039828252 0.49023107157999257 -0.36707099902014845 -0.6930719674728645 -0.1520632684885639
Ni 8.296479468532139 2.476505479772619 6.461100013167812 -0.2954115257016332 -0.7050563935282503 0.9304470099560557
P 8.401230887548222 3.7092862691485182 8.739105034789501 0.04306829194438389 -0.25473975901388385 0.09141968666457805
Ni 5.546757039949648 3.8910255720209945 6.024280562337527 -0.411402216837356 -0.8221002085188357 -1.9815790311997097
P 8.145065631847128 8.678977627450681 9.814994467554701 0.3884309527531633 -0.6458942813457973 0.05473852919346056
Ni 7.663487575137033 7.8135369050789905 5.895936171968924 -0.944835931687876 -0.5559190404372297 -0.3635812406993351
P 3.912356432534859 4.258077885902518 3.913637398048747 1.624172551852519 0.46360640964473704 -0.6305864473441334
P 6.79457525057553 5.409127506077122 5.0867465439027235 0.893349590883126 0.20802795677964173 0.6977164082234113
P 0.3253773075938393 4.665963296128901 2.8927422282080206 0.6810685152540851 -0.07890818446112863 1.0450822155051485
Ni 2.683854810564047 7.867625209784947 4.894305609574009 0.8443734180947393 0.9602802912674043 -0.20136879959191126
Ni 6.97106073836931 8.661647463578017 3.812737229697242 -0.7069057880321632 -0.8096547836666314 -0.13064237961062664
Ni 8.231038839018325 6.4421148047217685 3.7514792310570346 0.20041774853255162 -0.5094229537582193 -0.648844879333689
Ni 2.30124526333995 5.7435151993545155 3.548998497454258 0.08397042947538441 -0.9885038048894716 1.4768709664186566
Ni 7.603384301931084 0.32683092498133764 7.784670625694301 1.0556972720168336 0.3592173073036846 0.054190369999474415
Ni 4.058971289722191 6.427160924700952 1.7984709403185366 0.678271155014606 -0.2496379190109443 -0.3028790377232719
Ni 7.0402792879132114 5.247902216144436 10.1164335000488 -0.04452790720904589 -0.9759249397831967 -0.1106098864397837
Ni 4.794626071404216 6.388861912307478 10.763749929538333 1.272742601803737 0.20985215447257405 -2.228151166801137
Ni 6.923739273225845 2.577209790353522 0.5401497407146575 -0.4449746534761627 1.448725614332692 0.49207726339092034
Ni 5.594004246222743 8.689346022226133 7.600530904837105 -1.0838598504939787 1.3639113487997736 -0.4139290970242678
Ni 5.502452341414978 4.582737667161404 8.042173469297941 -0.4711099171106338 0.07833842800058767 2.9662765749692137
Ni 1.2049986894986162 7.652580803551397 9.608085120570216 1.07948383291347 0.061860484950222505 -0.41440603666068626
Ni 5.152201096954732 6.474092530774973 4.0196605002199215 -0.19248846638314593 -0.6387628125073386 -0.04113945035278721
Ni 0.5153593450774174 5.460561056167341 8.894388686856685 -0.8425687607858329 1.060986545440231 2.266517939504793
Ni 6.383450297129244 7.110453920413131 8.875871309293974 0.7709406549258851 -0.5594093129786752 0.8452349947640863
Ni 9.027474506098429 4.10665476685871 5.084953192183281 -0.2605216558029836 1.3406852883922975 -1.957001856080978
Ni 3.318350446084152 8.41358570710608 7.105074793490684 -0.46040281510577485 -0.7436062287769905 -0.6508894205675435
Ni 8.406317620168586 1.9245949904630677 10.355201758893894 -1.3180045589653302 -1.154259997484096 -0.40876452210419284
Ni 8.940870098529086 6.499099205372167 10.880288087753941 0.9229293614227719 1.3080872998516182 -0.3968585146952262
Ni 8.17247643737256 5.279369412463844 12.568524519715428 -1.2815997950840508 -0.03320528310737507 1.5902746135534933
Ni 2.283042557740434 5.661180676831462 10.724378804703889 -0.8876954779211421 0.4300910514961109 -0.6465303722678994
Ni 8.229711461710457 1.241877500996259 3.130355761618859 -0.7325448287565062 1.3288168190894858 -0.8650178338179684
Ni 0.9011870860961874 4.714445056121901 6.9606858459427015 1.0207842621897323 -1.6698140038407177 -1.7656577877149204
Ni 4.5619544658165205 1.8921067346760678 7.867447916731938 -0.555349798197321 0.3600233481447477 -0.3889775692852527
Ni 8.223269504705835 4.688166698369616 1.297536380810547 0.4429532521707597 0.49108250357781874 -0.4529980380012715
P 3.0064817552465475 0.7773697021125332 3.0017403263734046 -1.118535547499293 0.5717007287515187 0.6115973078361402
Ni 6.839483302431961 3.819569974007188 3.4943569641640426 0.5012956966653946 0.15092478400874654 0.09504674189420405
P 1.8836040940186702 6.712212880976088 7.410508024974824 -0.9419539821543905 -0.09648116034788545 0.35217711262745155
Ni 3.31450754954249 5.675549768248112 6.018845741262301 0.1544345969342179 0.8309278341127947 -0.47074147802762156
P 0.04988710911475752 7.67534114731989 2.0715161654906766 -0.7303411362369681 -0.19468110315909054 -1.8215561415444368
P 8.465947493075927 2.6493058711242723 12.564585086642285 0.12984739451315702 -0.7613257575439405 0.17490160653931813
P 2.909453258748974 0.6543645245235541 8.453085856727792 -1.9200273357391577 1.6015566142252158 0.43301156757701553
Ni 3.938616225569551 8.434211108351425 9.533268380436274 0.9201883083425251 0.6200197275718805 -0.21552837892174495
Ni 8.26774128569884 7.639966077947245 13.26427444093222 0.20927262782002024 -0.6160530296146487 1.621379048267782
Ni 1.3640240603965816 1.8528980511205573 7.154907136688543 0.9004982861127654 0.9143287642379543 -0.021137810419879728
Ni 2.169500744944268 3.1922310371190195 2.944734576297776 0.4283421871258042 -1.0599784158906906 -0.3864329484865281
Ni 2.3646066444833957 7.78104864929199 2.6243845942280046 -0.7291872251381829 1.8224953655292548 -1.474084661922771
Ni 5.967554211261666 1.4477045249450966 6.087602957574028 0.9063719712847229 -0.6427685912326221 -0.0587147402323892
Ni 8.96927411644572 4.010461682652802 10.953867489460336 1.826006721116623 0.57095947971012 -1.012103703696599
Ni 3.8112622628845125 5.914022848083487 12.535702099011763 -3.480899584871134 -1.5347554974402664 2.402159314991908
Ni 5.9537884731667745 4.600401995950736 12.599391147420716 -0.811983431799808 -0.04023339359875006 0.011950487493656839
Ni 5.075426707350653 2.2866255482358 4.1176404384941145 -0.6093342228335764 -0.3398643566983695 0.6525115295519989
Ni 9.083939094656236 7.790609478852165 7.60896671251117 0.5697523467758961 -2.0589044445547513 2.5294474334183215
Ni 0.7190625653336651 1.8522575683636138 4.580435642179926 0.3917121946075963 0.009478114693764321 0.3686632832079328
Ni 4.781361580684323 8.763957622230677 2.9186502198443334 -1.3374138167298775 -0.7042030443890194 -0.3587899899582789
Ni 7.7206204935281715 5.320564520801761 7.381216613557265 0.003234961997529913 0.13165976513154745 -0.5801645432481557
Ni 6.895066066904119 7.215028974612085 11.588984114783914 -1.3906274246383792 0.8481650239266877 -1.0519419187394592
Ni 0.9520451299410364 3.8319247935650442 13.196712792433457 -1.2047109550457964 0.1479055375664485 -0.9472265434072396
Ni 3.105691606061248 3.8185117851044112 7.445545216487283 0.7643666012527932 -0.37050239329920065 1.1179567921776876
Ni 2.803225944684281 7.988862098023233 11.351601712107103 -0.5684210295589823 0.21099423849681725 2.40185901014267
Ni 2.34095519427046 2.261442508821477 0.47714758685662795 0.8176910237075465 -0.277450056127206 0.8536193621730396
Ni 6.048904803752313 4.985675580149366 1.5632216236931122 -1.4915756196186827 0.5908341071468599 -0.508166455643299
Ni 1.3364461724128172 1.7636853007294562 11.384955083733917 -0.00206331028693193 0.5028902948460242 -0.1491952029121495
Ni 3.790878202967869 6.3725249608260155 8.554217155813326 -0.2642101603981643 -0.6024084422480206 -1.0006275847361994
Ni 5.014413762982668 0.8975790332320711 0.711607902984368 1.5066973057514697 -1.4076116179012015 2.068318538779799
Ni 6.818792924675041 1.0243175755289164 12.256109097944723 0.1577369218345735 1.1866307005053176 -0.3427239376343517
Ni 0.881008166308942 0.6702893392744618 1.8174505793493019 1.9662282597752523 0.04422503125664642 1.488154766862592
P 3.856383808993257 4.051396884944422 0.22230135434048545 0.10393967350845972 1.2092962604236337 -0.16205483248363703
Ni 2.1840183541016587 4.967630674649388 1.3599667413667254 -0.38237909013212856 0.16518977856819295 -1.4250308418189137
P 3.805897059500259 4.429847935427784 9.573251212715395 0.1418192221630525 -0.9052733389039055 0.6395130604098018
Ni 5.560597036914911 3.148344044730181 10.524031157152498 -0.3751537760282829 0.6570222729381587 -0.05334370572846296
P 2.8697711748948525 0.8764041163459844 12.549613570139755 1.0568193014364184 -1.62169529395662 -0.5844156052150258
P 6.134961552152678 1.096228009123741 2.566835826162793 0.7751294961962522 0.9237716548184092 -0.7661931129385707
P 8.092471786907375 0.5992384521041729 5.157800215780652 0.29314432693401127 0.7455993479476191 2.0943661277964702
Ni 2.4823997776082605 3.5254213061116926 5.2183508986805816 -1.0352914546669718 -0.5450641000005968 1.5300544924201713
