# total energy = -381164.5429097105 ev
CRYSTAL
PRIMVEC
9.28956456390213 0.00000000000000 0.00000000000000

0.00000000000000 9.28956456390213 0.00000000000000

0.00000000000000 0.00000000000000 13.59621674284394

PRIMCOORD
 96 1
Ni 8.114973474883751 3.9662725026115795 0.660420229404193 -1.6345564661900045 -0.40216475739948804 -0.0079490796437476
Ni 6.256419574459833 -0.06022517627337721 2.597407781678519 0.2867600206742223 -0.28189497927243706 0.8030251941652558
Ni 0.772020413754306 4.523980803077171 4.152012702052902 -1.4159437919159807 1.0356426673588035 -0.9206130545847694
Ni 0.12440770706734776 7.069813851040004 7.961917679539272 0.10123950096847727 1.1369999248520677 -0.4189363204308721
Ni 5.823052096196452 0.9083754298567126 6.595797095989741 -1.901242856042803 0.5634644568846553 -0.7193854085564126
Ni 5.593005318384308 2.087374455708555 0.43779023997055033 0.311952717889766 0.5400926149279344 0.35241416833892214
Ni 4.280677816577499 6.746351211586811 9.816427832491796 0.8254470135038816 -1.187637030282645 -1.6038333260745348
Ni 2.037405887712612 2.1662893070053633 12.291931444763295 -0.10832957504603924 0.6181194252253741 -0.5151796537363386
Ni 4.4850203691349915 2.4743312692186854 8.952836464626465 1.3659083246251444 0.44331629193713323 -0.6852000209239554
Ni 6.936294939010689 6.826111413262431 2.632160042855842 0.5331421517520302 -0.3954276957859706 -0.11556157401810421
Ni 6.289694794865385 7.15656909486118 8.360721474786757 -2.471908201551272 0.6006834891371139 -2.2578029282292986
Ni 8.245110985397817 5.916858119550798 4.915440268550052 0.011059857358587406 0.332057459059441 -0.8260147130818936
Ni 2.4258769002529226 8.265334367537093 4.481054654006256 -1.4311266703040062 0.2920168981977874 -0.1588664074533264
Ni 8.907735628482143 5.616470758569799 9.861648504019486 0.28051635375735556 1.0750718198887033 1.6947385349965394
Ni 3.094976369865074 1.36017804907342 5.081708611628427 0.48852965524897796 -0.6631219580779935 -0.21042062538153436
Ni 7.628943454889752 5.480936011021778 7.8918427779180425 0.4499283979370122 -1.9850345938484784 -1.4780179355389063
Ni 4.064333146553794 5.831951499085487 5.84805960410593 -1.064302240077025 0.4817874514291379 0.6446364976792962
Ni 4.40832572377814 3.151782057408333 6.575347977430627 -0.20213678810618738 -1.1554059381630812 -1.0475959830659378
Ni 4.857587647076111 4.808408692071366 7.954630016108743 0.4707499626680538 1.2307968534995706 1.6586322761922854
Ni 4.740873557412414 9.017816969019774 8.512319737445129 -0.7897626727283946 -0.4766776410063984 1.1191891219228918
Ni 2.5659170866330743 6.62411912054933 7.6029633295664105 1.5067543842416502 1.5155167038153126 -0.35341407035834616
Ni 5.071990798097928 1.9043050060904023 3.140563050238097 0.0762190676647397 0.735863608717094 0.8170233082165607
Ni 7.672000586821559 0.8200288836191566 0.018196399143047506 -0.09011202359674804 0.6500522693782289 1.0202924101549784
Ni 6.644351792253208 3.294943537494868 9.457243101316797 0.7100944701727899 0.5314174557514396 0.29144277086187226
P 6.3482654996830865 8.664683460226735 0.5971768735915182 -1.8544796317453351 -1.7505854667628302 -0.6148875485516377
Ni 0.9442470835686168 0.515052477724604 5.817984638705881 -0.2940169593469517 0.9789135900978754 0.6199883601133129
P 2.130691695449228 7.898768148329081 12.954053522402635 0.794455964439006 0.16901892250629602 -0.5663824018623987
Ni 4.789550875928632 7.421962665985197 12.58098739484237 -0.6052929628846673 0.8268269245705437 1.5148304763815654
P 5.421399191485433 7.584660100430436 6.324824212365563 0.7756699420807543 -0.31558465821539844 -0.10496965743487084
P 8.755832668104814 3.7183154442461395 8.928743978830317 0.13930648304352783 -0.9246928810810979 -0.597830593069351
P -0.015449474890137994 1.4647042299788575 12.524359137983017 2.223473044599177 0.17997722129001262 -1.2310570491394928
Ni 8.738275391006407 8.532112083786858 1.4211445326020635 0.3984181458728622 -0.7132731250110877 -1.120928473211502
Ni 1.7260103926778483 4.81309063263094 1.7322399747001718 -1.797082838993421 0.8657084321270896 1.5163582258800012
Ni 0.26077201273435674 7.091765092195313 3.433425863891209 0.5144386618052559 -1.6787195338604637 -1.5945657847296797
Ni 3.732166185068216 0.8054962887552688 13.237493930679602 1.3100721914921307 -0.8170724162869412 -2.4633590264296803
Ni 2.8430991152374503 1.2684714673192008 7.756491963749148 1.1236217037729488 1.6170935335185506 -1.6209159925884344
Ni 0.7449729174581567 6.003418282515327 12.065051479524087 -0.006742718040472258 3.5341008514844625 -1.6137618980421562
Ni 2.7488007449591803 1.8547730476307693 10.103960293976089 -0.8587505127520177 -0.8882935165164574 0.9529444197276233
Ni 4.726112439259308 4.302006656904452 4.248192209163145 -0.1531917256660523 -1.0279252441098876 -0.2826542260359648
Ni 9.03158410376043 2.353604087646781 4.105405098530083 1.2651349646598082 -1.4540423985599151 -0.2723155631141181
Ni 1.0388705886079683 9.153268110486374 10.85066478627612 -0.4899527608487498 -0.16794163028171724 1.3058193297530478
Ni 1.1699184764530628 5.060276657134387 8.160136551110908 -1.1659580026473146 -1.9339629719836438 0.00803495448933455
Ni 4.976837787876243 5.3667951307529265 11.518524099013861 0.02049374907797761 -1.002240437749274 1.868191324904473
Ni 7.758746541078134 7.303948037277174 13.179574424340524 -1.167340484817138 1.249452263817229 0.18937254646198354
Ni 4.514403261972166 7.467397926455202 4.097179189074718 2.3489359368913934 -1.0683414431434053 -0.6863973836661662
Ni 1.7326895896269248 7.449329723303667 1.629683181490429 0.6231140502264881 0.41157165253568473 -0.4916144648218888
Ni 8.334392990790828 3.8110067198482063 5.539955401809772 -0.5846719442002059 1.167318630440267 1.5350113222048145
Ni 2.049798166892123 8.818509360476746 8.697405022581988 0.8963894061507142 -1.7880942623415659 0.9300477176351079
Ni 8.138996288945382 1.9535118297889538 6.629950180250213 0.6111638198431474 -1.4373443690789438 1.7156585729786582
Ni 3.715779393109703 4.196049883050256 2.132906327650424 0.8480022730965783 -0.6427547072755511 0.9831517965489389
Ni 4.137033279131643 8.595522651762375 1.4039179640034993 -0.05470356219046708 -0.7343890810540964 -0.28257632161017787
Ni 7.168868478394668 7.943515981018513 4.914325520797772 -1.0304618944888124 0.03056835970516026 0.21316270690304578
Ni 7.604669822583859 8.907345466768845 7.101127115401543 0.5051898895134783 -0.8696491619423926 -2.2155558466346297
Ni 7.134831513691724 1.0404591041549671 4.532189991316252 -1.0039332520706645 0.8473576975340439 0.6974587836866505
Ni 6.534511980395236 1.0319498629792312 8.79067503805878 0.5355127088667359 0.7086919333983086 1.075839037072031
Ni 1.1260159941424428 4.344376361055688 13.257697804733212 -1.5246232941022713 -3.481678372018688 -0.22400222072071097
P 4.9496100740268085 5.848291843220988 2.3873056990675807 -0.515736297570757 0.9829692482244878 2.43921276820078
Ni 2.603233267640641 5.912501313752306 3.8146092130009905 0.6973831932537087 0.15063810600626315 -0.25807550825533615
P 8.109854924787866 7.449831359792193 11.105702350781458 1.4541683826148182 -1.1502094815638062 -0.06591151509114454
Ni 1.7101159476432586 2.8062009646369885 3.0083669722081545 1.8473113961316703 0.1728516659888249 1.2474519455577484
P 1.6095749899522218 5.6257603231721305 5.878256262802269 0.22358621622921493 0.38614909869752206 0.15914460081537754
P 3.0539629421457795 5.107699884429291 9.231803947547407 0.6224753882012247 -1.1438470296808882 0.38363970201210706
P 6.3498075674070735 2.8514690129441513 5.611838052702615 -0.4552549523562482 0.2335988632702106 -0.5963036149018635
Ni 3.5598726303887687 8.580343503202164 6.638569967244717 -0.4110044671783051 -0.024849197833195915 -1.4290103952919517
Ni 2.4078737240536037 3.5396585378140943 5.324672529020114 0.7518545848287116 0.7042655221958387 -0.051701542139349674
Ni 7.661243271012059 2.1139147417774167 2.3281757624608184 -0.43196332881815924 -0.8707621925009134 -0.5846773435168446
Ni 6.058579717123973 3.808006190481653 2.254755688626289 1.3529623059874378 0.8519517446626296 -0.13439747577768466
Ni 7.8542246860609 5.266374937401721 12.120728484968161 -0.8859849229879387 -0.9047498623002675 -0.19439905314229744
Ni 8.694001326111692 9.112839925337026 3.453289739880375 0.44432185038351224 1.7212918600050355 1.8070872585043005
Ni 3.317916630756435 1.9429495948361026 1.500764461852189 -0.21421171699285044 -0.9826437465642688 1.3873286992824494
Ni 8.08871187575296 1.176365434287081 10.657150150219106 -0.3463198825157261 -1.9861213991547537 -0.4633593266309375
Ni 7.85546019815301 8.376047398467684 9.202558540266347 2.1025563769167466 0.8737657552139274 2.6499583810219005
Ni 0.3955552345060489 7.58017324072751 5.615305847168665 0.09480377264546253 -0.16447578322030385 1.1931427905922227
Ni 1.473650080690903 2.9644022498146985 7.317375173953384 -1.3256754452470265 -0.6194191178734042 -0.3518590671664005
Ni 2.7572449591827 5.883016235704504 13.512450179605258 1.5741188297292372 1.9153343011388624 0.18084239750378533
Ni 6.55822823882499 5.695775771579905 9.990826402510132 0.16156812265520562 -0.8008060750267499 0.49494404341575415
Ni 7.513167611250891 2.637781158396713 12.110394773304527 -0.5493272461523249 1.430420388265601 0.29117717590531145
Ni 2.6951720885099193 4.649733639098936 11.491263871688318 0.03935484764853867 -0.6345050656722492 -1.844715867490352
Ni 0.32199581720248466 3.413515540079031 11.150039584715467 -0.2048189629240408 0.7123889226339215 -0.4116729540002394
Ni 1.8129978756140832 6.714060685029105 10.023403047657588 -0.15081396946249512 0.20011101592541022 0.2063963347134897
Ni 0.45206644285141384 1.8135459599256207 9.349451638453639 0.9015357262383441 -0.30843184922070105 -1.7050198623178892
Ni 6.102853782018686 7.994692192412758 10.746463740131764 -1.0741511078466468 1.5205331831932973 0.0015542318609973232
Ni 3.4445241067216146 8.517880470816085 10.694022290038681 -0.5363524311592117 2.124474002925444 1.641435709808341
Ni 9.208122989463144 5.987821103548011 0.7866245382656317 -0.1870734660151617 1.3171908048147831 1.4229235656679236
Ni 3.2682639079569715 3.586617286878882 0.01391948360013395 1.5891189026824957 -0.09508350866941044 -1.3959902316121893
Ni 1.5511157599097478 0.5584858370228063 0.2520035927062158 -1.1695709168095534 -1.7009526342270513 0.5045507132675826
Ni 6.294989846688715 5.153163013593103 5.696529155269154 -0.0853426272325627 -0.16677743477028698 1.2960257407013938
Ni 0.5101438717887319 2.574166219999945 1.2067999058372405 0.321168322950763 -1.5226723410234873 -0.8517329437836041
P 3.9539173816904785 0.09473962459688072 3.386913013927334 -0.8453535226198217 1.1041121729851113 0.018117021315684927
Ni 5.964894458109456 5.567459015727896 0.630943511964534 0.465229804180773 1.5897668206791395 -1.6965169670532008
P 0.22004284569189325 0.0048863109808265194 8.00386192163172 -0.9840673663846732 1.1181609377686936 -1.3058668951615318
Ni 1.707217603487331 0.5556571646013962 2.675123350185167 -0.12562358623979655 -1.0174695959942026 0.37516791709567004
P 4.968690839719998 0.8808355866366397 10.632961981907554 -0.06262153148596313 -0.40823204663949053 -0.7382228529778899
P 8.476755568321561 4.875432900677189 2.6585359036312424 -0.36401318603043115 0.5714104512046095 -0.10554609876363111
P 6.191466938760329 3.9838855170976006 12.910029346795724 -1.0348484535922822 0.24740157348125777 0.5268820297749313
Ni 5.098038737242866 2.8826912395725883 11.46704969259588 -1.3344603905285082 -0.5523261808796488 -0.2667020735820826
