# total energy = -381164.3933137671 ev
CRYSTAL
PRIMVEC
9.30776498414057 0.00000000000000 0.00000000000000

0.00000000000000 9.30776498414057 0.00000000000000

0.00000000000000 0.00000000000000 13.62285489759793

PRIMCOORD
 96 1
Ni 0.4137292289513234 -0.14946688467845906 12.598975047611404 -1.887713968318433 1.60382432721347 0.2056525145689297
Ni 1.3871455440809692 7.157447993405449 2.7461090369218053 -1.269543121029833 -1.603917915368541 0.2981037278218156
Ni 3.674500899820822 8.582550603658975 7.466891160363013 -0.18301086591001386 1.7716561713902006 -0.05547900690391091
Ni 9.027964395866306 6.013923893660056 10.137638015411515 0.9276532492610025 -0.9921383163182654 1.3175273622185955
Ni 8.568812342337079 2.7301257426521843 9.256021395362806 -0.6598492008639926 0.572701402101891 1.8858470903130231
Ni 0.826483934894244 0.790540138317844 9.562740179468799 0.9160133510292289 -0.47888956105605274 -0.37075256163679376
Ni 7.771481258585321 2.6756287778556382 4.298896499912392 1.1074183545402088 1.0878774562938038 1.1349998637029033
Ni 2.7496348183504864 5.672431299053654 10.68361476356331 -0.8943705759484726 0.12645713788468543 -0.33343351347136124
Ni 7.9284101785630785 2.472477496275891 2.032162497803069 0.3781923057442906 0.6485507451320379 -1.0833232612642183
Ni 1.7464159700727517 7.647715905741653 0.5956597368266046 0.4258327904403892 0.31657736114597096 -0.6798917213371646
Ni 3.900921594208658 5.967990072776887 2.712705329447536 -1.1323128037890435 -0.18207498435930577 0.5039025381606225
Ni 0.9793723540320045 2.1671176458778914 11.4349291873223 -1.2129348856174853 0.36120579848862305 0.5543236709256517
Ni 1.1727318667021072 -0.06416121732400203 6.823920053415001 0.411456210003743 -0.08538350777282713 -0.47820281940167314
Ni 5.137272035528083 8.288425225764719 4.585099108133749 0.2835119460505698 0.13866345014289022 -2.5719238574149768
Ni 2.8636642488752497 1.54949158336045 7.636168692329767 1.0081490899242251 -0.10845967286600029 0.7569651665823995
Ni 3.449206445012897 4.56977759596439 6.830050147525164 -0.8470612493395476 0.48791978957912097 0.11150617300180797
Ni 2.771191602375901 3.680699871392897 12.50165305548285 0.14481687133879573 0.00679902519970442 -0.5739175338971794
Ni 1.792703486030604 7.647343595136724 11.673206112924117 0.9991957373856791 -0.5396611838174706 -1.037969258609451
Ni 4.567897427409497 7.3949821593504295 11.485770061978439 -1.710714084489189 4.013883099558113 0.12610875340633118
Ni 2.488365851341255 5.953274496117051 4.680322199227013 0.6718169147488301 1.5822370879609975 1.1405894419755387
Ni 7.039909535429226 8.623048689710174 12.684267684094689 1.158734745425998 -0.671408880677134 -0.6250999703082654
Ni 0.7078750839288489 9.418899838807336 1.9401263854880004 0.14947956692178774 -0.23867936311691154 0.052265385062619664
Ni 0.5145844487206583 4.52677572109504 4.2677545793630705 -0.9276933584703184 -1.3845894459744155 -0.792894533489157
Ni 1.530559589099788 2.391537170764232 5.499900703176329 0.610191171517233 0.09718898504818746 -0.6076645484406374
P 8.771582005546772 2.2446513293544466 13.308711684564901 -0.7283171638284037 -1.7212062422697647 -1.3363817759209373
Ni 5.505812995582608 0.6285906098326132 11.665523483591397 -0.8145432221071842 -2.446589263170509 -0.1280422229836182
P 2.432295874238882 8.166335270643236 5.076243811944562 -0.588789051692373 -0.5587135724632314 -0.10104846800359372
Ni 6.3298201341775595 1.4494982626415267 5.501276390861543 0.0032527026093427855 -1.4145517966644607 -0.573187083489058
P 8.914754048672387 7.162222876913669 12.078649569362733 -0.8606595568492725 -0.16978202592456568 0.7719487844754254
P 6.297550112495301 7.270704879424983 2.6144711763369046 -0.010570062206362441 0.23501297000891785 1.6372862064163414
P 6.028081004412498 8.468093015938543 6.47601906252125 0.9147046595201344 -0.9726832929174475 0.4541478353349985
Ni 4.889275941584586 5.400951713704233 11.239169202026916 1.7053222240496564 -4.312047762524851 0.7778556368781636
Ni 4.153664648365006 2.010421420028215 10.592477781359145 -0.3507966873401571 0.5800218470227043 -0.5104755633924499
Ni 6.784848847757193 4.539136433178697 3.1934970061117744 0.24980298383389882 -1.456495745196414 1.1867543705673755
Ni 7.755537056929218 0.6080911879251986 3.2152120221442835 0.5211510408284251 -1.0216286124678986 -0.12656872376188524
Ni 3.6645043600784666 0.5883773413941848 5.287602680809979 -0.5765727121318394 0.48920894070418974 0.15377742296619323
Ni 7.065785122471822 4.293858206651185 10.195793862678004 -1.0773485317380218 0.4883705039632944 -0.6077805051932114
Ni 3.049475164030408 8.68128737608626 9.673017649872387 -1.3988608682917651 -0.13370404925508586 0.48841549826861685
Ni 1.5085932634089514 5.099259122764787 8.566487262609295 -1.0922169642094224 -0.271527519995184 -0.382401972950264
Ni 8.202198089663064 5.476651767451511 8.13054225986183 -0.1651255009891608 -1.2103272727913092 -0.9462364115798284
Ni 7.156833680907315 7.782613345672712 8.47137214159146 -0.17128663549455014 0.6087778361094741 -0.5095116568172838
Ni 7.772961193239916 5.601413051163364 5.523740681986474 -0.4192345683975813 -0.7419393825975287 -0.11888369641280169
Ni 3.375786793720812 8.209346453277709 2.9447981759014725 0.3551835035539431 1.2483019522628693 0.7648929060699085
Ni 5.350075469540625 8.457454240402685 9.551338167192835 -0.909899267711691 1.2991056651782982 -0.0780355520481882
Ni 7.758645850480379 0.9361005539740809 11.104819989461616 1.4034328039331636 1.0553735701288276 -0.28200527959805627
Ni 1.7340924890495875 1.3865405393479588 13.797227875504912 -0.7212664276292095 1.240633122863702 -0.5330789026142625
Ni 6.067890315844577 6.63491936715211 13.142036603726602 1.0639098897346129 -1.4908449121002452 -0.4328133355232804
Ni 4.30741962043574 6.946366495940706 6.1579252586581505 -0.83334158576061 -1.4833511748263613 -1.49489311402769
Ni 3.7169350010176543 6.486534975557483 8.413938576898532 1.106013246662566 -0.7162836297026374 2.3707394059197298
Ni 8.379743709388787 5.82366386677599 0.4022611315429845 0.6776533189249491 -1.0472545405661189 -1.9181604577337479
Ni 7.4173580267066885 7.987737873458585 4.562866580360387 0.6384882186897133 -0.9250734043489681 0.5018477125141229
Ni 2.0237036008590725 6.723008056278413 7.0574425725918655 -2.0729128430187007 1.2077451138864295 -1.8294792530462556
Ni 0.7469723513290013 2.069218572311696 3.1422344896955527 0.17282312674373462 0.5934460908484102 0.5991855644353486
Ni 3.7391805596621883 6.021314259167905 -0.07317299551631903 -0.3041764163784568 -0.5863907266635255 -0.049088015775902556
Ni 3.2991001168704717 3.752062506592747 1.3373424852360711 -0.713117830380146 0.3687039066378811 0.3638910586302701
Ni 2.5729548207812227 3.2405728897755646 9.408502134388169 0.5383954297311696 -1.1117784312811176 -0.3995399181821313
P 6.320800909773144 1.5094030389746729 9.61441130677393 0.08849814214240888 0.020441041463171244 0.9423931265743383
Ni 6.106052152849845 6.191739438574355 7.226597242058993 0.06608789276800876 -1.0911604979204497 0.5312475058324785
P 1.2595919308321446 5.265477192335534 1.274785926619315 0.6122917628000035 1.8890283162544823 1.9749748956196311
Ni 1.3171325348239888 5.694742012054051 12.877970653297838 -0.6266025229957208 -1.1671360821158157 -1.5131106654769813
P 8.963480199092526 1.2183213002757167 5.702785782673551 -0.8109837868907 0.8794386372289886 0.08618517773851608
P 5.270056612776167 5.209342060877298 9.174951691915934 0.9199371115636672 -0.7068733921323309 -0.8785922300682935
P 1.1906120835038434 4.148601224137965 10.688914605024479 -0.6323941899768334 1.1781468314040227 0.3942583580682178
Ni 5.621117589929255 0.8017271412194612 7.720726015368316 -0.37188050459364985 -0.18824897438050162 -0.08262728518392866
Ni 2.4926008844723273 0.5437624308289782 11.711786799359928 2.287220205049151 -0.20852109436597635 -0.04117210336293554
Ni 8.712403234893237 8.306026209612758 10.098214045455535 1.0051293292612948 0.7060490964588226 0.2705862391278372
Ni 7.385171774910538 3.817095861508796 0.14360950808640668 -1.78651997587591 0.11430867544760959 1.8731769510445222
Ni 5.239880838246635 8.152327084132764 1.0408175654930465 0.09779807938709609 0.9692076756640212 0.315767720760482
Ni 8.567462716394209 7.986397555280838 0.7229797251708362 -0.5690139259479748 1.1401091599050106 0.952919737137275
Ni 5.433063503379397 0.8997230155429381 2.8576114092156093 0.2988501190695369 -1.5351938705292656 0.6227052448238437
Ni 6.615987372891447 0.9834956939815981 0.5959250081326168 0.77374958512959 -0.3022709718256278 -0.3815038866160268
Ni 8.681008143132564 4.116014738441517 11.964544745940474 1.011565828915258 -0.07438201445600094 -0.9346409934327452
Ni 5.153942242863799 2.922628940930949 8.480786015237099 -0.5416085373518285 2.029954080068988 1.6678378539509533
Ni 6.282545995116644 2.6892832692914252 12.064373319216713 0.10319611047421583 1.2528054965601778 -0.8159118203199367
Ni 3.3723149973298456 1.81694090641151 3.1450268192325233 -2.114579626629868 -0.7947675821421538 -0.20520154307444013
Ni 8.174768105844887 6.281019521636434 2.5486047764423256 0.9461338245636932 0.6506153409705504 1.8884688442065862
Ni 2.8710918454435923 3.9473487266433596 4.0829191179928275 0.9814222154523419 -1.4272335058971872 -0.5233807014898921
Ni 8.176778583111505 0.902107664967511 7.789453622261778 -1.1735468707381658 -1.3003925023105218 -0.23928022992570408
Ni 8.69748288740069 7.49813081244613 6.965120711887513 1.0133488889576094 0.07602597781732713 -1.1141901260464038
Ni 4.252178034429335 1.8501044735455998 13.291724082438483 -0.15413866296035392 0.1773004457887979 -0.7588179035204221
Ni 5.4774056964264926 2.715503243643581 1.5529922338232989 0.14138059196373715 1.9024031948994915 0.7658529559903327
Ni 5.665189857787777 5.451986189874935 1.5421887108447592 0.5893516090640624 -0.35397868461256454 -2.0122489494797406
Ni 0.6873784543509712 2.1993597442647803 7.675825356413826 0.9580889400430403 1.8781695191631071 -1.0195161941105861
Ni 0.7524415941154148 3.285110545890248 0.9512228799698023 0.29321348960904986 0.5499450822419819 0.7339699912388069
Ni 0.33547791678376687 6.672643739196585 4.825447011475483 -0.2647927723745117 1.5714834489889193 0.3566901700064567
Ni 6.353675936188413 3.739683178978843 6.6231869292142695 1.68260292807527 -0.2530412882655384 0.7519306894822857
Ni 4.442344983662167 2.551733116300245 6.341262169843554 -0.6113463681675988 0.08298081186860548 -1.649450095472385
Ni 0.33176877238215735 -0.3095576524685796 4.377268813026552 1.0369485306544206 -0.04320250352940302 -0.26110632466186
P 0.9572850273945658 4.464739466548673 6.342773750899568 0.6861158478700055 0.23371096336804265 0.9706883739746056
Ni 5.338431455371457 4.9499532624229605 5.10825693930942 -1.3059162603422283 0.3010072746218558 -1.2656553559396524
P 4.89607991788967 3.115327602277302 3.7135088126757916 1.3461522250441396 0.5902018728794997 0.5701796641213018
Ni 6.79211821231844 7.108209915903531 10.673861156490672 0.5148901475203777 -1.6143080003536134 1.0980166016103348
P 1.025427175861776 7.987942644291295 8.63224476165193 0.2049241210433374 -0.2096796334504518 0.21879933636353288
P 5.053018145632551 3.918355038284479 13.380368445142643 -0.8524474533521255 1.384006319777436 -0.19816829037674258
P 3.585053276986525 8.24545127419074 13.208175721139293 -0.6702398000696973 0.3066367049934912 -0.7900107841834587
Ni 3.3543323951117534 0.4098646448721559 1.1721473390523678 0.8187582886297963 -0.7664525372475446 1.107566450082299
