# total energy = -340868.2597031092 ev
CRYSTAL
PRIMVEC
9.31217049818414 0.00000000000000 0.00000000000000

0.00000000000000 9.31217049818414 0.00000000000000

0.00000000000000 0.00000000000000 13.62930281271254

PRIMCOORD
 96 1
Ni 8.62123540716365 6.528865187898414 7.073253745484905 0.0914122304654103 -0.6732269077224793 -0.7346778159391089
Ni 5.159659507146785 0.15658507856962822 0.7065609384702167 0.025315081726020917 1.3319095990821965 0.8539541198046389
Ni 4.029785921019512 5.3358364612807945 13.337962454577427 2.5477071509594578 -1.4144983177187058 1.3796030485034176
Ni 5.291370847031104 9.497017108386826 3.30464254626966 2.723203453659981 -2.4877317988470895 0.22383715589775643
Ni 0.5173935064559303 2.4311469829100023 12.951490615945424 -0.20898954936196265 -0.21795652874726332 0.8028914968008688
Ni 2.692744477256036 0.5990742789857182 1.9231494565122789 0.1047446859082583 0.2950896235858402 -0.5363984539057988
Ni 7.2033922597678055 1.5289280295706227 12.768366782600886 -0.989477995877283 1.4124049255247868 0.2259284912091464
Ni 9.344669998622441 8.577421644850604 8.061528329066011 -0.2148038420508946 0.0453804850173283 0.82098486396747
Ni 3.3851788530421105 3.5563831081165738 11.81847324104942 -1.9540252899511572 -1.5194332652608993 1.9943571568009848
Ni 4.871354707739366 2.4126250757387697 2.9131812466711677 -1.3541234161750744 1.2792246099836548 -0.5716169107884608
Ni 4.207275891197335 5.479262511683671 8.421219296489493 -0.29961630781160015 -0.6651191910136803 0.5383728040233502
Ni 8.918684758025142 1.223358466012643 9.656252430687443 -1.2411596847911335 -0.6018191454034539 -1.7610709396751865
Ni 2.3459871834726367 6.285687166847853 4.5825945431933475 -0.2944152232266349 -0.5686390591070595 -0.584030196851149
Ni 4.836955549825573 8.09960486311953 9.862981685091988 1.2807112218315104 1.871595465490015 -0.4156080273885875
Ni 2.4669429664023186 2.228998385185963 7.359386946726244 0.5216614048059403 -0.22910328939270222 -0.29744526830221035
Ni 3.506088075119175 8.271665837882157 5.148305177627487 -0.16014990215144032 0.6324954914413881 -0.7517890216980988
Ni 8.15651153718861 3.1022006151741306 11.106355730427833 0.5074869130777713 -0.5684829931451694 0.41002256288100997
Ni 6.673287640547304 4.519373286292285 12.117949851433876 -1.269083664894911 0.4199971575952186 0.34867784122494144
Ni 1.754217371045548 4.508152120811473 0.37052381539346485 0.0018100566255452699 -1.1847656222721208 -1.3386590019908882
Ni 1.317308954424189 8.217897365279493 2.913726939863845 0.010452048571259418 -1.014459348412969 0.3145593022746776
Ni 5.034205945854254 8.07760020417251 12.505308208699716 0.25040565041490426 -1.442867098669386 0.4057545316332754
Ni 4.179562871719413 5.934227226950089 6.0927343375157665 1.0960160262405383 -0.8036170621129838 -1.6819164435312066
Ni 6.504923597482507 5.302759631581338 9.407040123137657 0.5833611958085824 -0.11031549512781648 0.9807807252136013
Ni 3.9883467621899573 2.5284032918573884 0.5213139302463219 -0.05245384692434192 0.15583430549522193 -0.2920482656563551
P 4.469692856549437 3.80871499279173 6.221817782878355 0.2341897027766741 -0.320268436844313 -0.08607256342005176
P 8.638909906817245 8.94992709013147 3.6177754547268224 0.758109821709804 -1.0428553830571587 0.14799963994215154
P 6.813510304290099 1.0786938969301416 5.188484399785212 -0.41299115859103064 -0.5716341371796414 -0.5447702229092618
P 4.529747044255458 6.397600832199222 3.7179781344278426 0.18941214145066732 1.1051210738655999 1.1132804697479406
P 8.79668601199683 0.6985329162619113 0.4835707718975425 0.3369906346950003 0.49500112190593454 -0.3037393288410382
P 2.7183156975135545 3.7208360395615037 8.862944898922656 -0.3309020052987591 -0.30257821865340145 0.26862834407051805
P 7.625568822620995 3.1039047423799304 9.097259596068954 -1.5088439197808272 0.2923611689110836 -1.555568834641192
P 3.1043144778829643 7.350943601712591 10.670844139384997 0.04101552318041324 -2.303606359716658 0.7659930811126227
Ni 1.8725936827402219 8.934776188689742 10.545441795030348 -0.23158337550207858 1.7862518098161881 0.46294229369817685
Ni 4.27938002756076 0.8589229477074397 11.805265789595946 -0.5885795067847281 0.91537571744523 0.22504865970735435
Ni 7.231794379864466 0.22011643074912352 2.083511551446237 0.6463341970966934 0.786806161203232 -0.5610861864604659
Ni 0.7983109609870603 4.129919690658658 3.945247243356063 -0.1824588500612858 0.8370028366622811 1.4962457714008426
Ni 1.43282642976815 2.1310436634493146 10.604292850304734 0.7152379620469423 1.1709348870366156 0.6877508123702671
Ni 9.148592936079721 0.4666598702268748 11.773305489142256 0.001144912237720609 -0.7032540502121888 1.6359368914772987
Ni 6.217978374971518 4.5929114969163285 1.6055997855758224 -1.4279225615444118 -0.3573283178110878 -1.0709847943035233
Ni 5.516371511219801 4.528070853561229 3.939917888165467 -0.10705353654709306 0.16349233626111198 0.7033401821680919
Ni 7.783372864312149 1.457978602352111 7.24540597951866 0.9540872750828149 1.0410725801251233 0.09913325325875184
Ni 6.62460361305047 7.2285816810338615 2.5404746585069957 -1.8134432826293156 0.8347986299221106 0.43185225716159176
Ni 7.245194593247777 2.719889454332025 3.0168601596286093 -0.18086913697666268 -0.3942177346382695 1.1154787629508403
Ni 0.07100809389280979 6.723806165637267 12.77834384209976 1.3417790356771084 0.16266984035981663 -1.3300100680666385
Ni 6.101958042419288 1.6579667765146993 10.151936474001948 0.1688065493851738 0.7427958170605531 -0.9381294662019779
Ni 6.527161060692613 3.0923297144192254 5.7441919006430116 -0.21037614529684415 -0.3031477180036263 -1.1091898446183348
Ni 0.9648433001098863 5.61126252885422 2.146165697162419 0.4851951915591064 1.5010223668538794 0.24163536042144187
Ni 1.3749792264761962 0.9299207982126737 4.3408235911088875 1.0723544209575402 -0.11408576080352612 1.2208608253327813
Ni 8.185491011857728 6.42617988353583 0.9201309133413229 -1.1582416078396633 2.173697515837947 -0.7333531835904145
Ni 2.4474898421787366 5.2126923182780915 10.337199312915732 -0.23579561381121325 0.8110568062204806 1.1210719407679015
Ni 5.868874414216197 7.968359131761386 5.249803180248325 -1.6822260043518253 1.7573500391801735 0.17379706062122974
Ni 8.836299985403778 2.452918837593934 4.904286267578655 -0.5889224919464439 -0.7915753004571012 1.068430660423102
Ni 4.584586416468323 1.290434030293381 5.973995782387728 0.9325409163706069 -0.7118433345430967 -0.10436390553007188
Ni 4.926473445067934 6.171547892741369 11.178700120790765 -0.38472316488427294 -1.7007472030844648 -0.3300990497814896
Ni 2.432459998953815 6.519757885126435 12.645512248101463 -0.9922696996898072 1.0027256049158084 -1.49992784823812
Ni 2.852075714913043 8.731398384456602 13.407663119728738 0.6407171080202321 0.7946032886501476 -0.5777225094655664
P 6.371889929383851 9.26040416755533 11.285144748393684 0.9224953592091467 -2.214629478165618 0.538018506007725
P 1.724856097384967 7.392410697053716 0.9009487732799747 -1.061262939030069 -0.8273938528176074 0.8202839812457033
P 4.510051803598266 0.5323255718903552 7.9948401510790505 -1.1960414522962564 0.7549033989573644 0.5742402073439207
P 2.4316591522887943 1.496940723822416 12.920606802404253 0.1732339890289081 0.24675391259492988 -0.5236869198764013
P 5.967769665175719 6.2950645225650135 0.14169678033666372 0.9454720226099782 0.802375990617031 -0.2913586957884982
P 6.488636611236913 6.88755137212241 7.335576657914719 0.08900053570012414 -0.12191245593679649 0.09481997059537864
P 5.416489170184788 2.758069353478357 12.015757160891985 -0.02275143476390275 0.5934288644572296 -0.1326794646453134
P 6.188207365807903 2.3854056012985927 1.1447292917634049 0.11448711000700282 -1.2061487159335873 -0.6513805012713492
Ni 0.24123363984525414 3.172460941773904 8.169022438286927 0.5455582660281959 0.05583664735364577 -0.40415607679790394
Ni 9.154729656454705 5.920473151086885 10.345717155293574 -0.3341930173452051 -0.6206907854969762 0.43158949041850836
Ni 0.8702269915059109 8.111934176892639 5.663206747251329 2.2992781646549503 -0.06628278238763423 0.30244940638502105
Ni 7.353262332172942 8.599817414959611 13.430355948077443 0.05235125990820662 -1.320151944325636 -0.02808955914736453
Ni 3.3437210698715085 1.2616873598873506 9.607800276236643 0.9536329611542157 0.8253932774478108 -0.6546602004638854
Ni 8.386438339584236 4.33353961132541 0.18548912465750572 -0.4696736988847395 -1.0776789184942472 0.23023174657019058
Ni 9.327349361448741 6.404156600247762 4.256308193871748 0.337227947516787 1.1342858683550143 0.9445682798487861
Ni 4.759385169364856 3.8910252680489066 10.194295675279223 0.732058890259023 -0.04887589976509647 -1.0817980828689433
Ni 8.070318086823137 8.673569805505696 5.678199341794157 -1.1018362324667412 0.2459571277252474 0.5148600656133907
Ni 7.204537656742196 6.753260561003082 11.88926343015198 -0.31126469068380586 0.5588498409307795 -0.4441799254890092
Ni 2.4844032861338725 -0.20548235477145044 7.298873669013414 0.16831778267421335 0.09124408031866221 0.4959220910583072
Ni 7.111527697553524 6.27515510198578 4.930659265718247 0.5857314958129719 -2.3134063765262156 0.39010294113894756
Ni 2.1138533966629423 2.9485870502185496 2.6237366375916733 1.114362904178842 -0.3168668673619317 -1.48742303090289
Ni 1.16170258497658 5.607072052118646 8.343327646145715 0.49709091455542775 0.7767189521705591 -0.1831237373387943
Ni 0.07290125816023642 1.4287197625672883 2.5359228695551113 -0.08437126445822889 0.18819343855221782 -1.0809264788972675
Ni 6.437745599326011 9.096975574867987 8.043442231475277 1.0604196171931672 -0.1518056439518031 -0.20933819095063302
Ni 7.970202941525037 5.477400077578972 2.7850802352988078 0.12931209083497727 -2.9413317320984187 2.074510269412808
Ni 1.731793664424971 4.354277815081234 6.500959406490654 0.11319024557245022 0.30858662963101047 -1.355154685653066
Ni 5.181245118420247 2.8902090532067573 8.032906441744995 0.4689941563192116 -0.6056583166438859 -0.17777584276331965
Ni 7.418019165993329 7.524839074068345 9.482996704446652 -0.24307260708860073 0.10695223508253839 0.1268363756009751
Ni 4.126846674385905 7.639229776778963 2.0475302557605026 -0.7862369189633234 0.2939279991775712 -0.6945670639611522
Ni 4.523899001166703 7.705253065790546 7.555158570075794 -0.5598736542096036 0.28963322845695927 -0.5273227168567757
Ni 6.937650849538817 4.701808019018084 7.238468412478656 0.4797161707224061 0.374446208438297 0.01532994548885102
Ni 3.269326139559303 2.805729042217606 4.784103394802422 -1.5370041842651272 1.064129976165219 -0.4362660699585712
P 8.649013611835239 4.573197631918088 5.642599845099886 0.19200252788566288 0.24665132557879454 0.28970547645579137
P 3.5506281867330536 0.8259206153721719 3.8441990185715094 -3.2891006883558447 1.0096611556933772 1.7677792049332977
P 8.984605613160968 3.5586459655537834 2.095150833383554 1.6012172286079263 0.4180408051997962 0.21191057966349952
P -0.05012368905976657 8.165013548876562 10.392507087305928 -0.7223943705860656 -1.0037869563007875 -0.6284454897417306
P 3.6048157070092737 4.480094551024181 1.666059983916669 -0.43637637028419035 -0.7775049384069642 0.584100130857136
P 0.6693299495002295 1.001449442437747 6.936347145665527 -0.29937410989380697 0.6730474447218214 -0.7203860819067852
P 2.4300015859356123 6.910422062928116 6.933894319949638 -0.8410656938777451 -0.2795125950831896 0.04659713103324878
P 0.23713628481491614 4.396610942281044 12.088183498355521 1.5340409878717451 2.13572592169018 -1.3100099707956276
