# total energy = -381160.8117187691 ev
CRYSTAL
PRIMVEC
9.35118636865488 0.00000000000000 0.00000000000000
0.00000000000000 9.35118636865488 0.00000000000000
0.00000000000000 0.00000000000000 13.68640648293804
PRIMCOORD
 96 1
Ni 5.149230697489005 6.787792304621506 6.157773899636494 1.4020315527102627 -0.698495709591597 -0.34985849179660394
Ni 5.763734549400007 7.669665273217526 12.205892984185429 -0.9183345429632377 -0.7657218297291071 2.1504789116296386
Ni 5.459989318280716 9.079927019733487 5.65226653930247 0.378432961000187 0.7754233732875871 0.4988040405917926
Ni 4.128838607269624 0.23063859229263345 13.11023591817325 1.4259361272420024 1.0050012883238626 0.08895194185037583
Ni 1.9395575895002037 5.516825828185988 2.6050702920580093 -1.3701987244703822 -0.5873695456370271 0.0010119862042821282
Ni 5.070764893833998 5.616350503230708 0.9475313875905702 2.488668451728746 2.995890541180905 -0.12792986577546997
Ni 0.6781938462041596 2.0425983105673633 6.310555450497686 2.151483184524437 0.811645331734099 0.39276223313866554
Ni 0.470539534545973 2.3913975569422656 11.038620876734537 2.1755926759781308 -1.137384561884996 2.2768375762632465
Ni 0.22913959713998203 9.235689728764768 6.074219180435181 0.05214531454498761 -2.4758288767619168 -0.4148387533227307
Ni 7.130270149105003 3.0111754778869244 11.828983136884855 -1.2274356503368216 0.512907055652078 0.03249591574517629
Ni 6.4742189767746 1.3410162124836256 0.672366186945692 -0.6065373768147296 0.3597186724201353 0.5139097858849795
Ni 3.4551604488958785 1.2669548175428955 5.723737655657521 -0.9572512746330933 1.5870900451779248 -0.19474460940717428
Ni 7.137938121813512 4.8651416598249435 13.34061922308181 1.3028021401932788 0.2410715174981719 0.4963668919052096
Ni 7.369080743043937 5.739486923505901 4.8847744753145985 0.362605249939311 0.4088737939885474 0.3842539385573382
Ni 7.386025092492498 8.706637016622503 3.990395230254723 -0.3893164406819101 -2.3588830208017764 -0.08373671619802353
Ni 3.431530001292946 4.716083751320494 9.819708713566326 -0.07483298595049047 2.4341615789301176 0.7528182342935614
Ni 0.9924226922057808 5.9830011641184715 5.00114998794558 -2.3429216123765135 -0.7985203643163666 0.2012839531875888
Ni 8.612096523838314 3.44905412428776 5.332100625163491 -0.7657891926319327 0.9770641955939625 0.8075040558722159
Ni 7.955951839645612 1.760706801667325 10.126339720756162 -0.9826488887705916 -1.729888343424795 -0.9894841665248701
Ni 2.5140290131610445 3.5471574190255377 5.073441203332992 -3.4695008561158893 0.825561941815191 0.20136417160622094
Ni 1.3849200318329598 7.630596017149045 0.9585620468673487 1.429130980030216 -1.6460536681963265 -0.13392233591347902
Ni 6.203371218812062 7.507029442307276 9.973968686970464 1.17828181431999 -0.6267179655276626 -1.8087340500791043
Ni 8.786720575495282 4.3909336549209845 10.675205726282318 0.8140104895321658 0.28305480390849314 2.36706015729593
Ni 3.580746879963303 2.4763904885857366 3.470886338778685 1.2515551690928444 -0.30119085138757157 -0.45432884099755305
P 5.010580659258426 8.00543831717419 3.874909015434203 1.0522962167550847 -1.2103319007769993 -0.7226208847745748
Ni 1.7940998876942627 5.360417887304846 13.650999120831207 -2.181166570521482 -0.3250131506181499 0.8240899852553548
P 4.8067435018192795 6.099928396737017 8.633412552849348 0.8479400524000752 -0.6384666214231586 -0.23518034882471756
Ni 1.7826353333764173 6.867146470968354 9.824554498270656 0.23122907748645338 1.047723766893054 0.7060429258112357
P 5.649210571642542 3.377274418787123 1.6466251350185341 0.20353726799813976 0.19223598405270761 0.1921043435708498
P 8.732175106216333 1.1832429984129191 2.983526825561008 -0.7953890177762367 -0.19327136729575745 -0.27553484138236417
P 0.07041630254831874 4.48153729830239 6.955774208699383 0.6377320572499791 -0.055845646214710276 0.7575071551287986
Ni 0.7099336425056526 9.24233842217422 10.918809738282695 -0.3236612645759458 -0.06572973809764164 -1.7749248148391432
Ni 5.548816236278443 0.5873442666249077 10.048819322028995 -0.7667392152500279 0.3270579489623206 0.3988446918873196
Ni 5.680696015678582 2.1305555682457102 5.676258877812499 -1.0769255852679904 -0.6309453733454488 2.025773209218421
Ni 7.775754480995629 1.2264735323537013 4.991268589456455 0.9189595781417462 1.1390825184127091 0.3938366971497669
Ni 0.37566894488786856 6.57893356017691 7.626421647616022 -0.37809280405194884 0.0723852957409463 -3.683504827973308
Ni 4.927270941136333 5.630003235126348 3.4731717686932697 0.2934101790008882 -0.14895017678087893 0.9741966442381804
Ni 3.0828149155941125 6.221634085519037 7.280360428569231 -0.9260625077351147 -0.2508098278318584 3.4527974273182793
Ni 8.20974303392483 1.1334105269938344 7.378792885062301 -0.6176010908280589 1.4767151575670825 0.5528221466794608
Ni 1.1743593714945235 8.241574471851377 4.035272508090589 0.6290496989846327 -0.13191816099925668 0.019134663946921884
Ni 8.047958160961501 3.095981385805798 1.8053194409328848 -0.7960963282559064 -2.8716671777227445 -0.020494006188293737
Ni 2.2618555740995974 0.367803662149908 1.6817584768028544 0.5355440763253034 -0.39377859021832184 0.4413072319269045
Ni 6.547822163590065 9.039240008447235 7.963503857644872 -0.3177919502793624 0.2838734431550466 -0.6715235518781274
Ni 0.311287897932321 6.7556803311080635 12.007494476657588 -0.21768347759153478 -0.9947215036644095 -0.678306893348548
Ni 0.2720521907489479 1.0720199893946059 0.9134827834089173 -0.9886105056706651 1.339788744719957 0.6641953936478303
Ni 9.040782954175167 8.359352662416843 2.233019321122485 -0.879781365280388 0.7430588409139526 0.5647448662589758
Ni 3.36479058517022 5.726703851929641 12.153529146653913 0.7489965465546262 0.24573858395653808 -0.2658921760862776
Ni 5.668717146118094 5.22632187676822 10.929128772287378 -0.007725393668715727 -0.0032136218412912396 -1.3345964018857401
Ni 6.208738799708018 4.317068634891083 6.732137784655692 0.18559790991089972 -0.05661157784645734 -1.7344142563196066
Ni 2.7670534101694124 2.6653873134780466 9.825689732278963 -0.05975655123334225 -2.073148870288907 0.15817246671009536
Ni 8.013508390890586 6.777356380788949 0.817486310928734 0.6635294779290573 -0.4431147174492885 -0.7098239901202226
Ni 0.36718741897735824 3.8958725047243705 3.442596195077398 0.029063235914543496 0.40763555070607216 -0.6037726695853989
Ni 3.1257462115755383 6.098366748636625 5.213480827837335 1.1998754813303656 -1.032114342490571 -3.7501563065542705
Ni 7.410188557710534 3.9106473789675973 9.019081656291462 0.679708658792081 1.919037975242695 -0.6206506762876601
Ni 1.8532741941570074 8.307930489338677 7.802592385475414 0.6446223566119091 -0.40776719118793003 -0.3648739913688297
Ni 3.0494592343120948 2.9361696131369754 13.24993328926158 -0.930427726682346 -0.6933586454753478 -2.7473461123444554
P 1.7100233723013205 4.220639202488456 11.386514928282386 0.16842191235224543 0.4325251148589002 0.2854266465747794
Ni 4.009639036397214 1.8062657809793496 1.303371142077957 1.2473344461432776 0.13381846334576308 0.020317885621745652
P 7.352098988850456 8.84736301819612 -0.12627280813669853 -0.9950017539089895 -1.542272374642602 0.5316483408153232
Ni 1.3455795913638118 4.845195579596588 8.771015258222182 1.0053023645040493 0.2794382902018284 -0.3399654010526081
P 4.4270198825821305 3.976358164605035 5.337875917779072 2.478674059520196 0.8894692819921134 0.02384955292408796
P 1.4204171347616228 0.6160243547919808 8.819041080461652 -0.937979570887675 2.352318223100065 1.419457204385878
P 9.141083777676968 4.7211520942570955 1.1382890408499682 0.831643886343213 2.1587167261583984 0.3409164521119677
Ni 1.8730893577781447 1.0712064361926052 12.633949144570387 -0.6716572492425141 0.9812471233270585 0.30925023135693835
Ni 2.448486548875745 8.274387784332061 12.458544268863223 -0.24929339118733196 -2.5009920062911055 -1.250332095319021
Ni 6.707026109153945 3.2513045890842736 4.155151910201911 -0.771004161173969 1.2507496424724138 -2.3830693882399925
Ni 8.55887892300401 8.517752405964952 8.631688194108557 2.052983451084626 -0.21342855896992277 0.8799382025732265
Ni 1.741228280750464 2.9228254703869223 1.7485755077712886 -0.24115482124059756 -0.24733832434349018 -0.22830419053017453
Ni 3.3329310936849845 9.282165124327323 3.827334855489637 -0.18475587362557858 0.9290691557719225 -1.3999643857685888
Ni 7.190388925376966 5.076684194717519 2.589851236468863 -0.13221923717944328 1.1151398915541828 -1.0505524945911004
Ni 3.376862966593008 7.210222791370563 2.4458972054086883 0.8253829930351656 0.8296541096066936 0.8684834237690655
Ni 6.34989495584821 2.158300537789794 8.51518924581934 0.41521336305333006 -3.8965330661810187 -1.7485098151807241
Ni 8.977727905427018 6.251595286199605 9.564238981358844 -2.5258599731773788 1.5562591758399973 2.1874955980633035
Ni 0.20969848096804045 8.75116736544924 13.114985385659413 -1.0512253522884087 -0.806123116364289 0.33889556502719703
Ni 2.751334066116967 3.145271488423549 7.370239355017821 0.01928995857786355 0.3135295754585826 0.6555426030688388
Ni 8.19024581063551 1.1542730234727194 12.630404109870636 1.3304165594764379 2.554697723344678 -0.1284955084709529
Ni 3.142466132554582 0.19350035618062472 10.156202733981317 -0.34905193673490853 -0.4705602152547509 0.2657325105799617
Ni 7.018448664167976 6.29462009404333 7.939566691133599 -0.15449064698313394 0.1526001148286404 -0.03330658457192973
Ni 3.4876932257896662 4.3233245784788785 1.1036541172917012 -0.5715171519858028 -0.7604428407183548 2.5326152896233416
Ni 3.122043141828502 8.390136767485641 5.874218814706159 -0.3116999784490116 -1.1500161346060775 0.7672819751273753
Ni 1.3207428407372237 1.4901769840366033 3.768730036268292 0.14965594459865195 -0.0005448167598764811 1.0378910970733481
Ni 4.122470449447069 1.215944096658845 7.952951979103063 0.3156607628689725 0.3181465054053037 0.7191792060828774
Ni 7.341354475872313 8.993232172196176 11.245983431382353 1.7158802020711608 -0.2711840206128362 -0.6500275867878805
Ni 0.3685040659985268 2.9444360617641983 8.900817204042042 -0.7887473440900029 -2.5067782739555797 -2.44580353404442
Ni 3.9882622246756854 7.113849466085315 10.366823241911623 -0.3508895041642796 0.8897916983285385 0.24954098842176378
Ni 5.096415197662586 3.777757671454628 8.568101062863928 -2.6038358756322255 1.7203284676505015 0.6006847746886945
Ni 0.1985584128123723 3.334380527550617 13.359465603809529 0.20341591192892708 -1.0755238198244574 -1.3070200349293684
Ni 6.297790146175263 8.121449133542209 1.7708706059805928 -0.824793696190599 0.09899312813646177 0.04994213624608173
P 7.444067905421426 6.2025296120513715 11.563575899070866 1.2037064250406817 0.4652627143012374 -0.11783802875710674
Ni 4.522373928568321 8.225677455260563 8.051192736278422 -1.7028740196194803 -0.47119064974989816 0.5235305968041951
P 8.92720344622692 6.3702057323395325 3.287419805422732 0.26693424419754674 0.46979916871901023 0.36250446269538855
Ni 5.576364830911698 0.8073440143437952 3.109934290779417 0.04378820082954394 0.414601440500944 0.20702342677452734
P 3.686798682996487 7.5930042485048865 0.44586455944116193 0.4475652970214743 -0.18677418960718803 -1.6364225728644655
P 7.7539942706386755 7.486335267180529 6.24030279370839 0.15169457229523553 1.1169198662727409 0.11061322887389337
P 4.987679604181424 2.177554630237138 11.57271855384783 -0.299490066646381 -0.22753337380242106 0.4131225419625724
Ni 5.068932061332939 4.106638891159864 12.748326308704042 -0.7009115181219413 -1.7608050876083094 0.47844964530515666
