# total energy = -340853.5026802459 ev
CRYSTAL
PRIMVEC
9.47978250955031 0.00000000000000 0.00000000000000

0.00000000000000 9.47978250955031 0.00000000000000

0.00000000000000 0.00000000000000 13.87461993382753

PRIMCOORD
 96 1
Ni 3.0747011413395673 3.6444076387546 2.6300035896416634 -0.8606132769923694 -0.8506723637295737 0.5363138646117924
Ni 7.0287469205182695 1.206292861366882 3.938130172101641 1.4736288053322748 -0.4693104020080498 -0.6964028316183104
Ni 0.48579051349291336 9.092865313127747 7.2292462193456215 0.5539056095516267 -0.28828956994487126 -0.9071345604823603
Ni 5.895694859840748 0.8441651644559838 1.8768196911106183 -1.755523784604712 3.2627661642263743 1.633903663097354
Ni 0.7174403780807168 9.316483905861547 9.491766034883856 1.0267219678304058 -2.000989831626154 -0.4322016700812105
Ni 2.5307132942313215 4.761903376117179 0.724683879997199 -0.9508212027370335 2.5560712066534363 -1.4333948975128925
Ni 2.2655732535271094 2.5419468366616726 0.126143675699334 1.0273102362337083 -0.12940413632815134 -0.8479433948341849
Ni 2.882441669584334 4.28001758509436 10.637893559759 -0.17103261050221513 -0.2956457531996263 -0.3675949898444185
Ni 0.4752347755214399 0.2964214274651177 11.58147794466925 -1.3976344520838315 1.5273738602642146 1.5256339947549724
Ni 3.9689669570566535 2.2377500914738766 6.967057234977754 0.931577524016073 0.12314144324789113 0.040913193274594056
Ni 1.2028422204853226 4.91183561837746 8.687967680872532 1.3532258440614695 -0.0917942963951774 0.39041095929766956
Ni 7.453735056125925 3.2993719899465903 2.095650045632123 -0.006661728290891753 0.21959894944669278 0.041778883708999015
Ni 4.863621443862046 4.763590777427392 7.206686232615032 -3.207780552019114 -3.212480271487629 0.6673545081021023
Ni 7.092460539652776 3.914041096430953 13.18961594828074 -0.35746150095484247 -0.6485080648195606 0.8253901921240171
Ni 0.25330548005438086 3.5876806194269872 0.02186322270642944 -1.7741776522604733 0.6010637552946682 -0.5127854424725491
Ni 5.080566269616128 3.487905907123657 9.484399295793033 0.689694052139567 -0.25945824753547575 0.3276724426178679
Ni 8.531946574221521 5.54658290449683 4.791613962894363 0.9995081264197754 0.6504842147093248 1.8092796381699294
Ni 7.657436625529626 6.38784725546447 13.793662010336872 -3.5293527952765156 -0.23103907296283432 0.3546955081739311
Ni 4.506992020883303 2.082366974194648 12.667223046030164 0.9957954534548784 0.5327462018651922 1.8369915022629009
Ni 8.36820228865236 2.7506726908654464 5.372946465741111 -0.6742468643465613 -0.07246679971115907 1.3243423282578999
Ni 4.180840099097454 6.9887706771184455 0.04918206032312648 -0.8276465922583618 0.40513386733014095 0.019966158709281742
Ni 8.5730509117557 6.541798925564811 2.3745300832971377 0.24460729856557228 0.5621102568496061 -0.923269775481326
Ni 8.323059563712839 2.5606504478136416 11.367781840426462 -1.1949523329971357 -0.47794005265858985 0.6121614078697264
Ni 1.0739835350374212 8.78372012140101 2.832157110539984 -0.7868442135300192 1.0406627462812141 2.2427881999880213
P 6.744580956052272 4.5081580341482255 8.080037751868117 0.00717440626125216 -1.4940307660273946 -0.26113357835536966
P 9.010239527623156 7.115069821253102 11.891978745313745 -1.2045960267344866 1.7926949943383705 -0.9746478728429859
P 2.15526650270891 5.954554830262731 12.655429248445692 2.2298118423330116 -1.2464224758519695 1.2623599730178325
P 8.017421891563513 7.366407298431077 6.078193947388143 -0.3561083293610577 1.0542556544743005 0.75053175225223
P 2.841261493789021 5.896149889407548 4.999567214812843 0.11083460085608009 0.22118403454562552 -0.3210698496996857
P 0.7205639664611393 4.355524053835074 1.9076356205438187 0.09111269694712051 2.452936545544776 0.8972260431193966
P 5.672351180803555 4.011853493727462 11.55843259306741 0.02431286571375168 -0.38908041341170413 -1.1782666448113386
P 3.7764325716048117 1.4530421237463 1.3324099936748195 -0.1401822007802618 -0.17546364969037523 0.47235304548911555
Ni 1.5792938689677487 8.155371688564754 12.781813710624125 0.8864922016416603 -0.8977520908261957 0.8207544931242189
Ni 1.4349736580313217 2.1177644825785564 6.946730685037536 -0.03816134156106976 0.5559599209774941 0.04201054010383087
Ni 7.544532414267616 0.3211883075946835 10.489212648807415 -0.43688339182759595 -0.3224168506458835 -0.4006722320143616
Ni 2.564594037392567 1.441694823924249 3.7964842078484224 1.2299687011713203 -0.9150720701618821 -0.9420619684871646
Ni 3.1158623575695965 3.362365145600332 4.8810358045747515 -0.17049602127245475 1.4741116585059646 1.6112396458409346
Ni 0.474981665324908 3.7053816007056706 4.021766502435832 0.7345163506605802 0.3955469949726542 0.17121798704014382
Ni 9.439066975200678 1.0952087683720677 0.17980777725543098 -0.322965781170818 2.1580469537848836 -1.2956822413190459
Ni 4.914234003385798 0.909518785987495 4.584799232871146 -1.5670642368753012 -0.37199774689780446 1.2548438671464452
Ni 4.734070734281304 9.290092190987204 7.374166500523264 0.9417889173314361 -0.3873624022793329 -0.5924122502672571
Ni 1.6375566130833086 2.198532230685385 9.427970889618631 -0.3378447551651794 1.3060404446249185 -0.29627104548845107
Ni 0.30633064426043083 6.4478921987166595 0.028892481535210356 3.1743204725884557 -0.6326798395380524 1.687295962675565
Ni 5.789236900775058 7.984546005362282 5.542938876049382 0.03567765590726759 1.8340537597908155 -1.8483331525279652
Ni 1.242581469319105 6.196431484364343 3.3946893084518184 0.574762655506294 -0.3861233876659092 -0.4736290839880617
Ni 8.561220143018925 8.181753923656455 4.1988204028338645 0.21079446378118535 0.5414570993756288 -0.17517979990136925
Ni 1.3296722324479118 6.102884989256575 10.804388878250766 -1.0645572935106247 0.6113800496190115 -0.7685927235189989
Ni 7.626153342812192 8.234831226667035 8.41318101335218 1.013009760450636 1.3596708283558647 -2.3797241259168436
Ni 0.6357085360792328 0.9848261792927352 4.901251441058062 -0.8551234575223918 -0.6752405957183983 0.30827989702386904
Ni 1.2395005399605699 6.190155868255574 6.720116480988975 -0.6312886156174805 -0.7918707202103329 1.6202948140646676
Ni 3.7431016558367824 6.913851954901513 6.958579465361329 -0.15033523005386368 0.4227346111310397 -0.7249572462172353
Ni 3.0304115968377947 0.5284656510108137 8.68573424408216 -0.5272095883176791 -0.5029828545598306 0.4474796792862035
Ni 6.478331780778986 0.6912363629026774 12.662700241731836 0.8654446369427418 1.0760336695813404 0.8236932640375685
Ni 5.374174097593205 2.8749621210800744 3.298746324292242 -0.7243622929457137 0.7504487056201206 0.595835159905877
Ni 1.8399215331345375 0.39617244031184357 0.7722572212060379 2.2833344968414995 -1.611889363609792 1.1311200690325232
Ni 4.513570990036606 3.4848628968956885 0.8609339519707923 1.7570325079397549 -1.2615331062411628 1.7174061517973842
P 5.8373657572466975 1.1880158404337873 9.3059433355423 -0.5872602737526724 -1.154686029277921 1.6103515868090263
P 3.2064985594063793 3.789059642083485 8.349829521914584 -1.175170779494834 -0.10188253386911486 0.713261555046862
P 1.8213127198089851 7.691762918475029 1.3383737249346792 0.5243047559660584 -1.6596077527316773 -1.442808991737941
P 6.086845197026909 2.2973210455939834 5.597451418151906 0.5162060381183239 0.7697450919558873 0.014229256225504527
P 0.294793748785547 7.278084163558856 8.67580037985198 1.786859104382884 1.0820852750920589 0.3280709636078672
P 0.019759658938248072 3.54088841230782 9.924529488214192 0.07526441706095426 0.033463421864768174 1.1725348845338839
P 2.810158326941779 0.5472176090542547 6.103070792996351 -0.20741294890346218 -0.8993605729638963 -0.6200801484961709
P 7.5600413386693495 1.718893148148636 0.6469344946834706 -1.7623642045653134 -0.20268109064543158 -1.3880496366088741
Ni 3.4553049346190345 1.9482564891632743 10.830126488122836 0.028552871937028244 -1.0416875880013028 -1.2669154535989986
Ni 4.884476965673669 8.876185921287632 9.990891758618773 -0.14551698272961391 -0.7627516913571896 0.20659610942912163
Ni 7.533725462056139 4.710750468982854 10.015657690770077 -0.6389708147530867 -0.830138762552596 1.7569535750727032
Ni 6.421054934058159 8.667858217954809 0.8311579546933805 1.6782387375693033 -3.031424986642089 -3.837198175866127
Ni 4.980488204268265 5.639892405038557 4.876373647471589 -0.20562448954447166 -0.2894499088015596 -0.9387640144621833
Ni 8.70656417048065 8.644481073960506 13.397971142983224 -1.840303340244953 -1.2373721927242431 -0.3950068061984681
Ni 0.8775102998979755 2.3271823609151703 2.230469618405092 0.29964356150510973 -2.3919682333915193 -0.8234464381340851
Ni 4.522937015286552 4.850368707729025 13.085875842898409 -0.3497944713278879 0.7629609791545183 -1.3405978708848139
Ni 2.5307701729271717 7.421124603838662 9.275668701697938 0.41987605863632205 0.6884002730288079 -0.3886559242797758
Ni 1.4974075065092058 7.742422876911987 5.344503325903115 0.6946843062653068 2.8451223373546806 -2.2258407735004058
Ni 1.0973796385970047 2.5719693082877675 11.828376987614407 1.0761807366821659 0.3838165939096035 0.1892185373826225
Ni 4.171227599498824 6.18771956411667 11.060361969140509 0.5857538644104751 0.9822763359225212 -0.38082948625682156
Ni 3.8064455634482646 5.931670634965797 2.550724167409573 0.5714850131962868 0.8435946309471858 -0.15204449943548654
Ni 8.844883679004916 3.6696049010160965 7.892647096477632 -0.5179538740473659 -1.3669802175330843 -1.8560158658842034
Ni 8.966907441168189 1.4187537499314644 8.661217630214333 -1.7808815466432104 0.5940963228378994 -0.5506724473263097
Ni 5.941008220867818 7.922311232319872 12.481789017776917 -0.2162811979273694 -0.2832687196915121 -0.986506829064101
Ni 7.9766588262044325 0.3048062952116541 6.139408695818311 -0.6988034706400029 -0.05575000117711044 0.2530508013472351
Ni 3.711865772032557 8.647268130057151 1.870812352850607 1.0942831027098316 0.32776757343483554 -1.4966034118505773
Ni 8.389465441117574 5.860837699067413 8.131151791893611 -0.07261026726755881 1.73228152624732 -1.2075006019757915
Ni 8.922760093406042 5.0891549526894595 12.063052798821426 0.044687315605045616 -2.3489079118669354 -0.3673898158121479
Ni 6.535788743370007 2.2544819078363827 7.763085959135984 1.0814309293375117 0.9379800851083072 -2.1351589934431163
Ni 3.7465428169357002 8.571515186967753 4.0174930164209774 -0.5172661039517221 -1.2685766433515056 2.043312246543449
Ni 7.002516361948833 7.174005629936219 10.14262515958097 -0.9330183702276575 -1.082495108935968 2.142400762607194
Ni 6.239867848428367 6.237118711462291 6.742732398437151 3.092115619653926 1.6909394729654235 1.0697632631915963
P 8.916967946211996 0.9240456049075543 3.0309386727526704 0.8108770861095067 -0.6813973593484136 0.6181736755020772
P 7.238572429508474 5.204485988307731 3.2688053787968654 -1.8988784695756844 -0.959691765753786 -0.2586514353634642
P 5.12330112976467 6.896930542886174 8.69777735995011 -0.584537989725503 1.0709495701902136 0.7983732972155412
P 6.03174870031366 8.040562040991773 2.6838923620463677 -1.1455138758603498 -0.03234370643802816 2.5859525675939015
P 2.48907808886921 9.39831338962424 11.02974037525146 -1.0780255032003885 1.1234890348498265 -3.7033791982997317
P 5.898880066808341 5.281537661619034 1.3560971265615016 -0.3048716426732685 -0.2415872807923259 -1.018868276113942
P 1.1301417674065353 4.195410525017665 6.036681031222107 -0.6957878237421307 -1.4017453889284115 0.09849279146127553
P 3.777247832911993 8.762049338282207 12.434031768784829 3.5319683785224916 -0.9410052450878762 2.130071808728196
