# total energy = -340892.8707248189 ev
CRYSTAL
PRIMVEC
9.09652846538649 0.00000000000000 0.00000000000000
0.00000000000000 9.09652846538649 0.00000000000000
0.00000000000000 0.00000000000000 13.31368890028499
PRIMCOORD
 96 1
Ni 6.799400100702361 1.692181651932322 11.639638176782071 -0.49997749207460346 1.0252674947720666 -1.036950844647266
Ni 4.496559416511639 0.3823161629497819 6.168897901904383 0.822574319941777 -0.5212117188630314 -0.38323578170546907
Ni 2.8606034051684515 1.691062778968002 4.781158854605153 -0.42243070673737576 -0.40772991019209137 0.446260976387754
Ni 3.326454805564947 4.390093650866076 5.189009881767482 0.2904369553051772 -0.36973337634366 -0.2324945744624383
Ni 5.1165878727802 4.505937937049966 2.7726818218404756 -0.30950914144527986 -0.08905272909429823 -0.6529249629403335
Ni 7.272183055560743 6.2287748888990295 2.5288421071496145 0.6547859274084723 -0.1196884517022842 0.8851313167383917
Ni 5.265061405492681 4.651955407157843 11.481751556724236 0.2848977706545029 0.5428228693749039 0.644471947076974
Ni 5.637591523442335 7.942042293118298 12.576163047155438 -0.191474937516967 0.689132266098826 -0.33847878920475255
Ni 1.508641003142974 6.700930183314013 0.6473526075712045 0.7842216883055074 -0.6495843286028747 -0.5804802747163617
Ni 2.905194586234288 1.9016110198798446 0.28542540285091383 -0.015502723621289433 -0.9405758708599415 -0.32470976044511823
Ni 0.453137182979988 9.108171721256795 4.817665041437754 0.3439218145971948 -0.24469985827937854 1.8596562908502683
Ni 8.606016076952965 2.1998861784169272 1.4489286633081166 0.7939355731591616 0.7736349139285966 0.2915116764265947
Ni 6.870071028017842 0.6397824768321205 4.878228816308875 -0.4533263678749676 0.5926775881135019 -0.6855386352102968
Ni 0.7453804336907233 7.6515355696343015 2.973092891765014 1.1386354035729616 -1.523351369368383 -0.9600992856048498
Ni 7.885989486564303 3.986326055197107 3.627847344304246 -0.6723046530185259 -0.7483571131984144 0.8120981030008013
Ni 7.712173026383559 3.9267892783558382 12.73737899652174 -0.8991754535362837 0.1825339262735953 -0.039810447128718535
Ni 7.751233518324951 8.90901233360779 6.98231036008986 0.41709952433244935 -0.11408807479637124 0.706983435347634
Ni 6.788748066220905 0.9083938570224689 0.5583430794746703 0.35699356017948847 -1.0937048616088583 -0.1437462639824363
Ni 1.688897805264683 6.615650231765214 9.260948821444234 1.0330157712589176 -0.412755902651773 -0.9503594326092664
Ni 9.05101823479481 4.770546844847624 1.553002042046231 0.763064594611918 -0.035109699218939534 -0.48037668712454046
Ni 6.27307498106358 1.9320570996487867 6.883749477419861 0.6729322593001958 0.49628461660404855 1.2626132266792192
Ni 3.2457595042114105 4.369453628459225 0.38628588784107754 0.48390064111739883 0.3258197056798453 0.5790527982412157
Ni 6.244284469420705 5.633525375352489 4.636997985895795 -1.119053367675976 -0.35338193156883013 1.1995042140338763
Ni 5.334558880674851 2.916747177004099 9.108652927596735 0.7583149957420747 -0.5998327111010444 0.5417964849929184
P 0.11712416769673431 5.664317123191709 12.700886454481386 -0.10613179606377206 -1.0187757164001359 -0.7205994834691719
P 4.0983497995516105 6.212291979863679 12.596067160433725 0.3675875336452508 -0.16883508863026406 0.8723876439194782
P 2.411798898553551 8.519690024665167 1.4453473601694755 -0.07256835828602987 0.744067484684125 0.27043068738657944
P 6.332711819714667 7.784135660698499 5.835775763272031 -1.1726117605184063 -0.565791305245619 -0.01737242984017653
P 4.886955115777757 1.0624653931678176 12.625610864608678 -0.667068087209935 0.09046040807510226 0.5285601888083026
P 3.920576349619003 6.172840337211182 8.257269741544057 0.305238539094384 0.441960035019555 -0.999231218609305
P 4.69354473392916 0.9965519500827399 3.8063439682259874 1.0205212383363327 -0.2260727300964945 0.6661301487766979
P 0.21242758363077408 5.688868652709598 3.74187869242481 -0.1684352820886841 -1.0699895202697896 -1.3479432555062913
Ni 1.2505543060397684 0.8407984658796446 2.8392638597456963 1.6932537229208966 1.6976544230917536 -1.6737472774568527
Ni 1.8393816707016748 6.550082456750413 4.8786145091030795 0.6393796201557311 0.11903667705089821 0.41694114437771423
Ni 6.098721825721089 5.527769138903811 9.31196669965879 -0.17721662782573996 0.38156147932683965 -0.28140852655432175
Ni 8.67368514997393 2.1533210507392413 10.165493937400008 0.6878413152015445 1.443892711720423 0.14344184536814006
Ni 1.8951979675233748 5.458462690813112 7.1280021744894215 2.0521337014898204 -0.37423923463381353 -0.4932178047532667
Ni 0.4672850132353319 0.10294358993999571 9.200530591023758 1.157432995895439 0.21950998927731227 -0.23152629701189803
Ni 1.6712505406241847 1.29980290952619 11.479514720448414 -0.030070594133135307 -0.019486133749069667 -0.7397287480994551
Ni 4.013579253580062 6.916545190413875 1.36574455184858 0.3101346908444207 -0.24076478489103048 0.20640764756739938
Ni 5.690942661131265 7.764851020988264 8.15311631335809 -1.0496546653671792 0.3846311193910989 -0.16925469266618592
Ni 5.385171963386052 2.953269737587398 4.890224408000331 -0.45436689332434005 0.22382584304384678 -0.2949721241713694
Ni 0.5713411085699321 7.597647736783625 6.864577634658873 0.9175709253243358 -0.2602331780282873 0.31165755524685035
Ni 5.012751003774381 4.4277077948292005 7.127403622936151 0.3372109782359225 0.5517474255580433 -0.19510430673943818
Ni 8.38628943912243 7.2351783789846875 9.193993825884242 -1.059123524089563 -0.5576596772774202 0.025606901934826867
Ni 4.812409067463899 0.3018810223017703 10.509546464275669 -0.5211911500377411 -0.5595594654032944 0.37152106437170207
Ni 8.122990431380563 7.116159404471142 4.825839181647009 0.472721741682444 1.1380072830706593 0.0398523561102475
Ni 7.062562660521752 6.146988004165669 7.092388357069826 0.5779549371913466 -0.7600247793443298 -0.28124140484883825
Ni 2.1714140452598345 5.500934380816456 2.5585049758435328 0.24292322599493005 -1.0968734891448269 0.5776428052675665
Ni 2.451268734262377 5.1390835869327525 11.569755008805698 -0.18096041113888836 0.4304800594044135 -0.26110401066901484
Ni 1.1322175711386122 3.3293656945778127 3.890459564169641 0.23305790316507602 0.04290656955553901 -0.261884083368149
Ni 3.729294555361065 2.4039031121061525 2.493054546042064 0.9913438454414282 0.6339247676887471 0.443555661641449
Ni 1.1493918163145198 3.330530050182959 8.26389929127086 -0.12677929711079458 -0.21087519642044975 0.7255169753754472
Ni 3.527369823149837 2.4482668799678593 7.181603466702894 0.08250155823934177 0.7291041785060733 -0.6323988179625238
Ni 4.174260327090249 6.791004005205877 5.829425476959901 0.5217120555382175 0.35565324410151006 0.8938828376787766
Ni 0.9786135965409549 7.200957240027185 11.285760489835173 -0.6102580201994264 0.2893732899273533 1.8289254374253148
P -0.006184729499523106 5.591053685349145 8.003323784061653 0.30049948174750185 0.7667744393633376 1.2293734907894827
P 8.517434085680197 1.6047913058491945 7.886922790354053 -0.1281941751804502 0.9344144792442358 0.956224890251108
P 2.005065834702725 3.326727701409903 10.3670093258438 -0.8074621468906868 -1.163215921125803 0.921518082897542
P 3.9266437339051947 6.030015748489294 3.7905805945685027 0.5461185094070402 0.3616387722609837 -0.39612652162520806
P 7.079937029317294 3.917119668916225 10.512275422725232 0.2880823390300716 -0.4698500765616037 -0.4030754421392154
P 6.514433162870974 7.894794925828221 10.17929973819634 -0.24642635405218202 -0.7868311009038965 1.5155213318010028
P 2.634390942756125 8.498276797364273 5.764175170778067 -2.5617214629606786 0.3756967930159465 -0.23604706770038703
P 6.951876105807532 3.980950007051471 1.6346142734388203 -0.36639608444031097 0.4680976126468713 -1.0504810179232167
Ni 5.419729673885668 3.0130339276327973 0.2053986963175199 -0.26955059877447124 0.4320744004747269 0.5726638639957363
Ni 1.301931497116848 1.188515983953068 6.898354863041914 0.8303557636594086 -0.701234962899631 0.0630925575851107
Ni 6.9296441909717705 0.8166107974883635 9.283581893172084 -0.23480342510127303 -0.5554624125157853 -0.5674039011483777
Ni 2.951541397236009 1.5005269000196109 9.24683555799592 -0.435165894915857 -0.3862537425961864 0.5336887682841195
Ni 6.289858075528384 2.1302795448967764 2.6761449166872344 0.6595267845275673 -0.2792377441552481 0.1471452623616563
Ni 4.215431213565969 6.806140628072778 10.505751392725145 -0.14681950359112136 0.8341468552707246 -0.6624881811487364
Ni 8.206478366880818 7.377448079488499 0.3771338708540644 -0.4209592643981718 0.10482798965068398 -0.14469577237989917
Ni 7.773483626217043 3.880806328480725 8.164353254600568 -0.3934782853690837 -0.8849641950329081 0.5010113326557565
Ni 2.986217362601772 8.524056358184465 12.563928216773238 1.5351637886222784 -0.4859122722307889 -0.4691543360461598
Ni 9.31348036194548 4.725537223486188 10.503075194138942 -0.6457616124226749 0.07565136808672777 -0.5547692431035026
Ni 8.58335662529344 2.3525077279727427 5.623289052208183 0.059139229364317494 0.9148134171838568 1.449677436723
Ni 3.9806225320375233 2.799183646996985 11.389008813468703 -0.9494145521974938 -1.1363926302853717 -0.04488091967309045
Ni 0.8845218381585205 3.3808429474647097 12.595974375846438 1.116764057421167 0.13060458439415573 0.5062841510189215
Ni 3.04638179988644 8.213901133863624 7.9060409635988655 0.22434829120622007 0.2785389183160106 0.53125007693564
Ni 5.733823694902043 7.987206555458543 3.7149984516966286 -1.0121373851480118 -0.3436585336334791 -0.38192014821783904
Ni 3.218715525976255 8.256454692620455 3.4657399351777545 -0.03147801600362321 0.011956915251560053 0.8787269558739447
Ni 3.558470852946674 4.449121022130094 9.354596669252208 -0.2331566335264694 -0.472074080796116 -0.0177228712010598
Ni 7.3572446904335775 6.2226620219720115 11.450491337684507 0.24684441542620716 -0.014389950173084894 -0.08003895563146216
Ni 0.7773947549153468 -0.1710465673544385 0.06588797280621526 -0.20776596136750672 1.0254451580005113 0.3436377076978727
Ni 4.7004853849192125 0.2856855635564387 1.6204491597799624 -1.151316598585056 -0.3317620393062093 -0.25547817984180515
Ni 6.29631661052568 5.930708950509747 0.41931720091457114 -1.4505636959826953 -1.3699678394064987 -0.38735674585237806
Ni 8.240781374591807 8.751223956054138 11.34471417922105 -0.24096173139318502 0.3792346309658759 0.09989121447069893
Ni -0.17027063350194646 4.961673998126754 5.864067785171453 0.5784298199452361 -0.540423773015108 -0.46932222908259175
Ni 8.089842682746555 8.869806297215757 2.433595999343016 -0.8185328028825517 1.1010803281373231 0.2770353371872906
P 8.494247035387088 1.578193057494134 3.6936962020393507 -0.7121719215271091 0.4126368605754055 -1.5101065885433347
P 1.96409507184664 3.2322511598860806 1.8218854084287188 -1.7700685151881064 0.7626336777220866 -0.9946993921772224
P 4.903510797038431 0.7648242626438497 8.345365978212806 -0.5474328573430896 1.7516010525115382 -0.8130429834125739
P 8.792267491135545 1.496096890803156 12.60649178171105 -0.7088896512314113 0.58481181221218 -0.29528991252210435
P 6.358345836084215 7.966302733734901 1.5862598586710381 -0.2724382047349114 -0.7187896839539427 -1.5039374836181454
P 1.6154160507461541 3.380943009274527 6.129901995312964 0.7822699638957754 -0.49877318735385706 -0.7575968866291275
P 7.007774271382719 4.0005712183038185 6.078710373410455 -1.8384786283313888 -0.16557492982175354 -0.8122906786275818
P 2.401665366177512 8.581537319660399 10.236855291203225 0.20394273096667453 0.4041571052391685 0.13958159108178542
