# total energy = -340858.75025616604 ev
CRYSTAL
PRIMVEC
9.38942326159512 0.00000000000000 0.00000000000000

0.00000000000000 9.38942326159512 0.00000000000000

0.00000000000000 0.00000000000000 13.74237004079292

PRIMCOORD
 96 1
Ni 2.4769203946621396 4.249530781613856 7.55625551692497 0.8637806189767576 -0.47345887695878464 0.020428443057680948
Ni 4.930292116471794 4.467055543963744 6.41319279608853 -0.3806153133634864 0.269990000304735 0.497385305867395
Ni 2.997310384894702 6.235835046336587 2.808377354483851 1.4152843039551108 -0.18218117091986688 0.3546083477767635
Ni 0.2436677327737997 5.00122920714186 8.289782592145391 -0.8339553080852088 -1.2794986895806482 1.455321779492971
Ni 8.154770201124478 6.900578025577962 9.085273286486787 -0.9951904728810279 -1.727686964898102 1.442236921284555
Ni 7.957498424158487 5.923768183926225 5.261898368119006 0.38763545343506145 -1.7262412335905108 3.0463139879387797
Ni 2.1463845372354955 9.277623127922764 2.686344901800767 0.3863910395049991 -0.6467545724635636 -1.0942157398070058
Ni 1.7252313585571242 2.052020836211782 3.1118500780338136 0.19806390358839437 0.5800498720471623 -0.30546042529720296
Ni 4.612488316616111 2.9963996108649207 8.796957908465439 0.4302224348676526 0.6711121753723217 -2.2652267314971954
Ni 1.6633644504929208 3.8001529974352586 1.3470892486995916 -0.7324409561887901 0.2028207015470894 -0.9487139265860435
Ni -0.08477240544204916 9.60735149497249 13.0615042553208 1.0090317496394945 0.1801980790515671 2.238392899133803
Ni 0.6836082079077277 0.3492170534024431 7.516911017780724 -0.13104167193157432 -1.1186347920813187 -0.39308902035046495
Ni 1.0562349707024417 7.376039626815652 3.373806528902538 -0.4857832028520924 -0.6557418635638383 0.5564687422931126
Ni 3.4891001927075402 6.980228500780366 10.641403953867117 -1.5697443548106256 0.00777758706288983 2.7793020964257615
Ni 7.10616883131082 3.8664047660345937 4.339042967779962 -0.2707088807486306 -0.4520480153831763 0.6797852776662874
Ni 8.981734241319753 3.197126695490288 13.774526708621263 2.0604108538969483 0.023782704241894527 0.7919501672980167
Ni 3.279697281241784 3.9152391549922387 2.9131896054079807 0.6507066151327762 -0.8464812084663615 0.3412607228252639
Ni 7.300126141962247 0.8525474010091365 1.1682198018466723 -0.011043659408671302 -0.7409268821726144 -2.2211703646079295
Ni 8.951181058918642 8.17415935959353 5.331517183801635 0.6223676589787668 -1.1002838003779567 0.08196933988495561
Ni 4.376128371753431 7.002603495759422 6.8259452580200435 -2.1377393525757826 -0.27819027672734026 -0.376329541503939
Ni 3.347639145978857 2.1963738252205944 10.308123568101246 -0.929664109043444 -1.914941179465502 1.4809723901815397
Ni 5.465592510408402 4.394738208114526 2.493347190178656 0.8665892920701462 1.542754713595659 0.0018105708461775268
Ni 2.776273978347515 4.505542788789236 5.056133858060881 0.4196050643631225 -1.8096105391467867 1.0514909472449698
Ni 7.840722170463768 2.617592729859878 8.519636605820077 0.4140769354560417 -0.9730720437154339 -0.7708396105716466
P 7.2274050609245695 4.713424613731028 11.989158912656519 -0.7963351837395899 -1.3942117995555277 -1.516507349863356
P 0.7911330631329273 6.321297574368212 9.994330929745797 0.24719254279424524 0.29447075905491865 0.5056493456484001
P 9.033761034093125 0.7080563874824087 4.604779600343427 -0.8727545403405939 2.0515351486738735 0.1807925181024564
P 4.617558605029325 5.131338441478735 8.802977467542682 -0.6747459154701669 1.2890410818534446 0.18721821912314207
P 4.483055120734331 5.844427559682408 4.873964967970177 0.11484089380199577 0.9587551128721293 -1.2783920867800307
P 3.8462738431495347 1.0129403413073828 3.7619596415492724 -1.367603195829064 0.30662102126420737 -3.154475927058703
P 2.5958749944899426 2.0043131780126293 7.038044811767791 0.7393932191369073 0.44418403925406735 0.6465946498469316
P 0.5834033468435318 4.503627346499799 6.307019078831222 0.47196969400776784 0.5104763347233983 -1.3022781493690088
Ni 8.392998641161656 6.575431696946105 11.643030040474642 0.0587489359044343 0.7804712201241397 -0.9573960277410737
Ni 9.244384570547249 2.4272409576356258 6.5431133030233575 -0.4329421477916608 -0.021421917319201816 -0.25107722256063214
Ni 1.4328353373054374 8.84264871860689 9.521812912614665 -0.17381351568146194 -1.2363234397447547 0.7924430477740352
Ni 3.896817107090893 9.742183609072045 0.8429373265814977 0.33447326758978524 -1.216635474397524 0.24910672909782258
Ni 2.7607344833033114 5.450757222088256 12.191914112647172 -0.828400953925883 -1.5129538281841428 -0.061128491880204396
Ni 4.780850060203792 3.880075765904298 11.289522020766942 -0.004595075569850151 0.8115538004615572 -0.10686173225126112
Ni 1.1908417386502974 2.2823621609395164 8.749588269493833 -0.1364823833311714 0.7251824748541639 -0.3616161465531643
Ni 1.7455688487479066 6.389220660259311 5.532966315054735 -0.771773949460458 1.4549003756848362 0.7154459642926905
Ni 4.605098840725 5.351398348035228 13.34452775454643 1.4315367612582313 -1.5958307674850323 0.7719235876644448
Ni 4.8579184440846515 2.8787219725634086 4.398767209518433 -0.8622654678838116 0.4680281928615166 -0.46128007550440553
Ni 1.460374514927582 7.342078083870103 11.930039349758438 -1.226516480956662 0.36776262577053437 -0.05951435331554912
Ni 6.428308828156 7.522843255224186 7.293543217505758 2.356985546668747 1.8149000696805002 -0.2087848895503243
Ni 1.5817328070401684 1.0147149422520079 5.407732069132937 0.5986641447142399 -0.34266403093069375 -1.364122179258999
Ni 0.24299826691479562 4.393526972549147 11.160109481615734 -1.977620046551962 -0.06850344418803686 1.4737856426251132
Ni 6.619430533065221 3.949444822935461 9.768667415550402 1.0795205996886763 4.4145095659362035 1.2070532300257277
Ni 4.850594694154453 7.606944316922633 12.891978223282676 -0.4909714319212512 1.3119002458398052 0.3006753452037338
Ni 8.117897937052824 5.566585144061244 13.69703392282137 0.20017632194570686 -0.8453699776800537 1.1389529348133804
Ni 3.8131949059648043 8.052763509788994 4.030307472645543 -0.7213430465034157 -0.015623565469869868 1.6407646518832453
Ni 6.654866215419798 5.290554887076655 7.938664180587993 0.5491680948666414 0.7107917533501308 -0.3494748832049401
Ni 7.7565272145354465 0.39926549475236334 6.796398621763186 0.012388603472339953 0.24814127986075976 0.8782744417175584
Ni 5.298047646620628 8.464583602017855 2.349162271841318 0.05290173309503792 -0.8917912452570705 -1.1161575341854197
Ni 5.677342777621017 6.113490864810321 11.187196089049884 0.6707295952219222 0.061655053807635744 -0.6061306282946142
Ni 2.386594145523023 0.338898077539253 11.54688892167941 -2.0020825504697 -0.5778500361823661 1.2612127467872667
Ni 2.2123452337222203 4.164575282423552 10.233805346213407 1.1809675886822693 1.0257107529570721 -1.8074783232951321
P 3.691526762893633 3.2154360703157847 12.894382854509757 0.35353336954502984 0.7946110019596315 0.9446744664093473
P 7.942137328151044 8.898938309416558 8.980460096620359 -0.6116178766614305 2.225750013558812 -1.055788031958427
P 7.779352901817899 8.107269110231048 0.17576060890177972 1.5139545015345153 -0.9851888815836257 -0.4730575277553079
P 7.037297413697991 3.6119701819211034 6.668938143651065 0.6299030481238636 -0.9261360412855275 -0.917329241627175
P 7.193002215098611 3.5643939756437746 1.4979735203384632 0.06454625931250174 -1.356496287282625 -0.4488467348370593
P 8.338014180147242 6.787059901659883 3.5087841790583973 0.4955600797331982 1.741236164337446 -0.761880858716462
P 1.1285804748206216 2.1893787050949562 10.84517602836731 0.6417360362030495 0.4640751217510395 0.772935830979043
P 0.9548479812841278 5.149582090343318 13.430748009013142 -0.5366938736590305 -0.10906902431522507 0.0783242869332006
Ni 7.521632019658806 8.931744953334652 3.2572574992441155 0.8232664609127951 -0.30876634974198436 0.6434478766878338
Ni 2.430724433563964 1.7521038871471608 -0.21243100037920376 -1.8809229135385284 -0.43488127379590263 0.4970060681511053
Ni 6.077257081501812 2.1263381191573236 10.467645169946259 -0.0835539107632561 -3.3771077497944484 1.1934950317253188
Ni 8.54931375505646 1.8045438145319805 11.387930685213643 -0.7837190376374761 1.2132747854554073 -0.3735473507731115
Ni 8.590786836391956 4.855073448919459 2.5945726815215857 0.7273108340510764 -0.2675605649276359 -0.6298089457481605
Ni 6.205112854321702 7.186007094972973 4.365510812239241 -0.7280770227931396 0.355673041595852 0.5493791824361829
Ni 5.408476650375841 0.6237496974205363 8.524351035102068 1.709150082436179 0.3396422133852344 -0.32997640816069623
Ni 8.24010127723428 1.8673872225868773 2.878572680737909 0.9024242994908845 1.3650552325962297 0.668229454507888
Ni 7.0206124090493205 2.603414701148852 13.055511925570219 -2.630943787592611 0.14548561527104623 -0.5605768509242153
Ni 4.315989117518916 2.6925578829915517 1.3274644157135553 0.26951537466116166 -0.38583156745710323 -1.3911881822378558
Ni 0.11468710708001434 3.293734468607998 4.32073828766596 0.21543684764920318 0.4127525602176634 1.0864096134990258
Ni 2.3191968673192207 6.681776301701785 0.6819584862888355 -0.06954268408582862 -0.7719958356632769 -0.5358621217863546
Ni 7.125107297476474 6.88741405454958 1.7209845225399079 -2.7777391228140162 -0.7332477683608017 1.2529265955190743
Ni 3.9711813371513713 0.5345661410589906 5.7084705927089585 -0.9463924775417185 -0.8928273998310687 2.406363839991559
Ni 4.792248819710537 0.80626224039258 12.237690366537809 -1.395953464836983 1.1456617142921237 0.512629119400343
Ni 5.8849147516042235 1.2118928249881247 3.0399355484307566 -0.6223491470360056 1.1427795076483223 -0.17383665560991352
Ni -0.0765115910977046 7.150759201078145 1.2527217919066833 2.356639219072922 0.3028818659367493 0.1708156093954026
Ni 4.8661341891986565 7.780085276810919 9.324774932281061 2.419786798265684 -0.33364305837900604 -2.4324978180744496
Ni 2.5740727543131205 6.626219085885136 8.65993242515602 -0.25844986087561944 -0.4052806773206505 -1.3558136593933037
Ni 0.307171217264713 7.2067389409292275 7.547006935282347 1.1273963403240324 1.1056923729880377 -1.3935551398081356
Ni 3.2130323780310013 9.454961159886434 8.084883786886707 -0.7164456092017983 -0.09065632613599225 -0.36773511496670863
Ni 8.89732332866272 8.991856039300206 10.963195441665565 -0.03695909372285248 -1.5187892039189972 -1.5209952104313804
Ni 6.400732092841905 9.20654519590789 10.782180511660018 0.6534286420496295 -1.038761158383127 -0.6509971497900015
Ni 5.393894876476355 2.163830085146148 6.495441324631557 1.1306151043716464 -0.7071621270173435 1.2916522942240465
P 2.277197978296428 8.556937966522257 13.569627903362578 0.35241442544923823 2.0662878815030155 -0.1681843424201426
P 6.0405444376209445 9.450454236852465 5.598957057695021 0.6212669697154204 -0.9120962753630097 -0.31742376830666624
P 6.590079196806502 0.021079254606789652 12.93302690269914 -0.9112637521593855 1.5368789715411726 -0.7983501572870896
P 3.9919695196455502 0.1003860769278534 10.25944879933439 1.4099834605674877 -0.6128818309755187 -0.7797094022574508
P 2.453878750650976 8.315000704405042 6.256323706237467 -0.6885113446853754 -0.19042207077242043 0.49798180180081336
P 4.907795058993902 6.4302054915994615 1.3575866235995429 -0.3146176663164388 0.7942345924568193 0.949722570356216
P 0.47423534259553124 1.1107781288364467 1.4073561990867365 0.24525238834873891 0.6518219596841419 -0.040370947617878856
P 1.3743580109396978 4.790549334149811 3.442325843153338 -0.6750184524052633 0.6708627783656769 -1.4705313973538738
