# total energy = -340867.41055690945 ev
CRYSTAL
PRIMVEC
9.31762196701521 0.00000000000000 0.00000000000000
0.00000000000000 9.31762196701521 0.00000000000000
0.00000000000000 0.00000000000000 13.63728158838886
PRIMCOORD
 96 1
Ni 2.764780737350138 2.530349365135605 8.730001610100844 -0.47085409234608583 1.767642679355433 0.9791431896101782
Ni 9.303813391133184 8.52863381993334 0.2468349907634989 0.20419727017964187 -1.7731222144127654 0.3034066280919678
Ni 6.37307648643356 2.6491210941347565 3.865474232148009 0.9916922299197825 0.0234623447879983 -0.9999521559357296
Ni 1.1875775256599082 6.391916718334109 8.859800744863742 0.6737066755723753 1.597666020921558 -2.62311580690776
Ni 3.061519048594821 3.881152994867619 3.544684342958279 -0.07465737960457465 0.49316252603529903 -0.2559142389379593
Ni 3.635717510944606 -0.0706350296694726 11.427073982885348 -0.47089394444508575 1.07635248637334 -0.47830874885191826
Ni 8.23124327514116 3.6569337364824634 5.207628313278006 0.6843677548306472 0.4260857869914597 -0.6637827315904439
Ni 7.310690163826407 8.115919066321636 4.762356856261896 -0.05637889301036097 -0.6379205191117013 0.2215406465540959
Ni 1.5070321996016909 8.632730294113816 10.139400969977752 -0.14213418230031005 -0.6165726495635445 -0.9044457007962875
Ni 4.68781681116734 8.466941843962259 7.333598469538913 1.0321382537499708 0.1746115861027251 1.2330303708157797
Ni 2.1346485894914564 1.5268880523119122 3.734119986255435 2.2384538342787255 -0.9955254876229436 0.09955722817004789
Ni 6.09872842111223 5.6898618454307535 5.668963350806749 -1.3571537183609659 -0.30218329720782794 -2.9161511190677327
Ni 3.5034165946459517 8.70901366630461 4.464955130323188 -0.90976916989173 0.3975640254026831 1.245329757008423
Ni 1.310290608810361 1.0487356386420719 13.169264329225925 0.7315804079607078 1.197122601175577 -0.18779543178285077
Ni 7.808633206851719 5.742841844731701 3.588841485886017 1.3076926355163607 0.06363994544814847 1.939733041698201
Ni 4.830423017516443 9.023548635773848 2.4719073757554786 0.9264808262194562 -0.41316830759884327 -0.6569052877443202
Ni 0.9176245826864935 4.051702749915902 7.460043260343258 -0.24431933501150827 0.8801467190396068 0.0042834578667023
Ni 6.977790161184085 7.118570113600196 7.648141824868046 0.5084940141860468 0.2873596019314341 -0.07922468726028291
Ni 2.394330717616219 7.699738157286089 2.6340004569793614 0.25179713144579213 0.4557316348823506 -0.1447219976321443
Ni 2.360023233017892 4.736044823193668 0.25063937586982615 0.8686338333040008 -1.1273132936919228 0.723932918717779
Ni 6.140676355838376 3.173190749548366 11.947213465294183 -1.5175442757683026 1.4201537162322704 0.1697622284302238
Ni 3.707304801593424 3.8594056648696573 6.063449108528133 1.1529482206512078 2.1921238408639345 0.8355859017100964
Ni 7.762715965107951 0.4331380495082493 2.9147916579877498 -1.1428306726012318 -1.4036503192606085 0.3838680159728292
Ni 6.342356286346465 4.183500514620774 9.41433343399429 0.2376493791905004 -0.8857923473611582 0.727475898874031
P 1.4684386088340995 7.575059055871039 4.6905701684999865 -0.011694405618792762 -0.038640080969701195 0.2915692691374075
P 1.9638565762683888 5.308444984476783 11.913215325749812 -0.6458148342581136 1.1207505528727408 -1.4201884261249478
P 3.834574201954247 1.7920675774798616 5.615628350103521 0.021582354156466057 -1.7128157042132246 0.11685946689392132
P 0.622523377646027 4.064039281585698 3.810625117852378 0.09898130106191984 -0.17823298490539627 0.7496313519251477
P 5.428865932588891 5.753845956440182 11.84382885744269 0.46490275985865737 -0.6877217589045446 -0.3692510373906028
P 7.992851913531112 0.4606585781637677 12.65973389134823 0.6003230204739016 0.17762749011091344 0.35778108907779027
P 8.597574905903743 5.085259982145516 9.221720481558615 -0.37649589187847415 -0.628958424822407 -0.7163353088761791
P 1.037088611008202 0.3797834817985968 2.136976131493809 -0.44104677917666624 -0.8804709351482449 1.0687592474071141
Ni 6.885750690010191 0.30572702129139856 7.231168917953397 -0.1266312015687045 0.2925468025593284 0.02200221530270404
Ni 5.858622617034475 2.6935102458529614 6.141318340001553 0.8390406930279164 0.24241131935551802 0.7659154337971519
Ni 8.216856866607806 2.3571440877867995 7.254897174411327 0.12547857602150003 -0.40592833820697827 0.24678785115665883
Ni 0.37718759227955984 1.1475397034657169 11.213869085592991 -0.2623237420087289 -0.418770227166653 -1.5700582865066186
Ni 6.486043336859991 1.8868650647974552 1.6351783882027917 -1.347514909719621 -0.09412011631487661 -1.4344757892818973
Ni 3.2584469918282934 6.492705436666565 6.825691161432273 -1.5386386345447565 0.11923568043558175 1.7137839816637648
Ni 6.91479371811801 6.7466106390849285 10.133182388983476 0.6508598528811887 -0.28218654237092694 0.09763507144667055
Ni 3.861073519226827 2.589096972520845 1.5001147969493829 1.6894546608897807 -0.14988400144905797 1.3748225963956386
Ni 5.673984617360263 7.913009209695407 12.133580815631474 0.2987830132770274 -0.08640757816196733 -0.5267401048804283
Ni 1.5961552550560634 2.451475693999038 1.676363209678366 0.018481603743955268 1.2281031087174914 -0.6949774120256934
Ni 5.252157229327817 5.290303574234268 7.729434350703614 -2.0183373217656655 0.2945185815737186 0.7210373423375388
Ni 4.196424056483316 6.449574163932819 3.752543720447796 0.9232152680943068 -0.7319311064319073 -0.419068218023046
Ni 4.632050842856371 1.6309193031376379 7.972191018270838 1.563408899510901 -0.9945420406637516 -1.3896704600417487
Ni 1.0550343511864688 3.411442346826808 11.981347642121317 2.513850607421329 -0.9597933243286567 -1.6565897918409598
Ni 7.773701441572216 6.710942781658966 12.727498161646505 -0.6109370485443221 0.45768053107860535 -0.10439527298863956
Ni 2.158306032021373 7.109327032469957 0.29926152331128475 -0.7524857906548073 -0.19774817212018847 1.355730612761194
Ni 2.5854537822769705 9.386852039351623 7.245542281815803 -1.0266006117611932 1.2785319547920044 0.30831460691654644
Ni 4.470660310339363 6.471731469303492 9.85886786710173 -0.1293231465785708 -0.11273233209942521 -0.564371284969641
Ni 3.297720769009702 2.5576965860199317 13.02618199238715 -0.9774100089691554 -0.6159846382705585 -1.3163963339379459
Ni 6.017748967379459 8.952091791834528 9.777222203388302 -1.8244650876611161 -1.1080194784593176 -1.9177609083024845
Ni 8.888005186981921 1.4655687812251144 0.9605676394536771 -2.2083300183101517 0.7192247146088323 -0.021052192684608905
Ni 4.701541668531092 2.057293690758346 10.282797310681536 0.2512841963651156 -0.48344427030627063 0.5605606529742991
Ni 8.01416131529004 3.549054307726507 2.1762918379747003 0.7563110779381684 1.206574490617096 0.7997002435570809
Ni 6.345971523724019 5.2352830156918655 1.9678873795919183 0.361815407048164 -3.5889285979576186 0.19310193159742875
P 8.823312936692355 7.759501385481002 9.17513609807198 -0.8572016802076593 0.46023646473123964 -0.8520854420270163
P 5.2604033248925965 4.444086452089925 3.9279050955521835 -0.14950270685023928 -0.43291155166404155 0.2373498456722106
P 4.724835723798832 7.275702492814262 5.630956770231904 1.0362936706792412 1.7762623027036442 -0.260676436213293
P 4.534020140667614 8.547185205548569 0.2139344671033433 0.646629616849925 0.32971441274856117 -0.3524709897187865
P 6.662388652858889 7.297757304341758 2.593947726589799 0.44642295588691505 2.023275382497232 0.05473852919346056
P 8.15844469361842 6.130576053474282 5.9029111384339235 1.0458077808172634 0.43551865026958536 -0.6830271816423527
P 3.3691869305711277 5.4846784890103955 2.001598536375391 -0.08939391448380088 0.14593273011079383 -1.0846332383248933
P 2.5436549295045383 1.9405718386227562 10.941613758196912 -0.007038137793704009 0.3716110529823471 -0.05385818347103627
Ni 6.823536927201112 8.859688933398457 0.49947672362414003 -0.6728682388314798 -0.5466509848717425 1.7327641223106933
Ni 7.878496737410724 4.803560312981684 11.25130263240825 -0.2967022194885987 -0.4527800084531944 0.5993403448456581
Ni 5.497350455076046 0.6481542925382264 4.696665756882449 0.3365139521688979 -0.5566744305460155 0.6457109616903975
Ni 6.900379356718332 1.1511269879769488 11.02855183126717 0.5306016447183636 0.6127036535264415 0.31036891834241387
Ni 3.715970190153023 4.136996262684258 11.285927847920426 0.26477348910080206 0.7414200197589489 -0.771352031431691
Ni 9.407537160429374 7.821901500732224 6.5283164565976755 0.11052298315293224 -0.5449789964859583 0.5055758120979873
Ni 0.4324746348142241 0.19981454256225015 4.727936628436073 -0.406129655584507 -0.7989399683522885 0.5758386621792921
Ni 9.200825713983454 2.087874126513835 3.500663237313305 -0.09127287667406861 0.3525602069984831 0.6207566057379051
Ni 1.1284292605240633 5.599080253241319 2.4429416839111493 -0.49428224146203903 -0.40073008183549047 -0.8444970881567971
Ni 9.291327777509675 7.7210568766671255 2.88294868443675 -0.5912727373461751 0.5330621904437142 -0.2796321513801894
Ni 8.883225246840983 0.549547761303252 9.052482647703012 -0.5549353363677217 0.38660906905307607 -1.1513801048331396
Ni 7.300533955729672 4.5692221169882234 7.144162826241757 2.2082809102397714 -0.401186966867251 2.271083190277973
Ni 1.3880834357825047 4.446322681395628 9.806268958544962 1.4833768858579741 -1.2808477474093747 1.280092614410905
Ni 8.825362813555918 2.9203850265386393 9.807087977528177 -0.741830110713174 0.04693883064338368 -0.4987477334325604
Ni 5.156195039246836 1.1184128167589351 12.833446047339661 0.4594296525592282 -0.22291335853190639 0.8148759228562548
Ni 0.0939635601390086 6.530609523398231 10.906279471642383 0.5219169724601721 0.3205582001705899 1.2704643472925217
Ni 1.8360094833369258 2.659370478452562 5.734613452648925 -1.7832801287823739 -0.7646105989427994 -0.1188279034742018
Ni 8.314859615930239 2.6922244140021823 12.203049279013136 -0.5947239291195693 -0.7669166213681566 1.3897586488801807
Ni 0.22392948033762505 3.9201658786300295 0.2682357052190768 -2.0325524369237833 0.8421177892913432 1.9412330232824957
Ni 2.809374876754699 0.16634191690471886 0.8369265211413572 0.8951354791389552 0.6901874468362178 1.214217866094967
Ni 3.298270508714021 6.9936301187661485 11.95483714370221 0.7319830427157652 -0.8509937516247343 -0.6241877429066411
Ni 4.795686922301189 4.372284856132644 -0.025786519181387905 0.7491063326596131 0.48319101664488395 0.12894236620038438
Ni 5.131903998413637 6.617487031924793 1.0002290297147414 -2.202053184162504 2.6672117687857098 -1.2125772451677506
Ni 2.0649993642409146 5.518473504392832 5.173098137511319 -1.2301350515458556 -0.722877223759755 -1.000831216106573
P 6.830515826159328 1.9173057362213377 9.015593250018808 -0.6693602256782214 -0.05500155304686011 -1.154095961102406
P 3.2021219661908984 4.876275035905461 8.372445315838725 -0.6258039383538254 -0.336504181976885 0.2928201108253731
P 7.1850420297122195 3.6316829805722333 0.23418072817985194 -1.1843575882004247 -0.45051743767126284 0.24604068857798916
P 3.510460716958916 8.47283989875605 9.35450684596905 1.1898808320114993 -0.33902077775115164 -1.2460854042275251
P 0.9954202049452692 1.9121065030855782 7.771641315324338 -0.6418643342507977 -1.347974108744227 -0.33844973573903
P 9.11176788188383 6.104449441085986 0.5569329085853362 1.349301826416715 0.39549274469595114 1.0356169563271906
P 7.708822838840508 1.1326408257164706 5.264058628045211 -0.25659069617969354 0.27597912800863433 -0.35367272333637156
P 1.476237458537739 8.318158054156152 12.229695814715011 -0.13584809218128216 0.30492486450870715 0.13450546211045866
