# total energy = -340894.3398417191 ev
CRYSTAL
PRIMVEC
9.03507327787360 0.00000000000000 0.00000000000000
0.00000000000000 9.03507327787360 0.00000000000000
0.00000000000000 0.00000000000000 13.22374302137609
PRIMCOORD
 96 1
Ni 6.422807681286913 1.975518761404443 11.350679374250156 0.21738188719071594 -0.03152763829463603 0.2450803815472489
Ni 4.576625993147983 0.37632525608284145 6.073744855163649 0.02909717447627247 -0.7636551770080654 -0.1889614270664939
Ni 2.651965658946584 1.600057258322243 4.795788860943599 0.6508266856504081 -0.3555894807431102 0.1812925976673265
Ni 3.156095639875392 4.308627651045177 4.870344478210269 0.8841869505472514 0.6373954998461667 -0.708740784358373
Ni 4.926436923334563 4.521882484456698 2.617308925056828 1.2629335861331152 -0.29859095187087925 -0.6916552896309959
Ni 7.3199543125808315 6.015587895806648 2.610313971363349 -0.4685850938062511 -0.21244305512820186 -1.0045824556188894
Ni 5.037866481461255 4.589437726985951 11.387744858662622 -0.028374180267318878 -0.3313745740598035 -0.6347740030629198
Ni 5.66358144282555 7.964968190361135 12.479933422754117 -0.503479591690591 -0.597536715978016 -0.45633841522841406
Ni 1.776927851842725 6.5635560520399805 0.41475232603083706 0.9867911930737394 0.060804532881882374 -0.5378066471072351
Ni 2.567054040745446 1.5244065901802837 0.26900665627510323 0.4463692198308442 -0.7580586567568944 1.0412425300440842
Ni 0.6495702652094189 9.13671780228787 4.782128733729479 -0.5196479739203373 -0.03859688643659159 1.3954711258839256
Ni 8.783030825686277 2.3849611748989097 1.322198037297887 -0.3964548514989043 0.19577253645105638 0.5886124169051927
Ni 7.160196147755068 0.7538277822073522 4.852783006376096 -1.7042819557106004 -0.08270518960971564 -0.1553895046483195
Ni 0.6433478102769732 7.412907145955307 2.5305216256534595 0.06733333513933565 0.020650586370816047 -0.5586976316236314
Ni 7.614371208803678 3.8613553859431162 3.8043784071497537 0.1343645656572202 -0.047777010273962875 0.17547573387523327
Ni 7.704776151527724 3.7742934203136023 12.531361059570555 0.1293681408838933 0.34366521850169846 -0.006471466656956596
Ni 8.137438703219352 9.024321491325733 7.017179070114331 0.1835795939292903 -0.5466455855551037 -0.5408374635137588
Ni 6.851512870904472 0.7050221236418159 0.3701850203167749 -0.1483228276095252 0.30545554020119653 0.4730873525519788
Ni 1.6929558812573466 6.6049005471334485 9.116434966397284 1.0707297408699237 -0.03848427211812727 0.11327200665297912
Ni 0.30673441155521547 4.955565999423143 1.4531307044955484 -1.7925885506674932 -1.2442133840157927 -0.5399923419046442
Ni 6.383740024647018 1.8448173920814306 7.028313894361094 0.1886166421325655 0.4639655927563687 0.0053424952588359605
Ni 3.3862189550044617 4.2169397279226875 -0.02980851359536034 -0.7833827373439799 0.6027118324210523 1.3501346067306554
Ni 6.3793128387650695 5.809416559806246 4.77665438286035 -1.166258821717185 -1.060237325979032 1.1305220304372077
Ni 5.309379467049935 2.804775852459657 9.205615656698875 -0.2869667373683897 0.02876190262404079 0.19569591757685006
P 0.12742254124840155 5.5887710364938386 12.522911459087291 0.03711156014031673 -0.6049720892101387 -0.7630609950674923
P 3.945074374478097 6.203156016029635 12.472858960416227 -0.3357747600100282 -0.2953264221869946 0.7905126635205418
P 2.3326390658328537 8.481711133516882 1.2655625842725609 0.4483751945172794 -0.05445082274971267 0.5510252026800382
P 6.484526266510574 8.03957982508182 5.969488241673038 -0.7570847228793993 -0.22803242492602663 -1.5997545280194705
P 4.732345480240622 0.9982671708669293 12.669773863894065 0.6248359180136013 0.23909639604967206 0.49147048304485685
P 3.9736161708068263 6.09057900360293 8.213240257084228 0.2693251130272265 0.8147039160547646 0.32658280909811493
P 4.689537303284142 0.8777663992188568 3.8675218234215456 0.4374186955057757 0.7447740238328463 -0.5709566514966424
P 0.15272616733204794 5.577188072614943 3.668662572184942 0.23896552689876266 -0.9918966326211045 -0.8497305686415946
Ni 1.4068783576243769 0.7017125763182283 2.7700703291744673 0.41261757730169585 1.6923157844876597 -1.5553186663035987
Ni 1.738501685402052 6.671985965854821 4.589669928367922 0.8879597873261224 -0.34639675850024865 1.4142820879428415
Ni 6.0462800395637535 5.601393033794007 9.114980319607499 -0.6994799278817373 0.8164998316129228 0.4500764934791023
Ni 8.761689982720636 2.264731455447691 10.214746599615712 0.015222216266393139 1.5306504741329574 0.5879722122180325
Ni 2.3496430736488296 5.170483286308702 7.156306548730212 -0.37889884489301195 0.07352506577234434 -0.7082815853337673
Ni 0.38263535122560327 9.078983684357963 9.059956723646133 2.1397399279455795 0.07587505406175965 0.6370805397089093
Ni 1.208386833868172 0.8256367372125671 11.49578355380667 1.3429530013805515 0.6191360394153467 -0.28593778188324304
Ni 4.105239117599143 6.81071951527794 1.4764710091666486 -0.3030988670435618 0.359778064903161 -0.052027043799568455
Ni 5.650751638841126 7.7454610862755136 7.947866603754291 -0.9203875688375245 0.7835614290136893 0.983404021769061
Ni 5.021196771354732 2.804893308411627 4.964259546883575 0.8570646404091625 -0.09225555230231208 -0.11664400844900556
Ni 0.8807678505453538 7.305913808783793 6.925723348373814 0.05221859098508426 0.6101544047420265 -0.46057507901758094
Ni 4.9252533287416345 4.497081208444555 7.096124829462712 1.0771934942173964 -0.14268336993556072 -0.29318880701870154
Ni 8.27430199248418 7.167406136191384 9.30292971992073 -0.8891059851154236 -0.6340450953166952 -0.7465575980958304
Ni 4.685381169599047 0.4189382754575861 10.45805027957047 0.02422879064037763 -1.201724875834279 -0.32399319399406784
Ni 8.300160372064054 7.230299280934747 4.687843227053805 -0.5176358285863151 1.0420873945428828 0.10781381175188529
Ni 7.523333810953638 6.501485098960408 6.933062538357298 -0.12764627309678017 -1.5575748093276272 0.8013007552749812
Ni 2.277407663187231 5.314330687179135 2.4795050846689173 1.5588986703453733 -0.7892456238826602 1.0503828017824557
Ni 2.0913212949737123 5.263689101733574 11.092922287651819 2.1630379792415715 0.21248804943352434 2.709457307718482
Ni 1.054239449517286 3.3324060588557085 3.8685400761743938 0.609785451438382 0.5557472907460558 -1.019417720859509
Ni 3.785108402968078 2.5171804365243045 2.5937581031795047 -1.082421061164923 -0.47876691943525934 -0.13366933936240852
Ni 1.0467132335179725 3.504072450196593 8.378311948475654 -0.25521901264314756 -0.5278454221294651 -0.6856939298412384
Ni 3.5612554286595643 2.6283299073809134 7.055355868533898 0.15532908372402926 -0.5147831896288683 0.4646567052861224
Ni 4.14275274164374 6.585827507548153 5.907535648052758 -0.11106985679533773 1.0785258398755748 0.1482734624288285
Ni 0.9621449480995158 7.364587574329462 11.45427371687312 -1.0136407091664157 -0.29358527112617183 0.3879506706826351
P 0.09713697578657812 5.511503090243983 8.014950215461017 0.22855075932334187 0.15135750067079093 0.10421606709829793
P 8.628187740696799 1.8109268324014485 8.070992064175234 -0.7646702485361411 0.3274713823506554 -0.5719012747980989
P 1.7924139673563184 3.21453449351712 10.485793375425803 0.07541842614031528 -0.8839208413700584 0.2301150184866682
P 4.101778684552639 6.006236595015185 3.7860634102083273 -0.536952783747372 1.0278635376340168 0.20925128766378154
P 6.899516214967321 3.9715652091839644 10.421420285687617 0.07317796684557074 0.12713848022242621 0.025411240984253014
P 6.3717053071067 7.804704061434577 10.280746002535022 -1.3112474427471548 0.30355883739911593 -1.1541939201328508
P 2.4824767202537603 8.519911423126844 5.853212270266598 -0.41374063516254556 -0.20193932738340062 -0.6494742853875718
P 6.948296575327817 3.9862562382534525 1.485383205399209 -0.057416590246255964 0.15972181347508624 0.6465902789715574
Ni 5.391526352843162 2.997665630814212 0.248849407902392 0.11500287330115679 -0.5809615852281543 0.5695003786660902
Ni 1.492259799633396 1.1786162675803713 7.116066139585263 -0.10529284510224447 0.5309348596880663 -0.8268536640434211
Ni 7.111966926861508 0.7525655824773354 9.249161999138119 -2.08714312768547 -0.5648950186835949 -0.19164334477403125
Ni 2.709320303800897 1.5342819252189985 9.22418182867605 -0.09988144427868605 0.005722504306074016 0.7766060807417786
Ni 6.280243260814922 2.124010189914308 2.7056972394362813 0.4026388688224291 -0.3681619180914821 -0.540729734291301
Ni 4.010940058313626 6.767098181730899 10.394483118364263 0.3925863696824336 0.8891926312919589 -0.8432267060848059
Ni 7.947819621373503 7.1525344056573275 0.2868346627695155 0.8396549295731475 0.22801031343883957 -0.002122188549325378
Ni 7.379667111547774 3.843285239486181 8.265262401719099 1.4945737830150583 -0.3409622177482386 -0.9089438457769573
Ni 3.192642511084543 8.39758556668662 12.333481210271918 -0.11606011092107753 -0.4948532834741607 0.2700673905098897
Ni 0.12595253483412988 5.026093781044561 10.183511447957578 -2.312323170764366 -1.4550867806640295 -0.1743706737365126
Ni 8.669731007401293 2.4280584741987 5.770127543872255 -0.020707921971312722 0.39305996688474243 0.8750055411582995
Ni 3.6996546803732313 2.4804709339970406 11.543163477816753 -0.46746306438666585 0.6922006206115047 -1.3118393106948827
Ni 1.1030378800242397 3.3619688184592547 12.62821162353579 -0.15209052218207353 0.15480457867912695 -0.429713356441718
Ni 2.997042210761448 8.435605154832013 7.992536005795834 0.8069227294474489 -0.7840471104008562 0.2423884365373826
Ni 5.588906562592266 7.766088158456106 3.600931145727735 0.8868128182058727 0.6764130187599448 0.46934485479041105
Ni 3.26052301625002 8.1271387197389 3.6138765986494827 -0.6103564934505037 0.8589898824563335 -0.30503850726843595
Ni 3.3402123621251048 4.2363561002906645 9.352161833942649 0.8820737608589905 -0.11026021640984882 -0.6703842960673616
Ni 7.220947980143284 6.159110034040856 11.280579855099768 0.21913075156102263 -1.3708299302964777 1.123398274908233
Ni 0.28315377393623786 0.03459258486983394 0.5704645850648935 0.5852013343411147 -0.11389652761085546 -0.21926136360161594
Ni 4.721900935588513 0.2645848914370912 1.6439622931686584 -0.46853932816998023 -0.015243299312315684 -0.22057648286861367
Ni 5.980947425048703 5.602992241755446 0.22014317324090468 -0.3403076148833752 -0.16803084756141384 0.7156118004465933
Ni 8.0761357313642 8.667065660798896 11.255732500214158 -0.5744744348419139 0.62578902595549 1.0227398432542065
Ni 0.20225463175586167 4.97474745988718 5.7828751286903 -0.5202215870356202 -0.4906533864602002 0.3507887169203571
Ni 7.75639352488196 8.90512177022256 2.670296919019822 0.025692519670097686 -0.0256215572228462 -0.554162205647123
P 8.578404487207942 1.8241270743882396 3.54959657016555 -0.7452640760953875 -1.3545170520690673 -0.23344819662495922
P 1.900997477416042 3.1273641070088645 1.587390989163254 0.17227162511563882 1.1292627041088101 0.11707466822852096
P 4.706595521539489 0.8985506816736236 8.290348282537938 0.3509787214439762 0.8009189464555304 -0.49677595441817024
P 8.44446856166914 1.539504197545053 12.368404478821914 -0.576707952158123 0.6682014294834299 0.735509824922101
P 6.227207380963817 7.576261269926001 1.4614745946220382 0.16907522966552815 0.6814816915321037 0.08587356003536824
P 1.7449798329068633 3.30863478119161 6.063469266380912 -0.6600862565754632 -1.1515461980973587 0.3988014973542099
P 6.7659868677237975 3.861662578432884 6.002362355614818 -0.03767231773979318 0.2711621662359653 -0.621976079967303
P 2.3098706812971153 8.419332987947541 10.210924763640069 0.8448030494329902 1.0250885459920411 -0.6500756664169965
