# total energy = -381174.05198263325 ev
CRYSTAL
PRIMVEC
9.15861693656427 0.00000000000000 0.00000000000000
0.00000000000000 9.15861693656427 0.00000000000000
0.00000000000000 0.00000000000000 13.40456165385159
PRIMCOORD
 96 1
Ni 0.9288211487584439 1.1873231151707802 2.126955095502408 0.8439628129198821 0.43131772481436037 -0.7528336609125292
Ni 5.897938736025405 2.4517892618062587 5.694847318665018 0.6296053143777866 3.115083027083377 -0.6448005340609864
Ni 7.501685851509244 5.539543733380673 8.544778149416672 -0.41025087684173217 -1.406580605533526 0.11886878401446624
Ni 1.6563908463230992 7.02807544629703 5.606820186690685 0.434897985966451 1.1613953229772964 1.51442835584714
Ni 1.3572337787981197 3.545822703642191 1.479595650254585 0.32721761446863645 0.1457568666545619 -1.0369081643347884
Ni 0.08316665390258642 5.126288614569072 3.134428615816418 -1.4293155852371966 -1.9370824914492315 -1.4870720753213744
Ni 5.826474047135575 7.721446867773691 5.75975260601917 -1.047346586059293 1.142664579337013 0.02341169405572097
Ni 1.9548335417176923 5.868832651020678 3.837484358968345 1.259933880074843 -1.315406973441483 -0.08642840409757374
Ni 1.4632081367558571 1.881482177714277 11.135813193222571 -2.833705096656675 -0.4082726700694388 0.6711543414641666
Ni 1.5880309286153338 2.899609001388104 3.6225160470094284 0.46791249321925865 1.140741651282687 1.4962318874437717
Ni 8.766820577189828 7.361797134592255 10.001317897093882 -0.4885034299967329 2.0514479882767054 -0.0029994489479561247
Ni 3.067733734689477 8.313588094927745 1.3726541423357088 0.6804604493564411 0.5329503474561982 0.27868958496126195
Ni 8.916921152124523 7.10789279394215 4.235586545860399 -1.5272327067006601 0.5209947177562189 0.42685866060174227
Ni 1.030362736060962 0.7883902417117252 4.438692617008076 -1.4778698399968162 0.1620319496655016 0.611008782322522
Ni 7.184816018597499 4.073093446186907 4.021234608829367 -0.3993524847616735 -0.05504320491807295 0.4077214255516592
Ni 8.347823005483965 2.2328616796939293 6.097252223850092 1.771053504809195 1.0120767071134054 -0.5878883942549746
Ni 5.943035766410323 1.8922618699894698 0.9399278036625445 0.6163438213821902 -2.6843746537182414 -0.7579403860114753
Ni 0.1430273749821623 4.809904188361308 5.6660544583636145 0.21390884104045094 -0.0662789257328923 -1.7414279686332783
Ni 8.192016612123233 0.49451403278137274 8.971780352429686 -0.671297037689618 -0.35075657813084105 -0.32086930365310545
Ni 4.3029197825961605 9.122852656634048 10.997249728193621 -1.025083918006351 1.1297257597881576 -1.3347653233634367
Ni 3.0323448383841707 6.673462952496526 13.034904643950878 -0.34503973025172185 1.0015912342010493 -0.31354885873229227
Ni 2.2384209602470664 8.420743914485737 7.8277143014772275 0.6734187120183113 0.5647389527217048 0.45226758759315017
Ni 4.129025120549357 1.3590746608264237 6.7736600548151875 -0.15750912209448356 0.14728230216015278 1.8008921854371824
Ni 3.345248990110565 1.0462071435682547 3.2296278608074913 -1.035091422841024 -2.5650361291562085 1.2511432783664065
P 5.430840107540176 5.521830967993908 3.2399093243148243 -0.2327971933045217 0.31466497461460646 0.9141307892945354
Ni 1.6104237473178373 8.060755312473221 3.2292798333593535 -0.8278247697074388 0.9091927285629696 -1.2501240930732727
P 8.268197988797025 7.882812541687559 6.163403998985599 -1.0203312338127137 -0.3550017265604402 -0.5870479006315503
Ni 6.989279544446803 5.646067608361785 1.8463304895907273 1.7920177657656877 1.087715733904959 -0.31213783731737854
P 0.22721338296310808 5.5472094958567455 9.404010294058404 1.3259999184659808 -1.5508927693217613 -0.19491584487771593
P 5.464177473624885 6.3790866830749025 10.785618816289995 0.3626479302517883 1.0590636173859052 -1.4236131355357806
P 5.61978237741038 2.085517848493162 10.27377851176163 -0.3948137163510555 -0.31945802512787563 0.5571089469802729
Ni 4.169671063044944 2.7840547299895406 12.831637381143013 0.5282336587068194 -0.8003574175251054 -0.5792541156187444
Ni 2.592566364577703 7.406014937739775 10.091061353904553 -0.14118261702031815 0.2451382313683778 -0.2678374727381065
Ni 4.333344708456985 7.534290528229453 8.480785060321322 0.3459108200027656 0.5159293874181695 0.14666600873239258
Ni 0.3235739405969119 3.9480966406033624 7.737273873908576 0.08000707395226221 0.7504247943607205 1.2633362208881727
Ni 1.9942247536765747 4.0036894461347305 12.499472657747349 -1.5104721994128696 -0.49344663293462115 -0.7229278744920323
Ni 1.7241371366880966 2.3312527027291012 6.479323167446907 -0.28970959022084947 -2.088908961336641 -0.024238046611758258
Ni 5.723228957060596 3.8618224679335937 1.5620470161650792 -1.94532904772874 1.693645816152993 0.25634515582779077
Ni 5.315285836141613 0.4764715571805826 8.650164524159399 -0.15143669064815854 1.3077851952301671 0.5053680669625554
Ni 6.484245924114635 7.523629897975992 3.4308435933947603 -0.11288839806131526 -0.22538650266274735 -0.1586746031574945
Ni 3.5889689485941316 4.348538854153285 3.286021129469575 0.35779651569675797 0.772777708134624 -0.7519898248549952
Ni 8.267465299432526 9.162188916890594 2.6129113165064313 -0.43592771278254605 -0.9239583169079183 -1.227690189549789
Ni 7.197903682370863 2.5229333990991205 8.764706768373248 -0.6732827006610792 1.17151569924075 -1.9166432497582733
Ni 8.2804888528865 6.850645558066518 12.153527879128868 -1.0845923577846288 0.4036457128203887 0.9917863322954854
Ni 5.246880125348567 9.08496345787239 2.0596649042668114 0.007528961387193485 -0.11241660063121929 -0.022277323340961632
Ni 7.633597412970249 0.3018368788756351 4.7607242464927175 -0.5844233185245096 -0.09863574479704303 -0.283938234954711
Ni 2.766296171517494 9.181330426538134 5.603683360348923 0.8029130940674236 -0.7535057472788894 -0.7416475623887226
Ni 9.553353451362547 6.928713609853896 7.683173007095669 -1.5646952224224924 0.022950438148586282 0.034749230555727255
Ni 6.754910533977656 0.8356954146689035 6.843672187039898 -0.13728739573097 -2.497319699645841 2.0611824419556504
Ni 5.286069847732212 7.966000260409376 12.537153040040124 0.42679258325049724 -1.7458258405906577 1.0208405693489644
Ni 5.463353198089823 5.862888708551179 7.4579635295444655 -0.3214236334946787 0.08981017608561308 0.22231737681912034
Ni 6.627486694874207 8.57389430890016 10.200657029046328 -0.8641598566930473 -1.4842752293025276 2.227583724333441
Ni 6.223261972480058 5.697942015368321 12.613209859521954 0.7684042616572766 0.4367160130117962 1.313859683559021
Ni 3.9862972323449335 5.287874095292291 9.475121460329861 0.3379131465092697 -0.30070259889724343 -0.9049316392937705
Ni 1.7714505524006257 5.891582655788375 1.464542547260951 0.5227027015862611 0.8109462487845452 0.08426842033177745
Ni 6.292253834764703 0.9537783802366941 12.196113616716966 -0.12619462825191813 0.3416620720287406 -0.6791095917555013
P 5.105113891935049 0.6150579187521747 4.952221770521612 -0.39432752074325633 -1.07676026333472 -0.9958756718735108
Ni 4.871898867214987 3.634487275363638 7.6392061500554895 -0.20911244809307214 -0.6680816160761138 0.32593514821178704
P 8.655112924954885 2.4069028796136327 3.895673632435158 -0.32139200892579484 -0.37090477094394186 -0.9095650243007238
Ni 4.064420235834649 5.100131604256455 11.754755281468297 -0.6051232700760224 -1.2349887800937311 0.4657764207128624
P 0.002664241701659827 3.0534279748476325 12.977679772860089 -0.01924933514791524 -0.30055913134084367 0.19233240042125585
P 0.9083250796482873 9.078918770615273 9.610400645282448 2.1557190769826553 -0.32287862077365037 0.9322928049155428
P 2.648864383622402 3.5076679049859014 8.045646341915544 0.5367473526047852 0.21779583479968295 0.5826536282185965
Ni 1.789960117471284 1.440870269755691 -0.03831507445477444 0.39537498817116423 0.5003958105589446 1.0554699864973756
Ni 3.7064740054256737 2.712141268863955 4.8811371642396155 -0.15628424854844697 -0.5934471192896746 0.29821531369901544
Ni 8.140700880757128 3.3414573226492816 1.5788027060694678 -0.8843766979605544 -0.8727717667317743 0.8442860005872556
Ni 7.98507765973752 2.2970177921728814 10.888753087098594 0.8294193678880684 -1.196384437457972 0.4820818427411052
Ni 7.3400637363178 5.900979396888076 6.002428482158325 -0.45545318440998334 0.09982128046471196 -0.646213612358429
Ni 1.7218383238069808 4.219017691743958 10.111208479704866 -1.1513641639935397 1.5380272262130028 -1.85710061430795
Ni 2.4128010289978503 5.950957970163969 7.658777198842966 0.5642183043315444 -1.6769159049928217 1.4817753456988094
Ni 3.733336229251622 7.548403957113117 3.745047352881434 1.868707602419259 -0.2852574679867668 0.5323510233093026
Ni 3.2455757606875197 2.8699717165941157 10.50200483777116 5.359888257501428 0.9114858954725206 0.6490233138930822
Ni 0.9125691827921484 8.180476754632371 0.5757216584956298 -1.6967123708934586 -0.5217675913665014 0.8243622650801351
Ni 7.128572951255137 7.772112337328803 8.019466435060284 -0.8999562975663663 -0.04027375991838225 -0.6301377898424889
Ni 1.7557893172344574 8.77964264106856 11.962753885847416 2.037694386136039 -1.005379754709204 -1.8050859118035558
Ni 6.504358247170135 4.2378844428798095 10.422890871915959 -1.3875426150654684 0.4812012399083648 -0.4981723205450646
Ni 6.970403634693895 8.04227322325373 0.6638531987044032 0.993416668810057 -0.09931785846573218 0.5553659961472371
Ni 2.8708967369167957 1.0481396117671211 9.465027748472181 0.980784581868343 -2.5447902344229787 -2.0019884480939973
Ni 8.716796210828653 -0.01864786018820754 11.873318158569834 -0.8210265158386828 -0.33793474377582444 -1.6829256015220113
Ni 6.942790404269336 3.53978717500213 12.604430409211844 0.014940680470232332 -1.17365485707094 1.8576531443773103
Ni 4.9523664766711 4.992975784698462 5.322468939498822 -0.14236223915071614 -0.1369043013599384 -0.5684192297867695
Ni 4.742276960018041 6.359459766723383 1.3053868476427526 -0.3021966669442666 -0.04370643974901505 0.19027731766444006
Ni 8.787592320673378 4.5287712792030055 11.2543092124196 -0.7945217846799348 -0.23137485903569827 0.6603690779232047
Ni -0.31167140187062414 5.335599648772351 0.4174232054338951 0.42417854266641786 -0.34609799631290716 -0.9513968727348453
Ni 5.4101599502271895 2.167606533168229 3.2964628687753925 1.1584272414879082 -0.39229146414983407 0.023602984130920643
Ni 0.821203734900817 1.9572605752375956 8.824839500379394 -0.12476946576961738 0.9305004889018105 -0.5729304873935617
Ni 0.40770957618404835 0.20072208312793774 6.800053357447856 -0.01760254357311162 0.9451532058179786 0.28506334969808966
Ni 8.258682185675594 1.1154004954281378 0.24820035394747897 0.13825644451245866 1.0675551997966841 1.3800956718691197
P 8.744336172316762 6.974451743432753 1.9648805446283861 0.017115062413731813 0.9053304173940859 -0.05111018841225392
Ni 1.2305884221444516 6.214478858723125 11.527668287420566 0.6822226834631864 0.25031643313520757 0.5664608205088181
P 3.76411834117764 6.715903983935136 6.288749747878987 0.7722809710038635 0.8554510160651396 -1.0514336116444731
Ni 2.3931924298804437 4.316657708180519 5.794363019874695 1.121674607348907 2.0610158344707985 -0.19783790362051734
P 7.355779923186306 3.914566943560472 6.894623405447165 -1.0915880723761715 0.8749250656293512 0.413263695526127
P 3.83558303006747 0.34234544211537865 13.14403048203767 -0.09097308604546267 0.9378924104905072 0.06130178423327507
P 3.3651140305055462 4.545760513842328 0.5436271167454526 1.2174340590394195 0.8351791531899809 1.515986958583512
Ni 3.568352901600538 2.5870528771098473 1.7311187504700674 -0.013779827392911751 0.40593682284741056 -1.2915417367881112
