# total energy = -381163.8940828342 ev
CRYSTAL
PRIMVEC
9.31339768279559 0.00000000000000 0.00000000000000

0.00000000000000 9.31339768279559 0.00000000000000

0.00000000000000 0.00000000000000 13.63109892144622

PRIMCOORD
 96 1
Ni 2.501820766649439 8.427609744976948 5.695809523921825 0.1644115056412717 1.0154222265468706 -0.061825775057545135
Ni 0.08846610193447281 9.393027235652141 10.659941761559523 0.6754303431317014 -1.4044417048136522 1.5339839093815646
Ni 6.873212984674428 2.8744591214416437 11.223124782277715 1.2198259563103637 2.1307132989669366 1.4577525004216507
Ni 5.252476892658507 0.8818930775526149 11.880715852653692 -1.1278156872496383 0.4029581998350608 0.26965215734934206
Ni 0.2732327359364119 7.7002706393347 5.186701021505076 -0.19420004975761393 0.3396247298837377 -0.7493163917878901
Ni 7.1110864749582925 9.30484798636638 5.800495839265263 -0.6220246738170513 -1.4513789927951393 -1.404503154179207
Ni 2.1119526261391677 3.8014402198690185 11.745454584048717 1.0384842505726568 1.9182761573760059 0.5221787107619911
Ni 6.079115444422934 -0.5172875282641038 10.300394318553977 0.04356091531008627 0.8169052945814576 0.3888675260699496
Ni 7.062349464870376 8.942771024549465 2.8038216566964116 -1.8231286282378796 2.1228449519624535 -2.026893438865793
Ni 8.201014779290155 6.026466807307132 5.960539127771429 -0.45491196719453264 -1.8479834824980303 0.5799650256428399
Ni 8.122391076029656 6.719951712362801 8.426909377471002 0.510201740905773 -1.775539822715323 -1.1139682398435846
Ni 4.711126338794528 8.230016699682619 1.9751322947616505 0.03977496590509279 -0.16518386503092197 0.18176619486963533
Ni 4.551680970419768 0.8029471307322005 6.0711683221779476 0.7151605718417877 -0.5651858104511363 0.26637271526712186
Ni 8.908721242611492 3.849869887833315 9.721004123183578 -0.9107274200399412 -0.12183352306974503 0.5530396620069056
Ni 5.0103937466208235 0.9569050451906987 3.383347827673016 0.9779838791947544 -1.3431507192136547 -0.15145134593617787
Ni 4.287981428354174 5.299146328460255 12.876889907845285 0.23923112185532347 -1.1713652897058149 0.015972721279172493
Ni 3.476002164546632 7.096185038661585 0.2797083413470995 -0.24434530315343725 1.2386705998206926 0.866404943973482
Ni 6.036283128467588 5.227563553849951 4.607829582385758 0.8067440377777396 -0.7354743436984752 -0.4849154555351584
Ni 1.0052974595642532 4.101275744954126 5.477016391476124 -0.7509007055558745 -0.3513368761143433 1.1789760121735373
Ni 3.161851947219001 2.8182900200007452 1.5863463710624275 -0.6337453046880892 -0.5855147518164755 -0.349570785352856
Ni 4.654482254071672 0.9274626010877121 0.5499859361979208 -0.723640841398657 0.6536710970777387 0.9746864393904052
Ni 0.9514008271586026 2.127710895022935 0.5069785283660885 1.162915616276565 -0.10838022577831657 2.1231167175666017
Ni 0.5382892400447746 2.7149951262715124 7.584833869042956 -0.9881572201833303 0.5986425474476852 -1.2700054053782321
Ni 2.3472835588549064 0.8727612911220393 10.535776474956984 -0.1731648263538695 0.19031254177774964 0.9115784551863269
P 1.1632619977070286 3.9160602051837485 2.184178956529536 -0.12384181174902543 -0.28370786411145976 0.3358362093755829
Ni 8.393541336243603 0.6989472127981796 0.5395083638017989 0.0538782380756943 -0.6781035190884902 0.956486371442611
P 7.010613540727748 5.193234369981414 9.404668051419174 0.2562718793876941 -0.710692508768105 1.1902251027247954
Ni 6.105369912498194 5.434833219339454 7.497404348270873 1.1561973237161252 -1.0027731703242926 0.10304364405675157
P 2.7485233579391024 0.8871504905460467 3.108762786392678 -0.3001901780371991 0.26508562102458216 -0.8040166115442474
P 0.5733867792223614 8.637729310158196 7.038826616336257 0.3006082394112242 1.4449160107786145 0.7019559002260557
P 5.455434455019651 0.7949562355180915 8.198110861891832 0.18747455810832228 -0.1802109345673735 -0.240073929471593
Ni 3.5324320411227226 7.178971830687477 3.802081912969545 1.524402950561349 0.31574175261855303 0.033772211354438614
Ni 8.327434839472339 4.820074464918823 11.868298299519692 0.3585225952295051 -0.55724727233035 -0.191462853332109
Ni 5.205155519018779 6.62122969689712 9.741887554813644 -0.5593743459756817 -0.03762320966941262 -1.1358398431056953
Ni 2.3835033624535886 4.356425587944484 7.661154369055844 0.31909087159644406 1.0044449015997605 -0.6939790526681661
Ni 0.3223366938931343 1.0437245384143854 5.681550712065414 0.07125246768808374 -0.8088873093729876 0.8208293122262121
Ni 1.2143180438186194 5.507263513139134 10.067957058499104 1.2128850062161565 -4.7069884913720745 0.47034732791299644
Ni 0.5685996928120444 5.82469204645204 3.5219758895412774 0.6391037407865251 0.5739298751923535 -0.2659554252240452
Ni 7.418493792361664 7.466299462681035 4.318877693835858 -1.3091177979986617 -2.64373888247475 1.9889562975003874
Ni 6.596130090134855 6.6936320505037425 1.9170912003859786 0.8046660722027885 0.07273316599866828 0.6196029517494361
Ni 1.1009926207821659 2.304609570660213 3.894091762723329 0.8145609627189973 0.43629666608619055 -1.2927501552739156
Ni 2.2875194859074277 -0.024351740928124192 0.7452198978585277 -0.010064326214537506 0.2819913956409853 1.7909330173419413
Ni 7.814434268162843 8.59770032690617 9.211282799199127 1.8871493540642146 2.4713857533888985 -1.192165771390934
Ni 7.76154348270722 1.9337128212351862 9.4583877292688 0.22613417946204922 -1.8883204915541805 -0.3062572101668855
Ni 3.5905755828729347 4.634560896422513 9.755300710160217 0.5561823214009453 0.016096648451546472 0.4283789539010106
Ni 1.34824470253527 6.708831515526384 7.208125559462214 1.289551702941276 0.5274939523273173 -0.4574565879932573
Ni 0.216008426537753 5.022417343032728 7.890197826994142 -1.6737259373006144 -1.4868483893463424 -0.568434399295421
Ni 2.7126388366570957 6.554247740743424 11.528283845479821 0.02436814443171932 0.4363681427540743 -0.008948981663171684
Ni 4.620628053485092 3.24208686827908 11.817344700782641 -0.9316793397012599 0.35979426285307714 0.33319414376704554
Ni 3.9026954795051396 2.7757091657829065 3.7970927258294545 -0.7398423908591838 1.3671406543703488 2.075604788028567
Ni 6.351122537223943 2.5045682189666447 -0.20511640794462904 -0.49603573381803595 -0.24320964688709726 1.1442725472540811
Ni 2.364494717777603 5.913988903460054 5.3459806114010355 0.37211678897417205 1.3136511670926407 -0.9215391659434645
Ni 7.9364118376490715 1.000352045393284 11.99955201310062 -1.5605894277842347 -1.0021517346902096 -0.10924000267545057
Ni 0.8797109484749158 8.146540716228007 12.76433842815649 0.09835626588341126 -0.17897834771185306 -0.664014902205908
Ni 4.9523526522451515 6.626100603886606 5.977291136188232 -1.4124882292672125 0.6998277981394592 -1.5918787248158197
Ni 8.133520586263758 7.122774789053522 13.784312871133231 0.29789238314195793 0.6260384229621347 -0.8759226536559303
P 3.228982917735664 4.080702449466985 5.5202538402307875 1.9029464689974709 -0.8856648206443586 0.166869480263461
Ni 4.574899270849574 3.7351381417463596 7.501656845654046 0.166465559956823 -0.8772915089789988 -0.502222065134406
P 3.0576257137212237 6.666651137409019 9.036736687817193 0.47902737218549757 -0.7873671759130246 0.3037706962996059
Ni 1.894000493504463 2.9726502732392546 9.43807707159639 0.08452193110348023 -0.7474880803298998 0.787018020103722
P 6.626342752226428 1.524938483423468 1.743758624722456 -0.6442991689445355 0.19130318782579311 0.3054321431624288
P 8.73871448126144 7.669108010679212 2.713120339317433 1.9518642777440964 -1.6061511755744338 -1.385578292250246
P 5.316618262518143 8.406486959026367 4.671650571365015 0.024586173979796365 0.010166913230672814 -0.4100259053151196
Ni 7.595345901010514 1.5043372477432715 7.202999465376147 0.0020923637526544608 1.8584334741867605 0.8539996283305938
Ni 0.49293765001551665 0.760261035120516 8.651522452130335 0.15406204408614754 -0.5268408921243507 -1.2268052158416742
Ni 7.930730665060953 1.541823673427174 4.097576463393469 -1.3267308830947344 1.4098991283837976 0.42124722795223585
Ni 1.106543405802689 7.4123469498892725 9.384261465750603 0.43611437487205534 5.455508869621231 -1.5721470507148472
Ni 2.2259206736159167 5.129465536029194 0.649175484227411 0.5356705746008387 -2.1175579925319012 -0.47498868333974975
Ni 3.3846004796617084 4.952455099619692 2.955889882764534 -0.828404810580625 -0.11945448131460717 0.4511339882093392
Ni 6.076507693071011 7.797800539896644 7.595684908686264 1.4923477218980168 1.6430663034332285 0.5835982515200531
Ni 3.8664756759064574 7.96800288259809 7.493314835347196 -0.8529886705675762 -0.931831549008408 0.539020207799362
Ni 8.486209643213746 4.081522028463304 4.094782444087836 -1.7122225507139157 -0.634976605992029 -0.42419834016075975
Ni 5.340432620399818 2.3520892720605944 9.828635334875152 -1.7684548908440834 -0.9166905796019115 -2.486150827513215
Ni 5.992007235870999 2.7713225554730636 5.4619407946427 0.7256959241554728 0.36644930627574956 -0.030343645288863873
Ni 4.981158991286223 7.5853526252940355 11.971308203279749 -0.23629595048639948 -0.10141870685881887 0.3345923096661528
Ni 8.79849718100429 5.2223573645437895 1.2462341263468595 -0.1856367335686351 -1.4196047857073357 0.6401476086700072
Ni 6.34358799849642 8.763385671730175 0.0038045229545028997 0.616017805501339 -0.2514803715363217 0.25901756045363133
Ni 2.5825120441961054 2.1691182611324082 6.196997912946874 -0.5100125077131022 -0.10106260907098077 -0.22077162959855526
Ni 5.909090056277512 3.920167413563028 2.447355085645208 0.12725469408531634 -0.576694068201052 0.009196836007919646
Ni 2.6781420116302197 1.7967220546800255 12.882942685001053 1.7432776202475073 -0.5608211057245374 -1.510475027626347
Ni 6.5040578406165785 4.9536099609326865 13.7468273767891 0.3327300596464334 -0.4338911419684915 0.6979984582402043
Ni 6.202266502017529 5.425491881460957 11.489898676919273 -0.529476529974985 -0.10983881260171408 -0.7013804873385597
Ni 8.595986661732047 2.972240483741095 13.15620522381006 -1.521694036270618 1.3173599834027958 -0.164040238344782
Ni 8.429900840807566 2.8355011789234412 1.9386424026300904 -0.32955911811761956 -0.01889066625691585 0.5887787672797279
Ni 2.7945687960959256 0.5256677235014642 8.023782684015737 -0.815026589501506 1.7628640270198672 -0.6455716078990559
Ni 1.6113202469559391 8.295769287341837 3.2964491705690033 1.118498009393138 -0.07067936879343312 0.07520091081287049
Ni 3.959786607316897 8.908795749792974 9.729292115783853 -0.11310437072686326 -1.1276822469955674 0.3238530688717777
Ni 0.022039224282829034 0.449320214635288 2.7749510552113112 0.4878948498784565 0.8022939724261859 -1.0614465157957849
P 0.5625571603937298 5.612551473973051 12.981891016030492 1.002226296681887 1.3887813725685758 -0.10489818076698708
Ni 1.1765056492157264 6.98566294832845 1.2650956193394156 -0.8499159451795233 1.6136078889627952 0.6280423407660409
P 8.114176659271097 3.6431683396026235 6.21216850643669 -0.24672228802604607 -0.2967140465631406 0.05462797175752527
Ni 8.991172752320706 6.852956344708593 10.91442103991653 -1.4385419889314708 0.8149252880369514 1.530861047481867
P 3.0874285863146373 8.715570688013118 12.448969087071836 0.07149877937093493 1.066425457067615 -0.9810108389465364
P 7.351828491729273 7.851892753653689 11.793981111348941 -0.9018391164113759 0.7369195607854341 0.8352868824124389
P 4.80046976279097 5.677465855840579 1.5717606589472575 -0.3264622243598507 -0.15715610963043902 -1.3282794585287772
Ni 0.5770106222617667 2.274219954012617 11.456924592413968 -0.5980838467307377 -0.6654835163316345 -1.0447253463863622
