# total energy = -340884.7829545853 ev
CRYSTAL
PRIMVEC
9.13653425803470 0.00000000000000 0.00000000000000

0.00000000000000 9.13653425803470 0.00000000000000

0.00000000000000 0.00000000000000 13.37224142167296

PRIMCOORD
 96 1
Ni 6.92210308921494 2.3765312584985074 11.590871030223699 -2.051670131589841 -0.6652575163637575 0.767963317465116
Ni 4.989525152471597 0.5988321908680623 6.09716726507859 -1.2544144929185106 -0.35236326049632866 0.0058307477491641516
Ni 2.9196068372091113 2.19201895513275 4.756599269293766 0.39594962972771164 -0.3988045826780035 -0.05841726359662843
Ni 3.488995633730727 4.621514701009881 4.899254369618695 0.590234525889648 -0.5546676845286319 0.18925041906182247
Ni 3.9632274290364786 3.1474080384875687 2.5705592619858515 -1.654282483864022 -1.7082918482009417 -0.1865391907782465
Ni 4.926629252676109 5.077948528157351 2.581992720586095 1.8202281667616327 1.4837466104925672 0.1397865080037399
Ni 5.579370648534482 3.490923442396742 0.3901857330412671 -0.4023413921866684 -0.7886532417142998 -0.6241646029781895
Ni 5.908687878666464 8.378128551026144 13.017020939632047 -0.7558757901729628 0.5328593304042888 -0.6949810115701192
Ni 2.5098150159384516 5.349257904163599 11.41557474866557 -0.7594084859165695 -0.16615934157031384 0.05923050352654315
Ni 0.8614298817413937 0.14115762240853105 13.632465176550102 -2.258567060088833 0.3380275605999469 -1.9079830029801144
Ni 8.11026364832363 0.030583633784923875 7.115369105769841 -0.08229998375149697 1.4090198111026377 -0.5933723001876813
Ni 8.95010298665905 2.7481780504771622 1.6570876827960124 -0.7691781637088236 -0.3147037982723419 -0.9638929483193269
Ni 1.0002403285750467 0.17800526387790971 4.547083013433774 -0.6481121149327225 -0.5285334493354252 2.337604056818342
Ni 2.0155285285857656 6.538158522523222 0.300817639743826 -0.42635703837497546 0.9699787495020907 -0.10254176471966855
Ni 7.846711189651253 4.299360513504229 3.9269188430708675 -1.20654569426169 -0.7333971494544724 -1.3615204799700937
Ni 7.609344037314417 4.446915536993063 12.845856198731603 0.9882017002680207 -0.10752250576371161 -0.5246623964157932
Ni 8.299554358951594 7.8025634575461105 8.928471328850247 -1.5866452443310222 -1.3721566195277015 0.09317832122689759
Ni 7.295796464801118 1.1629802715089848 0.6817288771601077 -0.45615946644838856 -1.275881661653351 -0.4848768889877392
Ni 2.2778566917072136 6.687339849057319 8.941616060261602 -1.632596514250156 0.20810508987448031 1.6569528316073336
Ni 0.08966228969102258 5.153800033111177 1.53052019147165 0.4420983603696322 0.9557507788281668 -0.18847446012774638
Ni 6.5925391726659806 2.10628172043187 7.0656115418119345 -0.593871608421603 -0.09938830669235141 0.10426928893373655
Ni 3.6690493085229523 4.827022759420675 0.22186793612343234 -0.4000063162955885 -0.5204249612956778 0.7283647292368876
Ni 6.140956845052415 6.029820045936739 5.113411071078066 0.3199010262025652 -0.7320390927646813 -0.4147896452523502
Ni 5.579324965864671 3.2560871099674245 9.054465045841788 0.26560935473853614 -0.5875433522107301 0.8366873623043913
P 0.08194465945318867 5.898537189434507 12.235868299895747 2.2082662549517518 -0.43193787489686253 2.3545149736410673
P 4.308423955194689 6.757353108809327 12.7546443528806 -1.8478734392827274 0.514640750513733 0.6353275615735445
P 2.4103272976245256 8.75926820179148 1.4202120759863415 1.7899410857423175 -0.3598536553361028 0.835757137180638
P 6.777252479778905 8.168317185119175 5.759785216418212 -2.4451569015993564 0.009943741476273197 1.1361458043818884
P 5.257061139951475 1.5529092679459153 12.815193990754606 -1.0528227786825157 -0.33832092347064957 0.4400821012705518
P 4.2622387760159866 6.665138071529279 8.324059456691495 0.7437502105540224 -0.740302361214738 -0.061663281337751855
P 4.9269947140345955 1.483298015688242 3.8097382267392246 -0.8113164876397704 -1.1442969727341132 -0.9821948319523084
P 0.20643815756814185 6.1861187324273565 3.598269493571519 0.6736218291680528 -0.26220547126330973 0.5612000863305109
Ni 0.4957784833487064 7.794121300165078 2.052865888275516 0.5624319018550831 -0.8454558525256408 1.1288616120156494
Ni 2.124262419269394 7.182412078330752 4.7533101170673895 -0.29218839077864517 -0.5740831129407662 0.1239953066077542
Ni 6.177000471533124 6.3038612455976715 9.502755480268787 -0.9168638719549822 -1.3260194588500067 0.8889185516949659
Ni 8.66645928980389 2.3986690802888138 10.195704934787818 2.3585166386012926 1.2144104417217472 -0.509528111877516
Ni 2.3850099620153893 5.70356355468208 6.745198777679471 -0.5189936281657901 -0.24192203842392532 0.48519622000037077
Ni 0.9042126156725895 0.10546209787178043 8.997967460779996 0.2962306791688189 1.2855718923579214 0.5681356371080796
Ni 1.3472641615256886 1.2754327315152112 11.378078413284877 0.1586244666458494 0.3075895558250638 0.15419497011958605
Ni 4.248661886548222 7.533309801681348 1.900008020475047 0.2273801360540084 -1.206440021921761 -0.5915979818960778
Ni 5.943562028800016 8.097920190940755 7.95404993159886 -0.30990457711148567 1.5688149010178207 -0.11580068661210378
Ni 6.858403174430783 1.0208888953295212 4.701425568003094 0.1128212922688057 2.027436712963773 1.665929838294963
Ni 1.0215924084446073 8.024855328845387 7.040231164118459 1.5237228937751888 -0.4930267717883831 -0.1888040755530232
Ni 5.095609448306201 4.939073211932566 7.346214600164489 -0.2697154064871097 -0.008407250227088747 -0.5503567158581038
Ni 0.4283353306002531 7.307125766914193 10.715804871543787 2.718333012941557 0.06646327382955651 0.1386901896157676
Ni 5.042306909170978 0.6426491804437741 10.813288947959812 -0.9375854207730498 0.9965397878200708 -0.4647348668222255
Ni 8.627318378310012 7.472277754814139 5.4640986541475325 0.8753392703486343 -0.7017265578240689 -1.9284723811827174
Ni 7.163024353263054 6.096507607326522 7.4481372047793295 1.7713129291181686 0.3031639159535424 -1.6561233937275024
Ni 2.464095799991819 5.541353530717947 2.9517080492851493 -0.5154377924937317 0.4303504758050847 -1.7382164036745162
Ni 3.7836854001461346 4.588531813406495 9.399214795489247 -0.8240966701235742 0.6700076294542332 0.15823314474470168
Ni 1.0211904009502724 3.7339186996542657 3.4486203764985595 0.9678452480988557 0.8580007790701868 1.2808575176013877
Ni 1.479451534890174 1.4874551386410235 2.893699281506019 1.2278228584729112 0.051402008621059855 -2.7709604093292857
Ni 1.4533484573602917 3.9352970447141655 8.461445517880449 -0.0649424663096559 -0.18178033593702242 -0.4507025570988754
Ni 5.606076737305867 3.19888327083036 4.7879978819081135 -0.6499810498206612 1.4433862043976498 0.06305064860358173
Ni 4.370433611195848 7.254791700378958 6.176196456544454 -0.13879714750727706 -0.04727924470193793 -0.8152150513632282
Ni 8.220961893809122 7.570522904509213 0.16357959040506023 0.25715016822758935 -0.12326074243457481 0.8404889954386686
P 0.32791203120860213 6.061185767028824 7.880475250908403 -0.4186506708696532 -0.3989400798146033 0.4072195462145761
P 8.931226907493233 1.8529987259329572 8.028238587371574 -0.09551108312513228 0.23717346799534636 1.0289002064286474
P 1.9814309838389963 3.2917104558858736 10.564578788708959 -1.002048633453442 0.5232130655637763 -0.9226982192485722
P 4.1658392061812695 6.540570567489232 4.040141512890104 -0.16518669324439939 0.20328092901295958 -0.6064031652297105
P 6.925118145422452 4.262110864540516 10.570970707868884 0.492990519233809 0.9533948770014807 -1.2585457414780648
P 6.375473398793058 8.240870401312662 10.537218524105885 0.8940273336764408 -0.6936157557914764 -0.9509713551616527
P 2.752134169682776 -0.07204248394500307 5.860425051664766 -0.32312673222871446 0.41892012248095595 -1.3131264049374223
P 7.083810603811155 4.599888525121456 1.6645896908323397 -0.17433493540257072 -0.8159832969878205 1.4458776033609355
Ni 2.519773837957203 1.7756853755451858 0.6403065731358771 0.7450481034298395 0.8670731736851003 -0.472985793977108
Ni 1.7488148291624825 1.7417979710795461 6.828107341465667 -0.07814842347696864 -0.7850236153815126 1.424338186627263
Ni 7.077643443386699 1.01126812506737 9.37585359180141 -0.7145031407634469 -1.0522640779655683 -0.8019149918202125
Ni 2.9388940604032245 1.5563446047156861 9.313645673013271 0.6037119915507926 0.5600389761428741 0.17673711708616013
Ni 6.373472497855345 2.500605389704598 2.342469346234191 0.7826096066233812 0.5055061352023166 1.8578050965741424
Ni 3.9830171615985104 7.311757989633007 10.722183999556165 1.5086929960252597 -0.9711522009849017 -0.5847645039140122
Ni 7.36319667583995 6.6492770485709745 11.57438324103559 -1.3294338838481945 -0.7948704262686053 -0.37488586707887694
Ni 7.781997119597295 3.8501810943227115 8.211545781907724 1.2357732236682395 0.2595634056547724 0.7510061207854872
Ni 3.241870663122308 0.12923170462772773 12.355509384823401 0.585285923635121 -0.7151952817344651 0.782267392792614
Ni 0.02111178902635586 4.9117641119196795 10.232478570332104 -0.37615856314371343 -0.07746476714638272 -0.08484280477800872
Ni 8.685216594028198 2.506160402353589 5.985454864323298 0.15964930836593794 1.2206525659767171 -0.7959870563715516
Ni 3.7929498455837614 3.0556041452358165 11.555755675593545 0.9863479348887335 -0.9095315999596272 0.6259895720020703
Ni 0.9611359632170153 3.534267159513214 12.785734150647027 0.79587161383961 1.2783301231938435 -0.603848774238973
Ni 3.343377555441871 8.66602987270767 7.802836639911579 0.25085122259275505 0.8674310712451513 1.997173286093541
Ni 5.677012786988052 8.24044098421644 3.924498575224292 -1.5601407702825907 0.43110560880355425 -0.4649832353876056
Ni 3.2068777380472473 9.100545154879924 3.48929896665827 0.9479863043913997 -0.014768673668742308 0.44857779744638876
Ni 4.11111136774795 2.895276247267888 6.8433516483815255 -0.5921980773739219 -0.5669809546783461 0.6570189305040491
Ni 5.1944941553786235 5.032905415723917 11.727869702372658 0.5807463838935547 -0.016768734817906604 -1.2763305762653117
Ni 8.161939884413588 0.07369619659215346 3.2859471302625454 0.03389279609270292 -1.7147753990427563 -2.71827439178948
Ni 4.748503386549899 0.7225490835962322 1.477592250228875 -0.3584428910315053 0.7247114487550164 -0.02494047199542156
Ni 5.957339922014949 6.001277513838961 0.46111904176326435 0.7772324014718679 1.2258914457781531 0.8683368708888722
Ni 8.245767583516377 -0.08008446113849353 11.267557416558251 0.10426183273456881 1.2560232321665272 1.2100341670309225
Ni 8.995456741247196 5.196887927276708 5.68254678560893 1.1057502228091665 -0.6095599656911374 1.4918034193587726
Ni 7.168223041087522 6.7111496565627 2.931168207284825 1.2229192505237068 -1.1130824948045217 -1.0790506020307933
P 8.826631866694463 1.9833039733012383 3.8801297389972658 -0.8009577701132657 0.7371417040985693 -0.387162627563701
P 2.130118937539137 3.813159858708052 1.340018890093698 -1.0371886716896848 0.21449248145806285 1.4149978830629437
P 5.0670943258103085 1.1857393776087175 8.50867683019782 -0.9146951464384376 -0.046561135588990776 -1.120081551830174
P 8.721086626363626 1.9367350596961248 12.66034344489699 0.7524881046476524 -0.8452537638171636 0.29317183773783706
P 6.470913632561748 8.44795908009891 1.7851005737931886 0.7863896424911038 -0.3300188313628575 -0.2671957253890495
P 1.6959417071234808 3.7382494167523284 6.005861312927776 0.7016352836618432 0.03923914800628081 -0.5553665103678693
P 6.944624645431658 4.142047671743812 6.1702056312254685 0.5635644727976294 0.7413925089551231 0.09281193902641435
P 2.48663562927646 8.63553212234199 10.31430354119039 -1.4383273018175033 1.494133610153846 0.24218069140195064
