# total energy = -381169.5650431249 ev
CRYSTAL
PRIMVEC
9.19162461043946 0.00000000000000 0.00000000000000

0.00000000000000 9.19162461043946 0.00000000000000

0.00000000000000 0.00000000000000 13.45287172102902

PRIMCOORD
 96 1
Ni 4.585536006131063 1.9848577744555906 11.024776335271717 -0.24793353472532786 0.727767976193153 -0.80021035042428
Ni 3.7624444167832323 0.6757829387076816 9.016598490336223 1.0419351852357344 0.05200441809174915 0.6326297030264073
Ni 8.641643633573091 6.666124549593864 12.406897010798819 1.144995027242402 1.101315584076581 -0.04912503966142508
Ni 6.721090464011829 1.81648559714651 1.1219692085767454 -2.2694189152016717 -2.545262546073707 1.6608382827046684
Ni 8.672610216461742 2.7889318927447637 1.5638960796596413 3.0345311363712386 0.07371249919280208 0.37616576223256504
Ni 2.5043683903257317 0.09140335219985592 0.7378723621012201 -0.5139226414007859 -0.7477850427450283 -0.3310480439583202
Ni 2.749931830056565 7.193264213786231 4.867034101784478 -0.3120771592827722 0.24855548458004292 1.5692147075594007
Ni 6.450829129290851 3.732681936702066 10.657809000185711 -1.6804691695617187 -1.1310465354821102 1.6158619751042946
Ni 5.210961710937362 5.812912006809968 11.584012233001893 1.754759909855494 0.816662325332716 0.03998528214368597
Ni 1.0840877665883235 5.177256023952298 11.264089470353015 -0.053150872991366525 -0.5671622174512168 0.5204743264763746
Ni 5.4328199511223865 3.4416842971438073 12.999146466190368 -1.379541856248179 -0.47448166179634416 0.6286012985933045
Ni 3.7827119487717966 8.205289644415215 3.0005286033551704 -0.3432967794186862 -0.18834101987367563 -0.6081160341557592
Ni 6.859654203117321 6.0576206254637315 5.3773144883471735 -1.117498107373714 0.1309362567019616 -0.9351315599159186
Ni 8.753202379942799 0.8265117928185539 11.051641615315337 -0.45825183020104304 -0.44409199376089314 -0.8560901923110352
Ni 6.545493669857846 2.0963246045804524 6.841929074461199 1.1829424530204529 0.5236437253432917 -0.6185786242499798
Ni 1.104612664062457 6.895685371096992 2.912197092058071 -0.7966848537695248 0.9899266533789274 0.8328407348647915
Ni 5.010097141075185 0.6958905364302137 13.155145797780715 -0.20035449939478397 0.8044048481216018 -2.4361834944561527
Ni 8.547420290981357 8.440337865735653 8.68881964624035 -0.4826027482415817 -0.17427271470606762 0.5809441017266576
Ni 0.7042310164875486 1.8449796330488002 13.115002297006631 0.033100896319026865 -0.9034864222068119 -0.640647174014245
Ni 7.255289295808377 4.885495479561817 12.719071234007172 -0.02174304810404642 0.8550789774377016 0.19404732622983353
Ni 4.240298590489123 3.6602519357633416 6.067985101232577 -0.7431768545490556 -0.38564619091917457 -0.6256378450896064
Ni 5.419997634966356 8.72395463083277 4.827280325888541 0.6070924779872512 -1.487135324459142 1.064677878248889
Ni 5.219188214851087 5.064906797876914 3.7092791416018014 1.0737189054052347 -1.020333804915875 0.5449023776117519
Ni 1.1418111683516725 4.170065387802219 2.7232650891018153 -0.28324840797653794 0.25564941531234675 0.9622872943951041
P 2.5916520564315855 0.6410487089427899 3.5913781743377124 -0.6111198539790894 0.6046794976703844 -0.3369034742978327
Ni 4.07808480158473 7.925542553226118 6.889390027487482 0.010699902916007378 -0.037747908172735 -1.860585230422441
P 8.919414525497997 5.337631487959769 8.467640667104739 -1.0324742969331508 0.9599015677717468 0.3961108378959243
Ni 2.5301876635030003 2.8075541239505832 7.874208249642021 0.49692739239437006 -0.5254560959616821 0.45177059335207354
P 7.7050722483382685 8.575050314182093 2.099388173021173 -1.028920003922989 1.3825927272593608 -0.5548224649389413
P 4.032678176630758 4.650640282355553 10.151038895013686 0.36802307852077265 -0.6515694773537036 -2.414724296141112
P 0.9522431049810817 3.949144693314625 13.001084060631724 0.27045562708724386 0.0847229913706928 0.6255697108558324
Ni 8.894606331014035 3.2558112668160297 11.07180712027212 0.5686637416974076 -0.002672404625840559 -0.487599944345857
Ni 8.151886306159632 8.651276456032962 6.325028879944688 -1.0919660245408809 1.4992650178431406 -0.4845596148576365
Ni 7.378365147657301 6.643421237116878 1.1934956728286328 -0.4119511473622906 -0.6583373922051565 0.07896063496561885
Ni 6.6498921407540434 7.788339174544348 12.618592071791213 -2.1812030801863727 -0.49128716338945716 -0.3632300280075035
Ni 7.508215226751383 3.4443590598688285 4.376864989594107 -1.9431824336993826 -0.9614043775695184 0.649488426454959
Ni 4.689291063313338 2.930207161073215 8.721079490693985 0.6738113194710396 1.365386133573087 0.18442548686935334
Ni 2.8724010346895046 0.12106012859944916 11.084022789212167 0.34853205967569656 -0.6986234934187129 2.648199232238949
Ni 7.348538326204743 3.495482875252228 8.693164527134225 1.0790313187570837 -0.405259851385044 -0.5935419929963262
Ni 2.6268008284607327 5.036633360962254 0.7698150955101358 -0.29318443614332734 -2.1060888155500375 0.30697300528698745
Ni 7.947124487515981 5.476498550673251 10.613629457100433 0.22698778571159617 0.9755392743090039 -2.221886673948664
Ni 3.4455815459252817 4.308206312181419 12.076521532786044 -1.2963157611379867 0.6812945152219622 0.2990668630660333
Ni 5.884937576271369 7.174090485111335 3.1046402955674477 0.10628374826060405 -0.6816889224469034 -0.30728667987266434
Ni 3.128415351459339 2.303494628839071 12.864295224214212 -0.2664166811311799 -1.5454785402847253 0.8471692356723217
Ni 9.187681277705815 6.788124981378088 5.304319202502645 1.243848544477206 -1.517880833172115 -0.050020040671868694
Ni 8.041733878336068 0.23985727925078737 13.26646831940117 -0.22591923523776578 0.6526547399980824 0.6856777318913224
Ni 0.7123049394348296 7.130099370327993 9.910057480088431 0.281456863293754 -0.36114049246832647 0.20184651055927819
Ni 1.2996681272503596 5.71074710066353 7.033726106769309 0.9144655469261348 -0.2747691668609332 0.5360094459974962
Ni 4.5421974966861285 1.2092225423218002 6.7764938997552635 -2.2095299521555236 -0.9784366504614569 1.955568208958245
Ni 0.16982996895233982 7.8580852211335666 0.9814246743948206 1.5438132367671606 0.5697184082141672 -0.5422240594486403
Ni 0.2978150674384939 0.7160836162604528 2.342764006124669 0.5847763309885541 -0.2924827820906124 -0.8316207464147614
Ni 6.977950410234248 4.06053799044361 1.4136948247941854 -1.7190076919565491 2.417696748505875 0.9875452976309446
Ni 1.8062277442216854 3.7549256679548217 5.859155988754487 -0.4510463135915393 0.7631288721909503 0.045334205160425155
Ni 5.8438693980741325 5.636405241832007 9.15710074304552 0.5480270392836627 -0.7512298067605191 1.3732452246061897
Ni 4.048386662874956 3.941625944486214 2.0416748820447572 1.7258532541234728 -2.1663210208682173 -0.1305081680256075
Ni 7.524236228228058 2.6194199539995915 12.704622919479814 0.6799279738917388 -1.2153728056350164 -0.6813204833638911
P 6.137155752129059 8.874228499531656 7.255322385656521 -0.17993736919101266 -1.0177315914063376 -0.3610767291099265
Ni 5.250687911959845 8.260476157820811 1.1018349551432078 0.239870040990903 -1.077232574985448 0.7065157516825962
P 8.488878834638877 2.0632163731868887 5.982061795550446 0.8791470741304989 0.06959076371494467 -0.9815188889312064
Ni 1.9741311486820512 4.851661109833969 9.135091398217122 3.3772401616072547 2.5074611589552167 0.7218374696413311
P 4.361315518453494 7.921939436428151 11.800940085813373 2.0070072414648275 0.4783452585168085 0.3746534393530967
P 0.8857959324193896 8.75870816300908 12.41647560267423 0.3133434275897055 0.056837063593702115 0.07713977970679618
P 1.365480158560165 5.277812395813928 4.557173410458903 -0.982192260849147 1.0359763965491384 0.29840094734726025
Ni 2.141510630546794 2.608003956389706 10.433643662255049 0.773623601074687 0.6222786988093862 0.8579696687219353
Ni 7.25346016253594 6.743472069631855 7.580343742407012 0.3989812174651838 -0.1950318016302899 0.47462512935274387
Ni 2.9577820345270442 5.587689632063575 3.209801671295867 1.973385182535008 0.08674439267609577 -0.7836221070482956
Ni 8.173385515829134 5.265624301747336 3.3303259281878637 0.48596600828685976 1.3680904198781276 -0.4313058977398185
Ni 6.043107050402533 4.438387289756946 7.156362598967869 0.9988656077397701 0.9730039094816597 -1.2770378867449812
Ni 2.1060493432851697 1.6125326414575052 5.870389073037129 0.25043084722588477 -2.0033755582495107 -0.44878811368498195
Ni 2.0058698280274085 2.567680299775723 1.4559910040225654 0.7674241571321945 -0.9887658003016067 0.5555081781520562
Ni 7.290713816572063 0.9175143901908808 3.7744183459993335 -0.0690199788131392 0.81593418891744 -0.06720915085664554
Ni 2.857841501505883 7.18881546753568 8.67646977958283 -2.6006675052065726 0.8333865800659325 0.7702479997342347
Ni 0.32867870413291644 2.3597657539338517 4.057627922131783 0.6786673620117601 0.5941631715200929 0.21489331644090734
Ni 0.5277518263830421 3.40853010762782 8.870635493520622 -2.3623681511368995 -2.7017645670599144 -0.8053165613025938
Ni 8.752540582979908 1.3711789657406233 8.027745145032942 -0.15654778662247879 0.8881559624973285 -0.23891256217364015
Ni 4.989085087503367 7.7471974633512355 8.970751586569438 0.7248094077854613 0.8704963404340362 0.294707300545757
Ni 6.195035411508647 0.9653779363695889 8.928482063052064 0.6802092525775834 0.18029141009632177 1.678034334867981
Ni 5.322419349437739 5.759784417288923 0.5383957275362201 -0.981336083496439 -0.3935361351902126 0.2634619693782302
Ni 4.248773268263932 1.3670703095960026 1.8917429417767007 0.0452303325927092 0.6487695460110634 1.0023777346580864
Ni 1.179294612999911 7.927757734726908 6.8227581032736495 0.8668710849766232 2.1297681614448485 1.0272757834513468
Ni 3.023051759992258 2.704028857380424 4.0202023847177975 -1.6608164283277977 2.039166342695875 -2.1652897513902256
Ni 7.822155161023228 7.809663743348643 4.04432304569031 -0.20738132433457832 0.6992572703479699 -0.533509819504094
Ni 0.7157931609267391 0.14247661364858977 4.593483084660456 -0.2507092976982521 -1.987373783504616 0.5893341255625657
Ni 8.548596818915387 4.567851320622674 6.137321201369782 0.2471534620261937 -0.6653295072522735 1.2144073563979536
Ni 3.007738513600898 6.514508703720227 11.047578917293137 -0.299474125806781 0.46068357957098727 -1.8127454852313425
Ni 1.450714092405951 0.6220900642808339 9.544301601109499 -2.1484572532139192 -0.439774597332462 -2.101679630738748
Ni 6.769162660066339 7.855759740138961 10.285729283561365 1.14535446746435 0.18986619826895043 0.4665883750911965
Ni 1.832359532631431 6.676970666485704 12.993307946317744 -0.4509987481830556 2.432273103658153 -0.137537306958247
P 4.660107655574701 5.9853652653902145 5.595560420109747 -0.3657322256040669 -0.009278597088448536 0.32778505693633225
Ni 4.698418346426555 1.6137918940118967 4.6983889332282045 2.202519839386278 0.672770279801035 -2.2687877093755766
P 5.983232808509785 2.8198617091354756 2.9807932664242647 -1.3068482852381946 -0.5183433961763009 -0.02103470918311216
Ni 0.32601772884462193 5.526032215020813 1.1498814146491596 -1.3440045825735176 -1.116638073366264 -1.5406258401781145
P 2.3549401510794317 0.38499946399991397 7.537200095401151 -0.1850762330794748 -0.4977766277685428 0.12148539570170691
P 6.437482890539197 1.0730118590843687 11.353860390044405 1.454548391662056 -0.6503014092745576 0.20872729683951152
P 3.514344088694647 6.847493683924183 1.1579562567588892 0.0960661842976539 1.8351439075312006 0.7005507923484129
Ni 4.04026126683056 5.4905157780122815 7.729616643199522 -0.9341995350199523 -0.37014449573914965 -0.7053582410393853
