# total energy = -340889.1785320083 ev
CRYSTAL
PRIMVEC
9.11194724495497 0.00000000000000 0.00000000000000

0.00000000000000 9.11194724495497 0.00000000000000

0.00000000000000 0.00000000000000 13.33625584273514

PRIMCOORD
 96 1
Ni 6.521038002795773 2.153745430821458 11.132199999544806 0.6231423323612623 -0.15370157542293528 0.6784421333748316
Ni 5.135457067794515 0.2088759022458889 5.823649646672071 -0.3293742558003231 -0.8211442723634698 -1.3309194672547855
Ni 3.0081545081267547 1.544201714134125 4.741278782241997 1.1584100150967276 0.6575056403324805 -0.43239835947304883
Ni 3.34826705419255 4.508208837443627 4.674131019972585 1.7833138102337869 -0.8926327673217594 -0.6085235540068229
Ni 4.063819166125274 2.7079705152640967 2.5621884699201902 -0.9778000453187224 0.3616868518900997 -0.8856828183664875
Ni 4.860531392932564 4.907293906633728 2.427385409915047 -0.4596402259081374 0.3542188256478287 -0.42196250885170555
Ni 4.957764982898488 4.779626412583258 11.531260466477114 0.573620828592367 -0.5578746215017037 -0.3693613377162219
Ni 5.9403335994101125 8.129588288979319 12.225639146397485 -1.154444088470444 0.2058368626655939 -0.7915025382376369
Ni 1.639284884530004 6.804875162147152 0.24528997736357463 1.363486345447213 -0.09335418468312955 -0.05379467722295252
Ni 2.660105455935917 1.9677705858018233 0.26323140165772757 0.7986800298226826 -0.25960942840135937 0.39665411199390394
Ni 8.237218610849574 9.001100491424344 6.38111858436444 -0.28337902001713133 -0.8747582010341838 0.8413040351407962
Ni 8.6621907224062 2.7721459603142335 1.2904813631001848 -0.10609194396477213 -0.20210284954445837 0.08385293006091366
Ni 7.233984097791916 0.8990321057732122 4.46383183155364 -0.7042212992214646 -0.30012101536216057 0.6447537399834509
Ni 0.9259287519039794 7.716835298793163 2.3451136374661354 0.029880589609516277 0.10785829183657554 0.21303903684098796
Ni 7.754449417374303 4.009748870664886 3.7229494172362974 0.4351525251794184 -0.4610440482341996 -0.11685946689392132
Ni 7.614863496215274 4.226221403400381 12.564260066685245 0.11179722187966551 -1.6250233298885886 1.0579369599806299
Ni 8.76870027475478 6.9931553298414535 9.405114212925621 -1.0434904455379965 0.5778407802109855 0.0748296435163808
Ni 7.097496238725326 0.7723805938501151 0.10175858301035141 -1.3607563481105596 1.025052550547783 0.5446869191668361
Ni 2.05737747585195 6.754039607989163 9.261576440209266 -0.1360409249183786 -0.9755804119595843 -0.3207528326798992
Ni 0.1557769403709541 5.156141188235209 1.3125960592717991 0.15817195248946309 -0.5142363159864627 -0.791270881842805
Ni 6.826169783059002 2.136232268051848 6.9842903162834125 0.9594745075366572 0.40932065171797893 -1.4808032115935272
Ni 3.509384506894029 4.447577939905133 0.1694357494196769 -0.5176705384789924 0.6240309056138028 0.9096185032464786
Ni 6.017730480037098 5.571144829412047 4.407832536843343 -0.2628785860709344 0.424742642700004 1.453057923159459
Ni 5.577222498281626 2.989620807256106 8.953335663516802 -0.7036024346905431 -0.26455288844956376 0.17189367295092978
P 0.06505839274648162 5.955413872242426 12.289866529547409 1.0738518314386731 -0.8997171849723666 0.15401113624355411
P 3.9835793579311094 6.724115972955136 12.532493084706218 -0.09520177941482959 -1.160760260496459 0.3282889931559443
P 2.504910768999395 8.805102504340937 1.2468369577755867 -0.9375532819835337 0.08555525746400104 0.43089040746895474
P 6.614298783725512 7.576757332478277 5.341344251315933 0.1494865089003232 0.3601824994304313 1.8884678157653219
P 5.06299886262077 1.0871919957627494 12.570661209685065 -0.18352431521132262 -1.0912854535340883 -1.0887408327353636
P 4.07752353491065 6.226594536751458 8.093373765508176 0.510963558772462 0.4887589976509647 1.4194384353328005
P 5.048766000890212 1.2865522914111858 3.72725663473952 -0.3735733189150405 -1.652596868631483 1.0257212944800334
P 0.1541085428147025 5.8988651271080865 3.368325183851625 0.004285000528599072 -1.0316595143413394 0.6179278780398585
Ni 0.9494102401751993 0.35988820535761873 4.630388205616815 -0.18110002204054618 -1.283535835764499 -0.8447778526220096
Ni 1.8401122036986837 6.239023232910536 4.8824565605996995 -0.7073526457615947 1.6148744143800446 -0.25558205240952114
Ni 6.2713250861978755 5.871365270064027 8.988342853966627 -0.8284030108084119 -0.001720325125216392 0.594143631136067
Ni 8.89714228432836 2.3951846992430776 9.802427919554635 0.40908385311682455 0.4393223402863917 1.2343724866659709
Ni 2.58748323571022 4.914510568919645 7.147739516306819 -0.914834243119463 1.7218371909855443 -0.5740044371840308
Ni 0.9831335572461287 8.994922591134127 8.953162536517517 -1.2568441854059256 0.8956067623484189 0.20139656750605314
Ni 1.2789164795480574 1.1764981915509631 11.332430486163325 1.2583845333098522 1.0413068076231162 -0.975569356215991
Ni 3.881990257141109 6.992626836896273 1.4632010583378465 0.8269068858788596 1.1733962040929147 -0.526579410932848
Ni 6.045494583553749 8.074615910733192 7.989604175721937 -0.9514891753383353 0.40935484739002403 -0.7832963482777607
Ni 5.280920194981847 2.9187116331285807 5.215235811453745 0.02611880857423889 -0.15447444903321783 -0.5941284616274155
Ni 0.7962693861670175 7.351783352883237 7.030140724056775 1.1599997281813508 0.49382047133427215 -0.14269288301725747
Ni 5.137835286047828 4.725592564912193 6.879173980681698 0.9088888241693055 -0.3384798176460171 0.46554116477360463
Ni 1.1667848556964342 7.827727697807811 11.52632634699754 0.4768288218722821 -0.24013126507208968 -1.3653462814740873
Ni 4.94533628673941 0.4265803702604953 10.06992644614733 0.0419712022254632 -0.3148531793660126 0.056828064732637615
Ni 8.458538699565004 7.77061401193897 4.191932234400216 -0.38737268669197805 -0.6115253169476242 0.13670504086493873
Ni 7.723632811501868 6.482931839058776 7.064347885530964 -0.9725624510688669 -0.447776641701332 -0.8555106656584816
Ni 2.3521307481055094 5.5873276478713745 2.373560225837855 -0.8370002655591198 -1.4233269717539294 0.789193687598802
Ni 2.4388582627991338 5.417654076626366 11.505974812634415 -0.941198592045605 0.3217722750833491 -0.17225131340066463
Ni 1.183013233892415 3.5869271786783057 3.738058848300068 -0.23916118784933652 0.4206928981106626 -0.2912435103668726
Ni 1.5715102202842401 1.3448505304330194 2.3970717835352664 0.3497980708723137 0.07279435825390689 0.19167162690880538
Ni 1.0988188405567256 3.200516828225212 7.800722619503809 -0.15973569743215715 -0.07552049893581833 0.7960832156297838
Ni 3.699049690582598 2.8678305192339386 7.366667718847938 0.3384559063866171 -1.343159718074719 -0.9961947457758262
Ni 4.205710409958971 6.683321784755582 5.952811500084778 -0.2738301999864316 1.7970928662957502 -0.48910506813647375
Ni 0.5154774396135603 0.3404660896222267 0.01142091478430231 1.1427679376840965 -0.32622645419996077 1.914213557270858
P 0.4556137680403121 5.43159535604234 7.999833247795383 0.39215622412355045 -0.026841802783192478 0.7346976134334507
P 8.754850114812113 1.4727002634301039 7.856814856076879 2.107883702666931 0.2875822594652015 -0.7652973405971787
P 1.8718308923568583 3.5011381945597435 10.505715350380232 -0.6294615897110708 -1.219594557025848 -0.10644289954628763
P 3.952243371060824 6.430993739273773 3.73911310060623 -0.3884152690238794 -0.07725367957684115 -0.4465275997855794
P 6.907630592195481 4.128996925381788 10.235202591610541 0.1821441470343444 0.47696534745014635 0.7827160502942585
P 6.727378050099528 7.939112141978317 10.105975132177054 0.11531834765904657 -0.25275975246937765 -0.2422287710310667
P 2.418474836620353 8.308082225240446 5.79268269366868 0.6300961379712761 -0.28433367062091675 -0.03981918887946691
P 6.494804706430682 4.020938341986989 1.4322204374134588 2.125073584182656 0.04662669871960357 0.0089446107877975
Ni 5.301950569421108 2.9234954054771993 0.04389771746039158 0.2440311143471281 0.9823087318223533 0.6040518913887146
Ni 1.8764597616008551 1.0121824453364077 6.826656361046463 -0.15507917249675227 0.21898831244588737 0.8576475094958261
Ni 7.2740128824156915 0.8155785137555088 9.07332178596749 -1.53419473984079 -1.1453665516492082 0.9818773007118896
Ni 2.8607596481053137 1.8151545799598898 9.282967647762822 -0.6396668123788467 -0.1860159712849248 0.04447957046961372
Ni 6.611173385791081 1.8968887475162897 2.442375474468785 -0.2121476353749701 1.5544869144309228 -1.4941423519045947
Ni 4.181281279165358 6.790605852627271 10.333451252509105 0.9728133907374086 1.095161905770359 -0.25995678443844905
Ni 8.198966655955287 7.412450698211052 0.1679878609888283 0.16511778767967694 0.40770882714616874 0.40418641581520715
Ni 7.785830963981242 4.017375570580684 8.146305067552225 0.37590916613706876 0.5344757829617891 -0.1480088959135322
Ni 3.218576707834664 9.064647212108662 12.608029305688273 0.5638238971066031 -1.5666831993867987 -1.5927667838477277
Ni -0.008365678844317817 4.809285801144694 10.377101125002103 0.5282794243430902 -0.3457275003473658 -0.14048559095329355
Ni 9.08617874365111 2.1065182078064275 5.80824589970952 -0.5705776708906689 1.7753300206973617 -0.9409203986835538
Ni 3.7305132447155134 2.451195839484905 11.406179854273832 0.3214953672728786 0.5477087367122954 0.1601856404853822
Ni 1.054106515004969 3.4652826818134295 12.683166423377244 -0.33747991562659296 0.7118173664011677 -0.42047024057689525
Ni 3.2412107850041285 8.504453802164413 8.083264971139494 1.7791157129920392 -0.4061520241820102 -2.0612366922323533
Ni 5.683230893527017 7.836721189823214 3.412667564341755 -0.19121628453894166 0.9843589294831628 -0.5742954860618883
Ni 3.0957567697641273 8.583928206782799 3.441687294200576 0.5035587816679586 -0.6053011904147834 0.6199968447537452
Ni 3.4855294287822502 4.379830611501362 9.408102020455358 0.7104050594346734 0.28977463913082996 -0.1545055593814694
Ni 7.207677905848179 6.119565603405029 11.406246371489345 -0.7621791066831712 1.4441511075881321 -1.4066340844792806
Ni 8.308182456661084 9.30721636199929 2.1146633775253427 -0.06396827532184467 -0.3390351759288548 0.5697975981915347
Ni 4.634782897814413 0.3040857287096645 1.549326273312912 0.2867638773289642 0.9861684718880757 -0.36265667200253676
Ni 5.9014802559919985 6.088083825377452 0.18683136806872075 -0.18380225146305762 -0.48169489171533175 0.5180304929215724
Ni 8.253282973993603 9.079171656153802 11.448335367404592 -1.0139826658868665 -0.5654938286098584 -1.6896737188791222
Ni 0.0996683022926883 4.719405552674646 5.897439107350832 0.029432189218188024 -0.03892418786902329 -0.31733043726191157
Ni 7.230202639649675 6.001529437683111 2.237703824721282 -0.17779024094102283 0.83742861134579 0.5864652886552029
P 8.866535253244532 1.9014993928656252 3.4606784148272256 -1.2683922952548412 0.15542884252668715 -0.16859469048468384
P 1.9882542434012422 3.458257370421458 1.6245690895909197 -0.2075091081616942 0.9221711431005086 -0.5851887359356245
P 5.192999015187899 1.1269474219666036 7.699540822759491 -1.5339430288413 -0.44374952281980995 2.37069955382073
P 8.480252470054067 1.9682899667996734 12.392329466086421 0.8238519011026199 1.2525129050204236 -0.63947732207586
P 6.4549399368588585 8.183266770704487 1.2550058185575612 0.07138950748658028 -2.0368518356300855 0.9651620448397379
P 2.059090521950122 3.216781654210515 5.758755268977542 -0.49426835750496817 -0.6690928309494476 1.0656440988169003
P 7.042323397637923 4.22151963857774 5.9501043405328256 0.1723544146374322 -0.22549808853994713 -0.6143401606886001
P 2.8275466000849034 8.856120297445539 10.103214212135851 -1.1297334730976416 -0.2867623346670674 2.1403096844061205
