# total energy = -340865.7571830215 ev
CRYSTAL
PRIMVEC
9.30730893245860 0.00000000000000 0.00000000000000
0.00000000000000 9.30730893245860 0.00000000000000
0.00000000000000 0.00000000000000 13.62218741985994
PRIMCOORD
 96 1
Ni 8.836256758075997 6.214611195943073 3.057990821380839 0.7135227791280486 -0.1284129760594756 -0.2670466014056949
Ni 2.019099686563392 5.427603763847914 6.395317253298303 -0.6068191697212065 -0.8080126200775181 0.6899869007896375
Ni 9.03723878802778 7.577564214564408 10.856597108925422 -1.5146332727690948 1.6441065717722845 -0.07859656675798077
Ni 8.49551617659342 7.430908947085004 6.778645288446267 -0.005384918460997178 0.3123453253424943 0.36902220920924833
Ni 8.336286734692193 2.4884858926636197 4.722662597886722 1.132059807237973 -1.2959028419702843 1.0677416047758774
Ni 6.200687461720238 9.117681859476944 0.18051711898308867 0.5360757804590573 0.09962819061729938 -1.0201384010756172
Ni 4.592040100843316 5.046599763750379 7.027441756782383 -1.8628097488775854 0.6778721198039745 -0.9213512183023745
Ni 1.3832708741082642 3.7483883863416305 11.69940185831061 0.33415727901126324 0.2785263199105203 1.1928543128175262
Ni 2.922960382808066 8.006538085106117 8.363355181376862 -1.0381358660943025 -0.4973819634332854 -2.6056618730973704
Ni 5.92146819254577 2.767137415990767 13.133001074956674 0.9137461522616069 -0.6738498860184589 0.07727244862991854
Ni 0.3153055675225773 3.4574232932438895 1.9547294069788075 -0.29780727962731934 0.794761925715199 0.008132399299147284
Ni 1.6216775934383982 7.852427663139755 3.3246442927115596 0.8573839714217942 -0.8375936761687447 -0.9941689735950492
Ni 4.692428735420511 8.774837826166586 9.274775273968986 0.8306722664585628 1.1471894637905597 1.6048468549407136
Ni 3.9486537535025326 1.7245978160561073 3.9358040827351233 1.4711348352658278 -1.0877746121673524 1.3378673593275283
Ni 3.29278630482965 5.819925451655988 11.971573633131115 -0.32489925074810494 -0.03908025383091334 -0.5387777527712527
Ni 2.1583835653365897 8.168652792788814 10.488798318798043 0.027133622991998427 0.11181830492558807 0.7547257357289195
Ni 6.723618616339157 5.078356301964488 1.3044044607990382 0.6525886626468375 0.04897411590585759 -0.05845351615120256
Ni 1.4302634771103273 0.5197061720599528 4.9331660049173545 0.7280199443029591 1.3515119466941563 -0.4927328946970482
Ni 1.333597766122126 7.55713467136981 5.6259229727026705 0.46898387190656654 -1.178667994014815 0.47007221987473885
Ni 8.334313585190026 8.480503487220806 2.121927766822274 -0.7167448856097721 0.0021720679506543237 -1.1835366349610261
Ni 7.537607937145541 1.6331255834745515 1.1894089355204303 0.48168100775826084 0.1830797714747363 0.04181667892546992
Ni 8.212629827683793 5.446814049567118 11.452595292632811 0.14058149310120951 -2.0022167620547195 0.8427356253810002
Ni 5.186107017938917 0.4289366413058192 2.103306633761029 2.4281158869566695 2.1078770177987116 -1.29666620249887
Ni 7.487683531817146 3.5194285856185665 9.63132245827953 1.0838616502661913 1.062104718205074 -0.22166045996141182
P 8.844800867712735 5.181872192356438 0.46421320377332165 0.07954144716975334 1.0637512526695616 0.8922460734063021
P 6.5524944335710975 7.238424490225098 1.8343505341905157 -1.2933934452848694 -0.09070440576510831 1.6434100599258923
P 1.350909360810943 6.135796903564092 10.633847144748797 0.6294153098541676 -1.4294947911275382 0.06826124627024373
P 3.2302318812255963 0.09255094969146672 2.324613034316021 -3.67490294523691 1.4501322648722315 -1.566262309799296
P 1.1479914105928841 5.1949954980076365 4.257070050923678 0.04162641729153476 0.43721069326002765 0.15181875657792562
P 1.4845343957288715 1.600177709711964 11.063273350506567 -1.373499249598525 1.5256234532320112 -0.8640991786584408
P 3.0461146951319518 3.1315930207352287 5.429286525310139 0.5992213027692906 0.7078157014409422 -0.8904177619483117
P 6.207602792286793 4.103881052545592 5.811647531055863 0.5672295803540425 0.43267963815889354 -0.17104803712118286
Ni 2.6314275438630026 8.257360754605543 12.978212150166218 -0.4974606391900207 -1.0803220125440491 1.0073258226919812
Ni 6.989007224380518 6.428092941844899 9.804133125433403 -1.4114255923306531 -0.09479888754945609 -1.092792634207234
Ni 6.7177457043775215 5.535354479822343 3.861304658795786 -2.102703444017572 1.1537563183748 0.18125968754686203
Ni 4.435314325055686 4.372927433013138 0.8456658161633306 -1.4482628157636606 -0.32710705703270115 -0.08176827961774305
Ni 4.9135331673708 6.751307860532292 0.19820286749259952 0.3202730648300033 0.75364715795276 1.8504136892060776
Ni 3.210230474243732 0.6182165916865 11.55416223252592 1.132841936819636 1.2629736953424315 -0.9741606487939222
Ni 4.31901949944452 8.460409007149217 3.6542058653872878 0.5444485779037849 -2.4363912395915848 2.822415382675468
Ni 2.5894422730881352 3.2257364509918873 7.560150239476894 -0.07293422626588084 0.2044142712864544 0.2991627652139493
Ni 0.8805738091955227 6.929412525029713 8.760088533637893 -0.9328023975621096 0.17711686902308205 -1.2925586080883997
Ni 8.373162292841167 4.74252067231041 5.126369916760834 0.9986380651099963 1.0454761085094575 0.9813371119377033
Ni 8.263847948959363 3.294638459315174 7.123423380561107 -0.5748960957603646 1.340688116605775 1.5085240745475634
Ni 3.8464501936757043 1.6722628177038394 0.33728105473750525 0.5536281875205239 -0.8598635433105385 0.0020345139315255285
Ni 3.820417650479671 3.2830694742623785 12.062842035646174 -0.1660953211015978 0.5515209113695341 0.8523196695250095
Ni 6.1932974583960885 7.987048580117739 7.575243902437568 0.24652379886199477 0.285749834242153 0.4147541640287244
Ni 0.5596121900103679 3.403580510838079 9.550079888989629 0.5443588464034561 0.12393000058745753 -0.6447766228015863
Ni 8.671275399229776 0.8087009078482199 6.299157859918205 0.1466860633370506 -0.682033964491148 0.20520231440538853
Ni 5.1838453418586035 0.2377505540475741 5.647908697957468 0.5630340542154562 -0.12937045487673848 0.05496170094786018
Ni 5.628995315394487 2.248171174994127 10.310361383370303 -0.5028491571954437 -0.5886422417018637 0.6962765904530911
Ni 0.7612904066732924 6.321077503279297 12.572420924813168 1.0319654756175325 -0.8454476249955245 1.9010518230779194
Ni 0.14464302727955292 0.4526079202155334 9.824185722614617 0.07564751143198585 -0.433698309231395 -2.153265216125524
Ni 0.8980929568744261 3.1874368745701225 5.826999937205972 1.3960930757386407 0.07761543379163408 -0.3749221196334511
Ni 2.3904054707116007 4.605638079252112 2.5570612144419718 -0.18076603573989514 1.5479108038753018 -0.7485134362706205
Ni 3.1617673164240165 6.349222805612084 4.4169398356822125 -0.7548368073854871 -0.43888473852834087 0.7849122866146289
Ni 4.423037984520983 4.035118653856893 3.5265933520655834 0.6094704913011245 -0.5516844335305918 1.178651538954583
P 4.417788662260503 6.570736759157163 8.638128349055176 1.519206236851758 -0.41830048661908603 -0.6254095311288841
P 7.95379356515906 8.117955880815703 8.935051981357102 0.8144478341799005 1.0423290782400434 -0.8034630530336228
P 6.611363162822048 7.226483212813403 11.75032214569906 0.9930137769446832 -0.5182503222418624 0.574070771645592
P 5.23535198971232 0.7934871806018003 11.990944004564646 1.437954234748801 3.231686154992118 1.0559389557139944
P 0.4198340931307315 1.9571130088066602 7.991088882942694 0.6934774304413992 -1.5497473428634085 -0.5495951551017308
P 9.301026538925873 5.3688467223046334 7.519733250263889 -0.4654648030097145 -0.4982391692272581 -0.868026281626989
P 5.638991365230933 2.9560106369693506 2.005526837888821 -0.24993976652207922 -1.3095970516279252 -0.922327980393347
P 2.1882507198292855 3.0280492084163635 0.5101643189013639 -0.3248663406276405 1.5816305647252502 -1.0870331060156375
Ni 6.646284186086802 0.09302748391085781 10.526259306681387 1.1896013530978673 -1.5461501124304535 -0.06861760116839795
Ni 2.5782921169391013 1.1693796066116484 9.002835251141896 -0.871603457455286 -2.1193220264108596 -0.9313224705824735
Ni 8.48371450881631 1.1392890767036132 11.7454721069935 0.04480970011552283 0.5756998226085827 1.9978731403740428
Ni 8.945664175047526 8.47309486927871 4.331665340145432 -1.6942543962712693 0.14284843475851527 0.6144795144799418
Ni 4.646050414810631 6.186205288959056 2.792085657691506 1.09361641566011 1.1981890947668783 -2.021376622812622
Ni 1.127245418893221 9.023752497326653 7.37650958760264 -0.14289600016699908 1.2866275873159454 0.6561501547458506
Ni 0.9508160700108466 7.431644224493831 0.9363813645254239 -0.15101965771539796 -1.250214338794234 1.1782170225203257
Ni 6.672335343900779 1.9040520403545387 6.058644896567597 -2.0343041295075674 0.692795059662394 0.6334100328358576
Ni 1.5121119522143365 1.0165815152104065 13.227879782622159 0.2974923194900619 2.051570887007815 -0.6424562021985258
Ni 3.234624931060608 1.230547241178802 6.4433085305531135 -0.3571102882630108 -0.46128856014483777 1.0311224108909467
Ni 7.1051159038122345 0.8789385150090576 3.337313401684902 -0.10150740991788325 -0.13524388293837997 2.2173291364849685
Ni 3.4007883181463345 3.0022865771805325 9.789761709648992 0.3308323284030883 -0.08989836492404518 0.6607190050634556
Ni 4.726530715495685 8.157660860892312 12.069897906578213 -0.2821297209910625 -1.4125645910311027 -1.8766931917278966
Ni 2.5617344142770553 5.03182906441105 9.186136186238654 -1.3532021899123856 1.5496779230780537 -0.9890694475849546
Ni 2.424256153444519 2.2299846932618963 2.44260830527646 -1.3046188816870434 -0.2810868815488449 0.14855062734961513
Ni 5.927480714141994 5.220972197349835 12.563552920824188 0.40097665062865784 -0.9938218746682753 -1.7660218559225582
Ni 7.758637910624051 7.220470691217179 0.07916983158172892 0.8871969410181687 -0.6949804973494869 -1.696283510886156
Ni 7.327402364002029 3.467912630455877 3.1548715312063047 -0.30272631419549156 0.42587572786318273 -2.0281162555293006
Ni 7.296129805854489 1.3755644222790488 8.5071921956994 -0.18359733454110316 -0.612790556813293 0.08974924094069059
Ni 5.7370345579470605 3.4880536470723285 8.200161756584254 -0.8482051331360037 -1.3071506469699616 -0.3131601079343058
Ni 5.2539200711124225 7.0800140915134495 5.4972066125368295 0.3162724283110424 -0.48172728761516387 -0.09738336044718067
Ni 6.8734569834871495 5.629972582836597 7.4852152334776445 0.9666980218682899 -0.6953021423549638 -0.7269400809752189
Ni 1.0874752876538043 0.263962728306776 1.856022603132941 0.2374596317771975 0.985336977125716 0.23679808693379864
Ni 8.740447319513263 3.208787841352997 13.375870648939115 0.6477483038354006 -0.6166700943733573 -0.32660929146067624
P 7.605923585003562 3.284968165292765 11.671953673419862 -1.351371307351234 -0.011304369269225694 -0.2517940461219986
P 4.863003786959193 1.2863817877047234 8.06569720239701 0.296732815616218 0.5780228143148045 -0.05309687982497953
P 4.4118319845181135 4.78969011418295 10.192488038157405 1.8829281168940153 0.19450241148938116 1.253733921911718
P 9.22689382296005 9.07346283454868 -0.104505257335723 -2.0991383523741334 -0.9578639685164277 0.34270105481621627
P 2.8425266186678737 6.345090360428302 0.43261209761905245 -0.6232042959474493 -0.7973721096445364 0.819119271513641
P 9.316802427634231 1.6670134954433593 3.1100819682380276 -0.09282273765969175 -0.9149861953162952 -0.616477518746577
P 7.086547822412132 8.618642566990388 5.395407920650304 -0.11244154033188378 -0.27161648016456447 0.10223477500221104
P 3.315496138722507 8.445936141697008 5.699114719731373 -0.6303403927715984 -1.0179465356306212 0.22903721204145716
