# total energy = -340894.8758514224 ev
CRYSTAL
PRIMVEC
9.05779827687557 0.00000000000000 0.00000000000000

0.00000000000000 9.05779827687557 0.00000000000000

0.00000000000000 0.00000000000000 13.25700335449416

PRIMCOORD
 96 1
Ni 6.257815399243076 1.8536421734052106 11.421147149493628 0.4101865992627 0.6396493288773499 -0.11453930340117693
Ni 4.545719438535905 0.23337688833613793 6.167251003795366 0.20819790669860272 -0.20971357201218077 -0.7442808862465118
Ni 2.829139867712556 1.5790097315414755 5.015787463574868 -0.5322882883921671 -0.20312126350664372 -0.3103177533895043
Ni 3.6308184142835858 4.089595893848171 4.921118979756167 -1.273108212673272 0.9921136337279173 0.5039411047080418
Ni 4.92373758921998 4.307164206960536 2.911767820364718 1.3118387964742502 0.5296811897866233 -1.1243513828501217
Ni 7.497601529853194 6.228060532108432 2.4612682625883684 -1.4479761377611773 -0.31075741203008417 -0.11437063903379657
Ni 5.086234489188166 4.596624264501412 11.601150961850808 0.5641630256135767 -0.486546306270362 -0.9746419593057151
Ni 5.478509614261869 7.895519663214531 12.298097810786821 0.6351337003951836 0.4577769474471536 0.5572074202313501
Ni 1.7886887024090088 6.378845698985267 0.5499722977680235 0.9749448352581145 0.36448164102641745 -0.4632240866046538
Ni 2.6060372398911293 1.6162735133959412 0.3126607018875054 1.2313447555832406 -1.5380010009607576 0.09314078312074282
Ni 0.5519170070446773 9.346832555527943 4.777492190808254 0.4061193711718618 -0.22783804952703343 -0.02816077870493214
Ni 8.46680405440146 2.274096108724232 1.330923884684806 0.3800044192523649 0.42432843798072084 0.20575613002632953
Ni 7.152445071091337 0.6961108141608173 4.983108739176583 -1.046944722635184 -0.19033491037525285 -1.5576586272906852
Ni 0.664395839492556 7.394677768741794 2.4263631313889586 1.1910154598365745 0.0865153073844252 -0.21341056124779373
Ni 7.640062580170899 3.8757412780037512 3.6377485356975026 0.8045817400190983 0.0059665019960800465 0.9018262608955695
Ni 7.696882148370477 3.9863460520010494 12.618015620603787 0.2243644891561362 -1.0925931166019183 -0.45235551932126616
Ni 7.719309256749587 8.912302801783582 7.071047167436705 -0.060798362234295286 -0.5587886486755409 -0.1317140154082506
Ni 6.698178375037575 0.6495446735400565 0.2699323503702297 0.04008555516697612 -0.007097787387045841 0.5530232069466734
Ni 1.853750866983785 6.504178452879347 9.21546006178443 0.06481982468886256 -0.02325871341762446 -0.27736752371572876
Ni 0.002976392493285734 4.926862529603983 1.1723236495084985 -0.022076520184065206 -0.6629553505931421 0.8449357183561125
Ni 6.374244337492299 2.021908890836036 7.122471005239903 0.6262734217910763 0.11244025478030312 0.5401833748695278
Ni 3.6382276932230497 4.273297099436509 0.5416047037774655 -0.9432793858340336 0.5780613808622239 0.030350844377715465
Ni 6.11917673977189 5.647618706926642 4.620437216007342 0.09424918569357317 0.07848061000540678 0.7353663573657012
Ni 5.235199038623884 3.0269440651208757 9.237758549428895 0.7130856915906301 -0.6420443114720877 0.1965587797977776
P 0.23720743120105128 5.74116764688603 12.367763148414209 -0.46113917905116714 -0.49057419648283257 0.35688454540544984
P 4.226893999183609 6.173514471260694 12.689590342094792 -1.870960660119494 -0.2592142498454697 -0.22118686275910296
P 2.4651703620591765 8.37590904931892 1.514162236784383 -0.21146192216185516 0.1485136034640926 -0.27544562410266754
P 6.466778804051663 7.617553951607859 5.665062214728132 -0.03383134672714819 0.5699109838409475 0.5703082192793663
P 4.469307852798357 0.9317122977384371 12.492617650562561 0.674092083936252 0.2012924378280211 0.7051024162748373
P 3.923222256244177 6.161757449178269 8.183508734325372 0.33713230247918713 0.20452791404618323 0.34257249965815195
P 4.731467706520721 1.0109136853260525 3.9845245287801125 0.9372704606357922 -0.5739954383229663 -0.14169992297636888
P 0.2042470092782958 5.518690007141404 3.500260216599559 0.771400111060807 -0.45959985958850524 0.5734346807234899
Ni 1.5039024687468152 1.1577134209885052 2.5588533574321395 -0.31862267371077385 -0.19132709908519308 0.061640655629932546
Ni 1.807918408018399 6.610888373644408 4.633203276810862 0.3331260095332715 -0.9853020101227224 0.6026159302731363
Ni 5.924035535038635 5.548553567854621 9.20444306181613 -0.9539049838686798 0.7680520205241804 -0.010055841574105263
Ni 8.616828366228276 2.284403883092337 10.29065603525899 -0.013287461137525504 0.4112145263065821 0.22161983653146347
Ni 2.207122748726196 5.397342684461706 6.982437444843685 0.7421880082732251 -0.19185648922610182 0.1579004439956313
Ni 0.6516542347442142 9.256345151365055 9.193970435520523 -0.679296768065643 -1.0625418057424927 -0.1871410860283035
Ni 1.4633416483422703 0.9682786291303862 11.317716151682218 0.16061501471331696 0.7803130972797206 0.779068169129026
Ni 4.125845202302612 6.580100917513312 1.5944596179559536 0.38820726677813144 1.2131966239193042 0.523414382941305
Ni 5.581460548767911 7.989159181156065 8.026942880628043 -0.1285466734238625 -0.7329276660172216 0.14125846456357607
Ni 5.560129433972756 2.817129227280125 4.993820491345055 0.09113557976525596 -0.18529991905450666 -0.6326258463716653
Ni 0.42316040542551503 7.44843580114487 6.7348887254211345 0.7285498486645001 -0.6993832544028729 0.46980971024197155
Ni 5.072059034982468 4.654449248302801 7.0009307514582355 -0.8991078335231418 -0.2944980127484283 0.34208964648446244
Ni 8.19817693275394 7.351227510706822 8.95826116414415 -0.18437715012992117 -0.25962305524811413 0.5366033708277532
Ni 4.735534657919033 0.2064091057120977 10.32772235711238 -1.0545798705829386 0.2362062189860706 -0.2671522737456238
Ni 8.401243710924886 7.3520245969497 4.478374708811074 -1.2392046179472918 -0.35561904842946496 0.7494426329531093
Ni 7.1868012997189465 6.02574555118929 7.041854789571182 0.4998167981270231 0.7152364193850456 -0.1866348358158463
Ni 2.3471381935259856 5.081279873564833 2.6596992596331317 -0.5081415159426346 -0.005088984487133171 -0.1539041783520446
Ni 2.282601381247651 5.256983043329765 11.599427262850586 0.5571017478914212 -0.1348967840116064 0.059847311174935636
Ni 1.2827291519450774 3.3755424872042443 4.109578302489186 -0.46539975409973394 -0.03652200618543387 -0.2884086120212388
Ni 3.5727126387375483 2.4511217170284816 2.871956985652334 -0.11008178185045557 0.4920245557761139 -0.8009006916230852
Ni 1.1627495567957689 3.5202498714791464 8.393061801797725 -0.24813408077190813 -0.528818841786328 -0.30883165576228105
Ni 3.8878877854093994 2.560992809370405 6.979639490975225 -0.5183629365603266 0.5995614597175287 -0.04448676955846532
Ni 4.2555438149360825 6.777008392898396 5.962323753871161 -0.3340035270422183 0.6376130151736116 -0.1601280477745694
Ni 0.6608931889230075 7.467665506754261 11.147906891215463 0.5979588911170992 -0.310771038876839 0.2545014177508327
P 0.14842651622177727 5.574857413869538 8.114691206610864 0.5423495292829111 0.9678051388895397 -0.996373951666168
P 8.5530161778071 1.586092929745217 8.001781222967974 -0.6929783793177936 1.5947496186057117 0.30331586815037437
P 1.831359989797533 3.0953666728332325 10.521911587253292 -0.8686688003069942 0.7577789207329466 -0.3370945072627162
P 3.9788190216847967 6.130535218732877 3.816969754288947 0.04054963928758822 -0.4490575652962847 0.24419360806692136
P 6.913002175290947 3.8458958328869635 10.535154994022717 -0.18100334856168182 0.09634309210812439 -0.4500721226037281
P 6.370258906277917 7.727271061380135 10.191798319766082 -0.6864061254169147 -0.7109851003078594 -0.5158756513620987
P 2.2241785827641056 8.35245840974157 5.90103687959219 0.9940422182091978 0.8073063380391128 0.16149021822941867
P 6.897622033922719 4.018057403550024 1.634813920561208 -0.7074459768063494 -0.11557314398233 -0.9314715945658281
Ni 5.418438296503284 2.8708419706921284 0.3243932679147513 0.48573589455392463 -0.5637981860749904 0.424394772442282
Ni 1.3833612901082075 1.1417988695256232 6.9616633846387215 0.014063162961285458 0.13091543076635517 0.3201779340130357
Ni 6.918210409264286 0.6233603904615709 9.241562824678986 -0.008270981759540596 0.7738665703234285 -0.0908167629732565
Ni 2.650674069492201 1.5988734830258808 9.07044199503077 0.9886174476492006 -0.0627068921109178 0.7052471693828176
Ni 6.382233315517491 1.9468106858395902 2.6730622293389876 -0.2028772658166377 -0.1735108968393786 0.05230652271320024
Ni 3.9933386722226456 6.85622789608244 10.488967469367322 0.8512683454423596 -0.6059347102337241 -0.6375541369112181
Ni 7.952638138755188 7.389061933848803 0.20693536378836033 0.24711309570656154 -0.24881053801364245 -0.3475462987236595
Ni 7.707923604393957 4.062848215720742 8.498388596775431 -0.39045723915457264 -1.5020942597618197 -0.9591412925669546
Ni 2.8877891111514638 8.052174283334363 12.346936552979601 0.6192275706878885 0.619964705964229 0.4896498848963503
Ni 0.25915900517389967 4.913484161641162 10.202350654685977 -0.06653577893870477 -0.7561169596494913 1.0763134056052883
Ni 8.53724655111565 2.6064810720036395 5.854915476863762 0.35895608322249795 -0.07091616739458756 0.4622650651254942
Ni 3.638109941846261 2.802220091419053 11.56175044539754 0.19003100598158884 -0.8709064313882614 0.1207048087819405
Ni 1.1391087034559157 3.2882977748021496 12.814312600389213 -0.8850490414372305 0.39130673163906154 -1.209107284341279
Ni 3.0589724396073588 8.303999189293979 8.049003148179466 0.4135771130014877 0.2678482713713839 -0.8451820300389637
Ni 5.653370408792852 7.886298824632167 3.533958849076797 -0.5441451877307532 0.42366612180637364 0.94371595915082
Ni 3.0956746379725257 8.346552725305715 3.785444087603369 0.7855501773089438 0.8333904367206745 -0.6411732217210441
Ni 3.4629049509831265 4.438411703088686 9.537405912621624 -0.7120186837786964 0.32180338543160064 -0.1860059439825958
Ni 7.319679199525709 5.987059695015147 11.104039068682802 0.33760204302675406 0.5620441794983612 1.4407155995440222
Ni 0.7375121982396683 -0.15617093369517743 0.16817704522850135 -0.1925756267803135 0.07796304693903992 0.46637960151450003
Ni 4.514777999835163 0.45532827000450155 1.600982138450217 -0.12798694426565058 -0.8149959933738867 0.1325956466822555
Ni 6.204012077848927 5.636767464665667 0.2595122593042653 -0.26974831660757415 0.5884468378616059 1.0510294342275188
Ni 7.8567613446546725 8.769642479905157 11.342665856864066 0.08050278264175813 0.7793425058363352 0.6045051768760492
Ni 0.27111439303722235 5.035320605424444 5.7476802038022585 -1.3349779535948751 -0.4777420777151708 -0.11513965598933718
Ni 8.072273537572345 8.940227993678896 2.4217499947583123 -0.7328759868436797 1.0856722211123688 0.30023722922505064
P 8.69456239050514 1.8883607139614014 3.6429984355426286 -0.9947441293722286 -0.8771246443838313 -0.28470236681424516
P 1.8762776111432542 3.193254298137368 1.5905883149990747 -0.2894578792213595 0.48022550625865684 0.5552533818287728
P 4.671767758488931 1.0859847169278547 8.280615577423418 0.9173405544810846 -0.714693145287066 -0.07750719034854393
P 8.5405254740693 1.5185942174507394 12.51723584032976 -0.22409606598609794 0.05961694033168443 -0.4667984342194735
P 6.238875543176549 7.888210020055427 1.5202336789275643 0.524432025572542 -0.15676350217771068 -1.5151865741694033
P 1.8699099789984583 3.2596751324443196 6.335892714072271 0.1522062218243314 0.10521802600025106 -1.4032620826832543
P 6.911118153262329 4.073699457981718 6.1931019598995585 1.1455493570839757 -0.3994501866818024 -0.9156755080738358
P 2.505133367781564 8.448344261640301 10.1461814363982 -0.716479033542895 0.509657952587161 0.6457855236820749
