# total energy = -381180.1438773176 ev
CRYSTAL
PRIMVEC
9.08266379124959 0.00000000000000 0.00000000000000
0.00000000000000 9.08266379124959 0.00000000000000
0.00000000000000 0.00000000000000 13.29339654822923
PRIMCOORD
 96 1
Ni 0.14782398514667774 1.3110915909844354 7.220694044339766 -0.6789851503624952 -1.1504241686777736 -1.097119286607046
Ni 0.6788646263329701 7.896658576146191 1.5113924823197145 0.6552428124402327 1.786471639136478 -0.17411742007512593
Ni 2.231328914005135 0.1656042076495432 7.601416600921224 0.19681743277580296 1.8202536206829296 0.7517648533283827
Ni 7.7485929921444985 2.862001834893707 4.020614575573762 -0.7814418115675251 0.795369991612843 -0.62405764508668
Ni 0.1796369231005685 5.729880153215772 1.3889336521504336 -0.8016244571629872 -2.608312166236024 -1.1095546841569215
Ni 6.088672618239625 3.123991269964791 0.3981331146708242 -0.4217272529124479 0.5667048181988241 -1.3414406785010833
Ni -0.05295374603402439 7.790409575922182 3.925726171133664 0.5619773308161676 1.657255964670049 0.5917157384208648
Ni 0.42485158654285077 8.654098234607552 9.198166140370805 0.523950200840117 0.8760211269070074 0.5012105931507561
Ni 3.0926015841403616 8.655188154254233 0.7738365912793137 -1.351081801135273 0.03637622463618896 0.19317829336131892
Ni 4.796491133125115 5.89387672938646 6.077674420738235 1.743854318686584 -0.5665209843227921 -0.3081030051263726
Ni 2.6235819121821122 1.816242099230179 12.452895088487796 -0.06764546706311576 -1.1294637643760224 -0.2829560735470998
Ni 5.830688637870096 0.40716219067720877 10.287533561098066 0.03862979655705605 0.244570788900682 -0.461588864994076
Ni 6.671943117161271 8.406059771013993 3.485009895866991 1.4028959575930873 0.14808911433216432 0.42104179680964904
Ni 3.857398200216824 4.639388298719688 12.602059674799893 0.08537759423555619 -1.4705987602566997 0.3574185635320489
Ni 6.506783960034123 1.2546246706226074 2.149143523047111 1.1572288503044328 -0.4504464752240113 -0.709386645472488
Ni 7.225041007197281 6.826094085856935 5.310817856529545 -1.2022216129650392 -0.2070149421340951 -0.24908950270664196
Ni 5.647818286484372 2.800012654988693 9.109924429242723 0.7566725750426452 -2.751369631681552 -2.335001329088172
Ni 8.880728859807542 4.188079821020014 9.79788443502725 -0.27813011291336615 -0.3365124095070011 -0.27513477773046807
Ni 7.510618119955299 6.222705486790292 10.803144573152835 0.9520825859479602 -0.5340780333027383 0.14598800882876148
Ni 2.6266881831751547 5.504802663512304 6.306998963998272 -0.589298901449256 -2.181598001631946 0.7932141216121048
Ni 1.8128633483254661 7.106793808196052 7.7884277386979655 -0.3505616885112156 -1.0990740963405716 -0.04067099535680093
Ni 2.192128137379488 8.758957587282042 3.1388232598233827 0.036462099481775916 0.12701403882941995 -0.5832254415616666
Ni 5.9352210146505815 5.858399844886975 3.0759857591267012 -0.8047555465928012 0.5085968583124983 0.5881686444995547
Ni 4.2614132479142395 0.9717723569812936 2.5666890148917063 -2.531372932575808 -1.1559949778973317 -1.7987188319349476
P 1.3988028745511354 1.030528108601153 10.623325088511447 -0.2209158684859034 0.5170750709868385 0.6054762825400669
Ni 1.5801564210952272 3.631248956194119 0.5275202007275107 0.0835467116744045 0.8033848914975196 -1.8186340828016356
P 3.542411422325848 3.6212761914269826 7.863177152866505 0.4434461326467782 -0.7694003070219587 0.16695381244715118
Ni 4.065145967538055 8.04405204303243 6.807016858974518 0.7324640961172418 -0.5353299034319684 -0.07300056072744203
P 1.0210548903387455 -0.25055436144464976 5.713674864602362 -0.45651890667033634 0.21597292265833126 -0.292713924264812
P 7.884851113307141 2.668895321492899 8.190553592341134 -0.9860959667789276 1.5185961140715845 -0.11745621993765577
P 6.233877163168778 4.607262917133749 4.730494681985801 -0.0650180567425977 -1.1451279532758405 0.5286476063157863
Ni 4.00629030661725 8.694407096207327 11.640775069618792 -0.572883179095394 0.3514086098925432 -0.7192082595486001
Ni 1.6043889679064476 4.6254100792509965 8.31761188341941 1.1269947340102398 1.7528326109257941 0.13033590411380136
Ni 3.140485387284572 6.360979959299295 10.906487120985691 0.42063941916490777 -0.24569693208532523 0.029243470246149636
Ni 2.3111564454608384 7.192343417796834 4.904305984574856 0.17635736514923822 1.5284467816134193 1.396681344141943
Ni 1.406087170856457 6.080925106084464 3.245542742028209 2.8695874123755805 -0.7027573130814284 -0.7021533609488424
Ni 4.581213837578059 3.182647112283705 5.663372348108891 -0.039572877196615716 1.4987412841291865 0.3696750123018988
Ni 5.385020494341999 7.983116452119208 1.7474836100528996 -1.1897700174652477 -0.8364636763293595 -0.8897752432683064
Ni 8.68172769765093 6.856030545485789 12.79016164048969 0.9282476883118916 -0.697789684663508 -0.2029474569329408
Ni 7.984269950411946 4.522494416613089 12.898622269330088 0.04101166652567131 -0.22286142224804847 -0.321062393500518
Ni 0.5900107436699991 1.1031530877250353 0.1109174893772951 -1.0780576419899046 -0.2296465634906819 0.3340282096325667
Ni 2.940485132118503 2.6865611024328624 3.9561549111362693 1.0476800581393118 0.26757650576723596 0.05029206338633274
Ni 4.234855539190098 6.896412068395342 13.089196536085108 0.3463504786433454 0.20286826695557317 -0.2038997935438811
Ni 4.521904043471136 4.297780233458515 10.10256965572434 -0.9142012375211547 1.6747158120177092 1.3949080542916041
Ni 7.694923532209153 -0.42110680429012726 0.5569053426684183 -0.24692617650673604 1.3673280877908065 1.5073771054273137
Ni 6.781271140387155 0.7138637627206599 8.034913975061377 0.3751167521427604 -0.7500555839467599 0.16161517384305715
Ni 9.507005771454498 2.994091013407792 11.802289353794164 -0.659937903923057 -0.9991160331876793 -0.31617498350122963
Ni 4.743748104889449 2.3840902351512803 11.63442083807864 0.44450362737701504 0.0739914638858016 -0.20698486022710808
Ni 4.418425255682443 1.4241344236727596 7.395541678859542 -0.00026225252245116125 0.047824318572130535 -0.35698661820095295
Ni 5.281859599783588 3.0888776920142 2.5872803218166376 -0.6517651383042775 2.370231613045376 0.9286868327318393
Ni 5.1336941064809505 0.7365141095114476 13.53334242517334 -0.7786534501891106 0.28551277853068247 -0.3385381816877782
Ni 3.551893723251978 1.4377402539288344 9.748818977332762 -0.42170899808000273 -0.45410438369157274 0.19687656814851254
Ni 7.948338932726342 1.7878678577615685 10.141398951403744 1.5164446149462205 -0.9670888295488053 -0.5790641110951252
Ni 0.18692757727049603 3.6719756203251204 6.815351111206143 -0.755142254441048 -0.025389900828014338 -0.7854074810834926
Ni 2.418350042711971 3.6664715261093783 10.787046459971348 -0.4592568744267897 0.6096280999249114 -0.23927071684400725
Ni 6.291234184575395 6.989409462248447 7.4225144653157935 -0.039401898836390205 1.0198612361548307 1.682409324007225
P 3.555336052802747 7.856694855767867 9.178279648150728 -0.9064161942590969 0.829346605668604 -0.09196836007919645
Ni 0.6135838890949771 3.830449936952622 2.5781740431686133 0.5514612617761923 -1.5648188924845503 2.0575921535012305
P 7.758447682283244 6.98407793864343 2.0600907300486204 -1.8061752882129924 1.2270800667696158 0.031218077474017204
Ni 7.879047291188561 0.5411905178960145 5.045508707867944 -0.21495296603424918 -0.6134107068957952 0.6887954515846976
P 8.048584292229881 2.44873155286322 1.0498024292863444 1.03186468837361 -0.4324898907455907 -0.5291116904363985
P 5.871660533921601 9.227532208717896 6.123111354275646 -0.2530639139733577 -0.03941938233788695 -0.6772810231871949
P 1.0849786776166201 5.273076663964079 12.027865481735986 -0.1607996199202973 -0.4373934986947951 -0.7886118469534031
Ni 6.378427756309922 7.784115289962595 12.30372959390933 -2.9609608191832555 -0.9719502714061647 0.04013774856115023
Ni 3.650749435205997 5.224602487677915 4.232231557640713 0.062125051465518805 -0.5625234331276248 -0.9497192279221063
Ni 1.508684940264083 7.994660517710309 11.713489967113528 0.2174181397452901 1.3134400795230992 0.4900036686913432
Ni 6.092096782462949 5.82168771812125 0.7801154367105717 0.7594892185558338 -0.17081149563034453 -0.7630103443352149
Ni 8.509256996227293 7.926531457128989 7.023100695060118 0.5101652312408826 1.3742201869249495 -0.8527397877815637
Ni 0.31111574661251157 5.885102876230674 5.952609774347013 0.1987017942827094 -0.07691197996670625 -0.4607866808077548
Ni 3.9807861868849006 5.837655040945135 8.408325895612718 0.15632024399270497 -0.21102277774190753 -0.6740085230835102
Ni 1.0582574809454768 6.378800145522538 9.855032555168254 -0.531908022234613 -0.6772041472026724 1.7067016208956864
Ni 7.513224844443612 4.34273941888413 2.0432478384419013 -1.4970132456944865 -1.2464988376158597 -0.4617251334616241
Ni 6.815785262532072 3.6191780961071207 10.84536442719979 -0.19363440706213103 0.7121284698836833 2.681321211603898
Ni 6.520744014175369 5.062358865605641 9.090011597297849 -0.6434908141106274 0.28961934449988835 -1.100957943626846
Ni 2.0062060109830555 1.9218643956573462 2.0048835751450818 0.4490315971543557 -1.335199839797694 -0.5587907055580699
Ni 1.4705650006213946 2.420911353881673 8.699185485591652 0.45314690487430986 -1.1309940849776199 1.5825715884822809
Ni -0.2968841208259668 1.0278941361216725 2.6260305983216568 0.9188953005627142 -0.3061541089301179 -0.2896779656519656
Ni 6.871616396433335 2.384072069823836 6.120439234608531 -0.05585773039956832 -0.5707864444673654 0.8811882729302437
Ni 8.402235969586885 5.639970865028264 3.675557822897214 -1.6966943731713295 -1.7482473055479568 1.4018623741222502
Ni 5.4144755727935685 1.502445150286831 4.228563069763257 1.4017474458109407 -1.0463184019050946 3.5598260241647077
Ni 8.48705896608988 5.99664706940481 8.224823390831919 0.24351997903866443 -0.749244143789058 -0.08244885062453543
Ni 0.7440727022611843 1.8199387433651741 4.654722559882125 0.25665137421429995 -0.020447469221074464 -0.44088325701560843
Ni 3.264136771200597 4.39817091558161 2.1083060504186966 -0.2885353674070902 0.22042067401703977 -1.2150359911208881
Ni 5.420851602726656 7.127702100084894 9.941054463282597 0.403030447833893 -0.135217914796451 0.27794087972069553
Ni 6.878056005012478 1.25684084057086 12.148356098676636 0.9970591506586505 0.9127117974598216 1.2139931516786706
Ni 2.149003650025787 6.079608119844723 0.4730096861314762 1.0550138727965637 0.8831101725433049 -0.37075436140900664
Ni 6.865412937110973 4.60819843149715 6.790400125694485 0.4566353776435426 0.7941528313762903 0.14017191636761667
Ni 4.600859639209494 7.679110614668549 4.20269382694927 -0.9169165795697887 0.2162300329744599 0.2470043380428391
P 7.556812547647152 7.831000000097348 9.158073446167624 -1.3470050599627381 0.05093972427266066 0.4327410875244483
Ni 2.250175441229004 2.3671601499728268 6.349643886707433 0.7747101492706464 1.3586105054121504 0.9839154141878409
P 1.4957784751146286 4.088997042472936 4.708534617637912 -0.4466782664308307 0.796681254225099 0.5654925430582777
Ni 8.171854204269566 8.541754767025848 11.42671121794504 1.9687867645310477 1.7474505206782744 -2.718225026608783
P 5.800016482479731 5.390851564451745 11.968961682697456 0.1819968228232027 0.03643741689142757 -0.6424263774018549
P 3.907788818548402 2.6856982493792394 0.6932851715249395 -0.028160521594616017 -0.1255438820417967 0.7458582580359607
P 3.465880897801357 6.714113924824125 2.4267224421312306 0.5230711406692734 0.7061635105494999 -0.1846712843315723
Ni 3.0092408964966655 0.4984720256107023 5.183534315390953 1.1087746114577872 0.2533822165447249 -0.14896508917921442
