# total energy = -381167.9929695049 ev
CRYSTAL
PRIMVEC
9.22191426712262 0.00000000000000 0.00000000000000
0.00000000000000 9.22191426712262 0.00000000000000
0.00000000000000 0.00000000000000 13.49720369530967
PRIMCOORD
 96 1
Ni 8.09687743131658 1.6156424554522981 5.6892201088349825 1.40121419901529 0.380208564843371 -0.5034973323024038
Ni 4.479738414276116 4.1216883790276455 6.796503629602394 -1.502933210723347 -0.5366601922076177 0.8579377870427353
Ni 7.745863716495005 8.127881506382396 0.4599346639619253 -1.2872775621951187 1.0805744948744873 -0.27989774633675024
Ni 6.620697982176099 1.3434484400916162 9.112340198182947 0.4696618718101976 -0.1794218630071749 1.3377776278271993
Ni 4.942042187959757 5.572682780873438 11.135489813981268 -0.8998601383081342 0.017204022583112308 -0.05738316590515924
Ni 5.977183597236278 2.36420366343635 7.106439250440279 0.11100892165041526 -1.507387646950275 -0.3499441095318747
Ni 2.1882403212796495 4.273315089983071 0.6722323475104501 0.011771795823947467 -1.6077437168725341 2.0113187243559874
Ni 0.26989406999440757 1.3390126994293148 12.133513019170962 -0.05870497004037632 -0.31068413558998753 0.40062080995113586
Ni 3.3510314649586164 5.966661393295143 5.165852509019335 0.7886648116785255 1.604019731053728 -0.6868583824629848
Ni 8.960085474880115 5.8301586213962135 4.904762600376902 -0.8214636033761015 0.7626519325545317 0.7326924100779639
Ni 3.057903704684371 3.2810740249082664 12.339683663018794 0.8839750916467616 -0.13277768078607455 -0.645707619256288
Ni 4.421511248908608 1.9005995998704128 4.771558507136818 1.7477210007308417 0.6874595063820934 0.9687986131510605
Ni 1.1380948578293968 7.267412371294337 6.317339430444978 0.5305707914804282 -1.4263037949940662 -1.1117941150104014
Ni 8.229350226771798 3.335981301214592 8.520689857910035 -2.306040680189764 -1.4804671684103472 1.5325559186857862
Ni 7.08467092230439 4.08973444681377 11.403787570652089 -0.31810999574041343 -2.010996565129879 -1.246227072011712
Ni 3.8204084467253865 0.5551795145530168 6.509916972970083 1.3610484254296817 0.9510040081718009 1.0860272904589425
Ni 2.1765377123389835 0.3174496364130268 8.64171918020964 -0.08736814230302373 0.033188570936826714 0.15032057476584432
Ni 1.4003660936627684 6.712068706671073 8.970781050805556 -0.6051777774630417 -0.2668190587759211 -0.49531608204319216
Ni 0.4984675096653768 6.708730373781774 11.327810987295535 -1.6357602566901184 -0.4940598410385878 0.3394630074948928
Ni 1.5772055176550588 6.956615423683357 3.672453901948191 -0.33368342469863826 0.05910529080258853 0.8279715796979481
Ni 5.2755619318117155 0.13845320672237427 0.07428620650956896 1.9797044398848167 0.8908383944254981 2.6170325768281577
Ni 8.695960634320917 6.125241427450934 13.532431272326493 1.8645555279240984 -0.4059892733519008 -0.2142579968497536
Ni 5.964346692866376 9.022351838605394 2.7813689343761934 -1.2364951894359284 -0.3330403917980006 -0.5082752133070214
Ni 3.1683361255389637 7.819076492208124 7.406037105618205 -1.0854773314927435 -0.9440854266750968 -0.9887526876754843
P 3.605288857474857 0.5815523443784838 10.766827200033886 0.1471581178774627 0.16745440623265354 -1.4743517995412285
Ni 0.7355610757353069 7.213482617878248 1.463744620223543 0.7541330964502432 -0.9923656018377232 1.5983964713296794
P 3.3150752220432045 4.837004586829584 8.654852108020831 -0.07496231243950316 -1.1277884335561286 -0.06286038696964658
Ni 2.279823149797976 4.765912851349997 10.699475872896562 -0.3532027256784885 0.8053918946252194 -0.6273111190269712
P 1.759928522816888 6.038758317407145 13.384245257506421 -0.9781620566438316 1.619785478528417 -1.5725815671491046
P 6.662261148839286 3.3138579293874377 5.436700124927427 0.22886597657091554 -1.3131847689791833 -2.1175605636350627
P 7.651458982274673 7.140896932321129 8.290846560673163 -0.9851721694130774 0.009477086252499807 0.030797187886514702
Ni 3.1705217191709085 7.5868133647222145 0.5607670722812672 -0.370107214743311 -0.0992299267376162 0.10206019709755972
Ni 5.145200954675972 4.619265973986345 1.5578062992408857 -0.5845004516193482 -0.500600470370583 0.4467026919108629
Ni 7.3176072495165965 9.498571480603822 7.191215384191776 -1.5695697769059742 -1.1572391347170778 0.9420758524442356
Ni 8.029004143843528 2.9387196873879398 1.554689292288998 0.9476978266167035 0.14376374748393306 0.8452761324146668
Ni 3.1062173124386265 5.482658455831055 2.531575870455837 -0.424196797498863 -0.7595223857866145 -0.14670328972823124
Ni 5.219492694333977 8.546150640435084 8.237275539713965 1.0028958119450857 0.3907225770008174 -0.5098248171823284
Ni 1.6440275069254036 8.609486746191187 10.620207066221004 -0.5754306281075962 2.3289250409871056 0.15757725632825767
Ni 2.93776983023988 2.972342786046466 2.8874836550684377 0.6530036386970689 -0.4912735365427023 -1.2045680017100289
Ni 4.10704397950221 2.4112538689645446 0.7756183038326845 0.8325041774609792 0.10085974903155533 0.29894833521029807
Ni 6.62600980467399 7.57667848117155 5.956491466471056 0.7212890533370288 -0.6088464845638805 0.9345036965239326
Ni 5.055822163617708 6.371816965556161 7.571229252154183 0.5498401812330015 -1.0056219526269974 -0.5838329932386784
Ni 1.7199699691999402 1.9211644682216231 0.4052441026359826 0.29412288879719667 1.410281708534197 0.8674562680561319
Ni 1.2180396308054693 1.6909670494848923 3.9505102880760767 -0.9286086711957361 0.8251703628037272 0.6607195192840879
Ni 0.2276245047143147 3.950105446048894 12.598168380939608 0.16184477335535996 -0.44946071427197426 -0.6633176190285673
Ni 6.826199115063259 4.8266022677712135 3.2990678236198723 -1.7780016539922538 -0.6749351486628377 0.8301870992920283
Ni 6.6993240214417575 6.808769697492055 2.0293448976630475 -0.5857914025166299 -1.0939547728361352 0.40560515053960466
Ni 5.609570437108793 3.526874922232552 9.026012016295347 -1.1528893423888145 0.26148376260593675 0.5140915628784823
Ni 6.080072492390742 7.758082752622966 10.22618326642041 1.5541557563437491 -0.2739333012231992 -1.1418541676205753
Ni 1.5519651388760172 4.477442157675465 4.2326150944757925 -0.011072198653761576 0.15576617126144787 0.01002550255680209
Ni 1.1653271700451475 3.827647649261575 8.534929415408287 1.6177033991884078 0.5953885592867617 1.796257000658016
Ni 2.3733056926124236 2.106423499749633 7.2321523828903675 -0.28455761370626476 2.7122734370110386 0.634130970162282
Ni 3.1354231142629683 0.49196052710546023 12.859285033132814 -1.7708509018800858 0.17540734253114307 -1.575697487070267
Ni 4.387261060094081 1.3884790464409256 8.700459083998819 -1.1100653052447527 0.31817658731229076 0.8725290545933488
Ni 1.5838637396055404 0.37097270341912053 6.062215178007206 -1.382650834190806 -0.8278473954152582 -0.9807928093984594
Ni 4.69401880934729 8.125483808727097 11.904223036777623 -0.984253771363866 -0.4046433008469677 -1.7997107635345715
P 2.793299324594113 3.1639372725328974 5.415199232299244 -0.5433103505342837 0.13233416549075272 -0.1572170447753615
Ni 2.174223011910215 4.9672180133403865 6.749087314086063 -0.9307951373240938 -0.08192228869710408 0.5351463266662526
P 3.4756103019794677 0.38276107616053395 1.473853682414842 0.11676562162853438 0.25901884600521197 1.5547527664977996
Ni 8.39504957858101 8.185832014328138 3.039381490297193 0.2981242966471059 -0.5252655772174308 0.4491588667608393
P 5.303439778011585 4.485068680602124 12.89931736206223 -1.3751627533438768 -1.330861103213024 -0.2712940638281392
P 0.14962186683903375 1.6036263014336314 7.629212958990537 0.37683116373070585 -0.6038397753779084 0.24428411089819863
P 7.167373047584055 0.8196981308425274 1.4046810272508992 -0.6089578133307642 1.3461301135569526 -1.1495564213608396
Ni 7.153088302706914 6.260582238178449 11.899148217471044 -0.5065114365383793 1.6707599126937547 -0.9306866367706875
Ni 2.6697348981197337 6.971250601294733 11.460300382196058 2.217759539154168 -1.4066561959664676 2.6530017958339145
Ni 8.923234706300995 5.082639489700811 10.108312449685956 -0.20462458752504759 -1.3015512985053133 -0.6673269972982766
Ni 5.221678287965921 6.654551628686096 0.10905190031998484 1.0241938020919135 -0.7136603331471773 0.09474875103781101
Ni 6.5546414117726375 0.5837139610338755 11.491357022172009 1.0637887907757164 -1.1080441610496659 -0.282972528607332
Ni 8.054668730669276 1.2719693842215578 3.3692659556271582 -0.06045897661700555 0.0036244841264647257 0.030737795403489
Ni 6.545456385370034 5.5081109386334495 9.405175623781526 1.2824454309137978 1.0855071562894145 -0.4062672096036358
Ni 6.160312366616697 5.217500760897268 5.766302399687191 0.15477372544119153 2.1986747546085743 -0.8662707323884629
Ni 6.234290561196701 0.4291777361928866 4.898567318512174 0.6292214486758066 0.8646959317021753 0.8017273012894385
Ni 9.330455987311193 0.6519561250692817 1.1743480463775033 -2.7679121094212653 0.8890643332442109 -1.0047266945062374
Ni 3.9729020176023426 7.467979780160019 2.9796151874732657 0.3091918673151772 0.6409521068491736 -0.7223190372634398
Ni 0.7823171022050249 8.297564725065026 13.058854630897327 0.9106502869451026 1.1296290863092933 -1.448875252536679
Ni 5.120237233318695 2.367412889528826 11.11258534603333 -0.5572683553762725 0.3546204319616215 0.15307216936905252
Ni 0.031323153292251396 8.56070282081993 7.774254301116545 0.6982576254388619 -0.24690997855681993 1.499267846056618
Ni 8.825297978996128 0.6214657106165432 9.939813324768481 -0.1835672526341161 0.057561857574868605 -0.6781677966675224
Ni 4.4199804111748415 8.232633228176745 5.11317232495822 -0.31083917311061304 -1.4915833329281667 0.2560340523452752
Ni 8.538063021805481 3.5147204395030025 4.362917051361559 -0.3247115602173311 -0.09694061648280725 -1.878796097003513
Ni 4.420155627541959 4.095618027983309 4.2737817188344485 1.4606658174137037 1.486309743234053 -0.9202338168684797
Ni 8.075086048395544 5.230144005071935 7.1783259149117375 -0.491886744646669 2.270049606807136 0.7497408809198185
Ni 6.89409084636443 2.31592694333833 13.063538441047813 -0.5602379795275577 -0.6182981168950835 0.36455723145935925
Ni 5.748203471155315 2.4059604902947718 2.784351301382822 0.4322019271915266 0.07918252116843782 -0.030100676040122357
Ni 3.6821811768974535 6.737207644395467 9.389451338119802 0.9820703905593023 0.9808084931277431 1.057367717740721
Ni 0.08543181184108135 3.522937164929428 6.513655536929536 1.6115810883407535 -0.5503240628479554 -1.3896226375229486
Ni 3.2472849317966817 0.5164400979746474 3.675679727485973 -0.11177305350994944 -1.059991271406497 -0.8138323120830887
Ni 1.414281961977556 9.00967170677449 2.5139214381815957 2.5797248415166347 0.1252330356695972 1.4557370126535187
P 8.641164020983297 8.108727590882188 5.201497973430964 0.4826120042129624 0.23103573052872467 0.1662480446293782
Ni 2.719044472592344 2.5298753495033868 10.094059059316617 -0.20903840032202708 -0.5815956192677274 -0.6306244996709204
P 0.8139261348331004 3.3629185121804595 2.39005822169171 -0.26228311857878056 -0.032329051150008836 -0.1377807904276208
Ni 8.81051525075981 5.404299852073104 2.5500132432336726 1.4080687600432782 -0.32168408624491696 -0.9679815165664039
P 5.733863394793821 6.758630150754149 4.10709101126391 0.03078021860565022 -0.6869925940480038 -0.8039952713880089
P 8.130731077826576 8.221336383454666 11.77486540389148 0.15698435993926513 1.0207901757270033 -0.7652826853091594
P 8.77978783311576 2.733596652977192 10.704861470706925 -0.2791217874026741 1.189380752446629 0.012499932239223634
Ni 7.213962157409308 4.613825044691629 0.209223097401308 -0.4709458807289438 -0.32661134834320527 1.5848706689291028
