# total energy = -381165.44512069394 ev
CRYSTAL
PRIMVEC
9.30512625257158 0.00000000000000 0.00000000000000
0.00000000000000 9.30512625257158 0.00000000000000
0.00000000000000 0.00000000000000 13.61899284721243
PRIMCOORD
 96 1
Ni 1.7175960093398703 9.390919379291951 6.48826531133505 -1.957257680845526 -2.168120278860486 0.05747109763327522
Ni 0.6112490820296849 5.3913621565205 12.343819267252714 -0.46842517118961907 -0.44887784518531076 1.1411147183513894
Ni 4.894533557782331 3.5478584856982964 10.01121211339426 0.4102753023217644 -0.19084758834561324 0.7498748353945215
Ni 1.8819338416833389 4.496953434202727 7.5224909976540975 2.729353532421777 -1.5278739398290848 -1.1611572388245615
Ni 0.49016054536308684 3.2263570732471796 10.630263543672628 -2.225896566439005 -0.39562541361907355 -1.7107189695851959
Ni 1.8927929238612917 2.5166271889635397 12.013150444551625 1.1698100294035532 -1.1536197927969358 1.215775440390074
Ni 4.287932386247836 2.7524563052600612 7.927915342549908 -1.3675702857085996 -0.5645286364831117 -0.505067505003001
Ni 1.5051320647218753 4.957966602518495 3.39077492967525 0.6289517399541877 2.4584531044876305 -0.05576079981038784
Ni 0.9953879509340069 2.8392824370531025 3.811751862362175 0.5783434308790169 -2.195292468399903 1.1493563895348917
Ni 8.284325866139678 6.677191008928753 5.150675764391166 -0.11953058596818124 0.43093360200206426 1.0756459472246185
Ni 3.401349274994038 1.3231703235137597 6.123030736649006 2.502498415633303 0.3117478009678115 -0.08429207448086128
Ni 4.917675406434061 8.05454508181888 0.5007665281106711 0.3877709505716612 -0.09581884417353821 -0.9036126633720308
Ni 8.47835635592089 2.1274030686365517 5.909362708711536 0.7073531599822269 1.0972136460930653 -1.7652322701417278
Ni 0.786898225680368 1.04703140088057 1.6645949414929102 0.8620610651824895 0.8858823359718034 0.006434699881750208
Ni 8.516014201314357 1.0996518890693654 3.649685411303744 1.1222736743854866 -1.626413782478212 0.3306826901991014
Ni 8.691611236258789 1.189697594498715 12.358990344873053 1.84295209072171 -0.22070760912983925 0.1267211901793495
Ni 7.758911919971627 8.821445660962283 7.781224681886377 0.37594284758848157 -0.05814678354406116 0.3583847841000602
Ni 5.27410826232651 8.760143490106795 11.521041405779743 1.5388044706986597 -0.44200271533203234 0.09799939676462477
Ni 6.258599910578098 7.348276704450577 6.208857497897135 -0.8581835845049544 1.1442967156237969 0.6677463442238822
Ni 6.547412414981958 2.048774752952145 3.1950155474615918 0.8824807664894221 1.2937174042831914 0.8174583388714503
Ni 6.965324239126108 2.393101639767031 11.438115052342125 -0.9821439241097151 -0.29648598971273454 -0.08489062729680864
Ni 2.8775823361486075 4.9689187359576135 11.410427649582486 -0.14592116014656806 -1.2353052828928854 0.3839767736365516
Ni 3.491702049585232 0.9060838640561422 2.2978646044772875 -0.2836029631024793 1.2367492144282637 2.1316715491151483
Ni 5.88858157055556 2.6458567804694617 6.08270511159794 0.67727536676024 -0.6891073263981616 -0.11647277297846392
P 7.573302569325844 3.773256555618224 4.446846260577997 -0.594327207901783 0.1423126168597033 0.8692131028462385
Ni 7.421424300852367 4.089109756516626 1.0250117504384895 -0.4211657239820231 1.313735242166015 -0.6710422413663346
P 4.448036386208297 8.394535779863478 5.356363716171128 0.28345101090564734 0.4204226751684114 0.9858817938855925
Ni 2.5219869416066425 3.4464977469112856 2.1540343395819685 1.2951615929288856 -0.48931718414727987 -0.5058110680372451
P 1.8143321004469817 7.049498409975948 2.5781433777197074 0.22268015947517775 -0.37055124425926506 0.9276851309402024
P 5.511733267963515 1.189269558697356 12.719457903449618 -0.4294603598906474 0.9544919667204013 0.8788616816795961
P 7.094926035676691 4.0035025962448465 9.967141175081302 0.17430742459874496 -0.6827762419738111 0.8735852637720053
Ni 6.588773700569791 7.85394517299942 9.637561982648453 -1.0850340733077377 1.034020044153716 -0.5694237597918839
Ni 5.198652994647829 3.819838016957412 1.1740863844130665 -1.2844542338137104 -0.44365002112746826 -0.6426096970572546
Ni 3.8301108761900258 5.704088835043759 2.179270772122522 -0.5035233004443328 0.5196929682256598 -0.03867041998700437
Ni 6.8405611081561055 8.835673198794408 2.3455719860765716 2.023678531472921 1.400872242294839 -0.044413750228684795
Ni 1.522904855604386 0.16761602827431055 10.260100043682673 -0.2471586042325163 -0.33444267146216594 0.4555172048786994
Ni 9.29003320193688 8.091858637546036 1.6179092627412173 0.7978367079857808 -0.7819033245849759 0.6132399856458859
Ni 1.8541580402255926 1.800430242028934 8.152655540053399 0.3693626232678026 0.041893554909992366 1.6995436696946666
Ni 8.850031008392165 5.9468874908015374 2.891366949977588 -1.4409218020175572 0.24302607012138147 -0.5779251123946757
Ni 5.625265111710905 1.3066071990263937 1.3884429916831573 -1.4088313492409157 -0.5617788416521163 -2.5706208223328373
Ni 0.6255612965094702 3.458752598006713 0.6685900606973795 1.3965610165139948 -0.42087981731048807 0.6543241572807054
Ni 2.8517326957969766 7.207145856641654 10.77220114591585 -0.7448596415681171 0.6622837784474142 0.48724538921991567
Ni 2.913797886994017 1.9762412948740442 0.43550967865567175 0.54040371841045 -0.5009534828346275 -1.3107959570320329
Ni 3.080983087929134 6.722069632188622 6.5395272511108375 0.17991448637287724 0.6249310488305688 -0.22563744233128882
Ni 3.2513506419960927 8.971583870851974 12.49095843499506 -0.5476022930414182 0.7006724055279416 -0.551802961386327
Ni 4.690658244569863 6.918044893328183 8.20781260562155 1.6312091469843262 -1.0190274273996256 -0.7980465100037417
Ni 8.59874607761614 3.2608418706349207 2.6050817178269683 -0.30511461192201 0.3016917022833901 0.20608343145876123
Ni 6.175421388222723 4.542269398390071 12.121366269748659 0.2404919908456181 0.812481454482149 0.6611776898674291
Ni 7.939431366631685 1.5091425740780857 0.930919245661075 -0.25666731505389995 1.541206652382249 0.9137602933289941
Ni 1.3614050867264496 8.84820720367333 3.646403493322455 -0.09357170001057433 0.2934549161958946 0.42902301524291275
Ni 4.803082778309389 8.366136534955928 2.831715508495167 -2.2090833515364086 -1.1094983769976894 0.4987197084081023
Ni 6.857989609372306 7.011459054411705 12.375973130548273 0.10910142021505725 -0.604208728681553 0.10093276836133586
Ni 0.9060494350895112 5.359361827805863 10.210117558747907 0.3505346919280221 1.2134491062497426 -2.23402382353183
Ni 6.111448646171801 4.895985157456503 3.0550264386271633 2.2275186754234606 0.9806506273936402 1.0891383252840985
Ni 6.277312519198375 5.07749094748491 5.879891513275364 -0.13988729524766233 -0.7468260212658686 -0.8298723962650869
Ni 4.918140662739885 0.9071623281730443 4.328660923259747 -0.02414780089079712 0.12218524998220892 0.16367796990935682
P 7.686173749118964 1.8218599474752286 7.746755703213034 -2.0786626010182845 -0.6251706756452008 0.7585651640796678
Ni 1.4960130411277073 2.535060643800322 6.033854129998937 -0.49800725572211 0.04549978420401196 0.23844822094271192
P 2.6902422320451564 3.0466936981898396 9.86058631489606 -0.7230502590025096 0.4638259818547109 0.17745136954436536
Ni 1.2344738613713024 5.76854544365274 0.9468756759256455 0.06669261623154321 -0.16617913906465573 1.1523136723910028
P 1.4210230297548512 0.4412974671001334 13.233561468823064 -0.7946752795386636 2.1028710799436876 0.34527601463224405
P 8.615113794455059 6.384256333655284 0.19775998432870528 -1.372239666159811 0.6094308963124407 0.08879407611627288
P 0.2519809542095382 7.256835230103753 9.485069575851286 -0.2708952857278238 1.4352838870054894 0.023124501832605334
Ni 2.798730697437405 4.290751839461135 5.208937950544394 0.9604314721332878 0.8347068415392529 0.3150573249570187
Ni 3.834326098320799 1.1752188182614443 9.961067719265065 0.4013314628649153 -0.17431976589391912 0.29211357167665175
Ni 4.986617085831193 0.2346389906662212 7.927111379653442 0.1102555884241585 -0.3600143492836832 -1.1100038558791978
Ni 5.994241277608394 4.3064868077241325 8.179281227923145 0.2181251931146437 0.12899070293981654 -1.498162528807581
Ni 2.373067703238211 7.661598911045293 8.5438616522432 -1.2911617277408731 0.6609825431374874 -0.08112087584173126
Ni 2.782344370346252 6.634545615936844 13.033621293445263 0.7870689279463156 0.8736670248525341 0.6132034759809956
Ni 4.4445748792929605 6.443985938197085 4.601721710173599 -0.12013093855634148 -1.321063914616944 -0.7188305644942072
Ni 6.465629661544058 1.0479526083661033 9.701966482551182 -0.25316984342360266 -0.3411272825711932 -1.1357082026238374
Ni 0.21480511434890603 5.6413908952707965 7.891280130516644 -1.9247386251718979 3.727644755715316 -0.3844902229378604
Ni 0.21659914266416683 4.524003435823386 5.374517086711803 -1.1184329604831578 -0.26825013479549287 0.7041511081051616
Ni 8.88609767721971 1.2805249305218502 9.357486991667987 0.3388066048578165 -0.07240175080117853 0.6948074621067324
Ni 9.215815516031695 3.4524065019952617 8.035274165631613 -0.8527279607070218 -1.768452062630606 0.2799825927410726
Ni 7.663264528620146 8.711021729337803 0.22668776039967378 -0.8843599857900059 -0.574296771613469 -2.292409719669891
Ni 4.663785040345417 3.4081141016807317 3.5901847128644104 -0.6247490147267498 0.010869595724652247 0.38272798883111503
Ni 3.2783355077339364 5.250119647198178 9.308009775081343 0.0038458561086514406 -0.17707624559313376 -2.3651835090985074
Ni 7.07165391525933 0.25130540205348045 5.675361119184295 -0.49170496765316607 -0.07134914116694809 -0.7853128644871572
Ni 2.5956090994403738 8.579149482014795 1.1063525103858554 -0.8089325607886261 -1.4156949091299684 0.3451083787061282
Ni 7.65273112585627 5.989886478585873 10.16424887006924 2.0734903127887256 -0.3200012992258553 2.9086671519858616
Ni 5.082776259119081 6.136311943155083 10.629105985983735 0.45498447230368094 0.22880478431567694 0.14217634839215512
Ni 6.601391451583761 6.488399305151129 1.397240988426306 0.41468577268463425 0.3142949928696974 -0.9733420095473688
Ni 7.2560163790055014 6.142946498076146 8.059992302647478 -0.06485633435375282 1.2834270781007768 -2.2232912676056746
Ni 2.9874665704583308 4.360447234073703 13.551646969476813 -1.153486352542865 -0.4225543767994336 1.8975384106080222
Ni 0.7612263132375621 8.006446884922703 12.323622491016856 0.10758164113642119 -1.0887506029273766 0.4064818967176032
Ni 8.353807242851568 8.709951639834406 11.011009763594874 -0.6496174958336554 -0.775369123010884 -1.741929076639413
Ni 6.5463516306046765 7.203693654852434 3.7807415990663347 0.3594736462888648 -1.0937074327120195 0.42555382574738965
P 4.0634648289395585 4.893314586261069 7.050048342929434 0.9489065022128239 -0.647501220821601 -0.19043389784696232
Ni 1.247510343060516 6.647935692418484 5.314948460851819 0.07312860166487406 0.7957548857560877 -1.0093670214917263
P 3.0618052230030317 2.286371843210801 4.0833284816604465 -1.043455992755635 -1.3495249981711144 0.8217091437280042
Ni 8.402100847396191 3.485048884411936 12.773743078700653 0.01662578148213911 0.4719002742224131 -1.6881325996442476
P 4.329693792258678 8.323975008522075 9.672658126822048 -0.4446982598863245 0.7610406222033538 -0.09399593203218651
P 4.68157644148016 5.72884977563976 0.09616847841400518 1.474732579919415 0.5972204702891779 -0.31934361103719844
P 9.196246835808699 8.819761433135197 5.404615447648227 -0.27407779722086345 -0.45154639315640943 -0.493260485065744
Ni 4.247520223523885 3.216251706284663 12.114012428578791 0.8136456499935794 -2.669745333840841 1.231041879630841
