# total energy = -381164.28962206776 ev
CRYSTAL
PRIMVEC
9.33057583780426 0.00000000000000 0.00000000000000
0.00000000000000 9.33057583780426 0.00000000000000
0.00000000000000 0.00000000000000 13.65624088768941
PRIMCOORD
 96 1
Ni 1.0017119605990534 2.7768913356974374 4.977945250619835 -0.03106303995339166 0.5334941357748103 -0.6365848310194133
Ni 2.020069668489494 8.205383034766784 7.71611749577071 -0.7945765491772702 0.28144683599142495 -3.0107342910619566
Ni 0.2660501732719433 8.797538699621368 11.840370107795883 -1.0050167149428304 -1.0951937874495588 -2.453015478411827
Ni 8.919666606738499 2.087790987907031 6.820254386627756 1.508369294137254 -2.036468741259054 0.7476456889536865
Ni 4.484526672319168 7.053094241326699 3.9753730109287053 0.1766944367736828 -1.5331596137080563 -0.3314807606203646
Ni 2.218391057883231 8.10219619659669 4.605116900538531 0.40664079089297067 -0.16418987654876885 0.08761496820650717
Ni 4.103615244391154 8.89919532335436 0.22101148371167179 -0.9305933057259328 -0.9962248276828134 -1.9983439093628745
Ni 3.326826144894215 4.911540475452755 8.786494097004319 1.3953523409178743 1.8329543560790498 -1.5261222472453009
Ni 1.95547409197701 3.608730832626654 7.1436614756786305 0.6605842792578043 -2.772494329475309 -0.6336218917363474
Ni 4.489219951964666 3.7090065311359224 6.9396642970038664 -0.5777662182193082 1.2912699711839632 -0.05545252454134966
Ni 3.6571005377603703 1.177182769770478 6.228501802649287 -2.5486813419472685 0.034602420565217826 -1.2042335011887455
Ni 7.598587696425549 7.068181782453477 8.561985513469322 -0.6999674090411171 -0.05074020666734488 1.7206961354025656
Ni 0.38194245655789 1.0652345208903997 3.199206260840026 -0.11004424374430079 0.4334532831001245 -0.06915059085373253
Ni 4.503542385872894 0.12980790408772602 8.165653442857185 -0.0002997906286059353 1.3198225860106754 -0.048686409462109705
Ni 8.231685928048408 6.5509879638651505 11.170982467574149 -1.3325595739613694 0.08852668138749915 -0.3409804725806837
Ni 7.407292230636305 6.104081373049255 0.9789490877895985 0.3503801686280288 -0.1311617424492064 1.0189590360555354
Ni 6.123964830155727 3.94577922354973 10.369128642209018 0.2646282217721894 -0.5593854017192753 0.7658984645162874
Ni 7.258105653594833 8.751417663264123 10.659106144154748 0.9240130814052538 -0.5043388543670927 -0.7884161860028293
Ni 7.628725456375762 6.020535397013898 3.7931030111456026 0.7993240911645847 0.46615411576725524 0.9586406987814523
Ni 8.033140604834609 0.577937733395718 13.201501447942357 -0.4517219995023252 0.7698569349434032 -0.28582491045446257
Ni 0.8759945809578207 5.079976030443852 4.372222928499739 -0.720113802082005 1.4736174924783654 0.8650168053767039
Ni 2.3408082128512784 3.151513955512002 11.582158551283745 -0.32605933249447716 1.0800271070114495 1.0652712888585139
Ni 4.020386507934219 5.025709401381797 10.998517969937076 -0.40506290488288954 -0.4343256584027488 -0.8592439074486686
Ni 2.5499903925180956 6.703393589570035 0.548640658328327 0.5667978921332626 0.5088645101515882 0.6509938073558917
P 9.109543825000676 4.064613437396761 6.479381392669511 1.0149599421984716 1.7684985995978253 -0.7581337329692039
Ni 6.294350475496543 3.149339931342219 0.5693424069356139 0.11280123766414768 0.11709652260539188 0.679824615544655
P 8.6016992434 4.536684591242292 2.3469617276151067 -0.0801687963411071 0.15540415993633883 0.03591548294968653
Ni 1.0225937893199748 4.989021577194726 9.73307635027649 2.8142966102230758 0.004029432874367254 1.1051665823915546
P 2.052596055853717 1.2672041654360051 7.755993577720934 -0.45420465671486293 0.2509039302075614 -1.5482627878980821
P 7.410987138667352 1.4216251955214607 5.527103755907059 0.8426525787488907 -0.6440032349706715 -2.1565289744784604
P 5.980283292857483 6.332783117364941 10.829890205083759 -0.865247176219955 1.0646477963419019 -1.6459323121271139
Ni 4.681635086854229 8.248536948008187 10.748431478862912 1.7041598283104393 0.0035347526261358475 -1.1351286759712838
Ni 8.222597947184164 6.008284350941257 6.621679205571279 0.4732681011042172 -0.053273771722475986 -1.1785633501161508
Ni 5.66184007015135 1.9245432330807388 6.403301743418105 0.40128595433896047 -0.6783819695608575 0.3630181691070135
Ni 4.917754638959518 7.188322276917545 1.2321697192870706 -0.42808893346441756 -1.9080501087726236 0.7657632244900038
Ni 4.717492489791897 9.281245081534363 3.9748943523883193 -0.4350111145055475 1.51941063955308 0.9690084151690216
Ni 0.8201062978154725 2.447932554024155 9.156714551139467 -1.9070525207460445 -0.12064773029175996 -0.11609944879944521
Ni 3.9738829179676998 3.471422078624384 2.1426911630683487 0.7815019753814992 0.873923106727398 0.7308846674452638
Ni 2.882877346618325 3.03038442000932 0.25823021766380916 -0.8994338494039928 -0.9823742949529662 -0.24597975343306672
Ni 7.657911497590706 3.0275385943793465 12.101450816377586 -3.7830975373669817 -0.06623444564820206 1.6929554749541877
Ni 8.361716832898615 2.4397683001676738 1.4352301081479018 0.37881219871647664 -0.12593597527389278 -0.22130950437989627
Ni 0.47664033683240997 2.6818127679288097 13.341573918507242 0.2558080523773981 -0.48801980549209495 1.0904061362529285
Ni 6.24038242486124 7.934189848094048 12.743744330486802 0.9740256658779547 0.10447909095169748 0.0728375527870165
Ni 2.793854322567247 1.447470890587123 3.5824139434812747 0.013125995858996748 0.2602504044194679 -0.3712585547389348
Ni 2.9567475155117724 8.36785635179869 11.964983680315719 -2.2300275578882434 -0.8635602754358354 0.06780024747342517
Ni 1.855879525503768 1.0311685885132398 12.334467018959828 1.1442818032254616 0.08545678421292378 0.7564512030604584
Ni 6.8068510144393715 4.155978435982669 5.7357167704478815 -0.28504149532121875 -0.37243252044237796 -0.09205732024857693
Ni 8.864009721876883 8.929025174301986 1.5209230496831183 -1.3136300840467183 -0.49353147933894354 0.8779491971676558
Ni 4.990421163570124 3.1313692422821227 12.383875217184087 -1.4400309147721715 -0.012367006205785153 -0.6186678415296765
Ni 8.33135513912834 4.580417000185526 9.496673148665785 -2.0536444817073924 -0.6406062934739806 -0.24658267712438822
Ni 3.0480658612185003 3.9462924052207087 4.317966563071104 -0.4535947910450059 -1.014389414406982 -0.0034421929123295563
Ni 0.9555909242418084 0.5601433922189221 5.530326536800807 0.6258587028511609 -1.044327339616995 0.5631350985696947
Ni 0.229608676286943 6.577309518298447 2.2964338602905285 0.3236057287476621 0.49075623058665163 0.04873808863565155
Ni 4.081352490446507 8.079112351978477 6.227573410353607 0.6081378885326301 0.7093712188535203 -0.28276812590600975
Ni 2.6771568105866557 5.9924503637476 2.6896103301549372 0.07855568621771633 -0.33806561292673387 1.044221153056434
Ni 6.663094832534441 5.140531467619357 12.377142273660844 -0.08153996565702086 -0.2761174533587116 2.0128163919474367
P 7.70793271464739 2.059929888460797 9.80396540019034 -0.2263385821633715 -0.955451245309877 1.7919136360876557
Ni 0.6976602180623341 5.036644836261564 0.4667032735670921 -0.335594525678422 0.12666436879948506 -0.3968466876206843
P 8.778858886797737 7.171154017379344 13.427184750975103 0.9495875874402485 0.3547901247702664 -0.8923869698595406
Ni 8.916009021010796 0.12998611808619323 8.854897481515465 0.2195876365927831 1.190998233445394 1.3166418742898487
P 6.3752092456911384 8.530945486835769 7.441094107717307 -1.4977730066786463 -0.5307091168305055 0.06878806530799121
P 2.672360894606963 0.9141071840750449 1.1484389978501606 -1.2779495999259733 0.20735844151644287 0.17342116533904972
P 6.439319632260152 9.253206701147247 0.8549261407201796 -0.4397663698023458 0.3222844388330772 0.5508994757354513
Ni 1.9030735780821508 8.517238870932715 2.321984709159774 0.5588367283046569 0.47014138254977744 0.5753267555398801
Ni 6.193328330920396 8.042620469883962 2.725635683457653 2.643460432002383 0.05007274828667505 0.9326936398983872
Ni 6.530078143416721 7.856298201015295 5.294483169740263 -0.3173170675254729 0.8493004230827114 -0.7156267128449288
Ni 2.5632211490535144 7.065559890643567 9.493586594179243 2.889212899915992 -1.5480540143213857 1.8712709922710613
Ni 2.301591802612658 0.17682467572522514 9.504374605960804 0.39810524261813374 0.6889036950277877 2.937131577974142
Ni 7.9130001103705405 2.830878047484413 3.675481772157249 0.43826587399741945 0.7144267789995566 1.5342726442665768
Ni 6.82537220747379 1.010464040733202 2.8440761470044054 0.26881629171160804 -0.8375319696928738 -0.2047197183420152
Ni 4.693736843713493 7.332246409187524 8.508916930344606 0.4955158567588241 -2.3301720260203287 0.6591169506836584
Ni 2.9509905502209732 2.962747075774307 9.510998381746765 0.38193171818206484 -1.2196542066191898 -1.3182693825909426
Ni 6.2167947291478844 4.885442854839522 8.356076499805766 -0.34568070626983044 0.1515801582045583 -0.16836637652396166
Ni 4.751091893377257 1.292462034224001 1.3622519423043744 1.538543503727789 2.4035004024008346 1.902056353083034
Ni 8.382524017012848 8.581657166504316 6.870810245679842 1.2718568567646742 0.24120984284824912 -1.9424064747653063
Ni 3.0969207562956877 6.004953335367812 5.656346227099125 -0.39729200268821896 -0.6499514821343064 0.5724576615222012
Ni 1.323336909665256 3.722050676154621 2.486855984181526 0.036418904948666314 -1.1296033752776804 -0.18077606304222416
Ni 5.285873847416404 2.478126297429384 3.9336392113295378 -0.3187941662916316 0.38799335099511245 0.5801383179959105
Ni 1.27573231175009 8.387861106391028 0.11295781718553122 -0.11835739159568648 1.191567989905935 0.06620282107931823
Ni 8.532830263154638 8.266227719793203 4.009417482981442 0.3558519903758775 0.9501516874738346 -0.43768968977897527
Ni 5.08033059232562 2.160336215031769 9.17239178465908 2.0555617533347634 0.8060878922509794 -2.442305291083174
Ni 0.5266559555435928 7.368467704582795 9.649103966925427 -2.4977840408767693 0.9201309727420282 -0.21893714749297777
Ni 0.07052609051383228 4.249088252249906 11.78756184773699 0.7001766968384457 0.9589037226348519 -0.9515956190092126
Ni 7.135184647531643 2.664439235722216 8.022427237659738 -0.7312520780870116 1.6192843705222824 -1.007408869324091
Ni 5.694749011124848 6.249852959334758 6.696201581715662 -0.6686079208932291 -0.44553875350974875 -1.4805715551986953
Ni 6.071946869870143 1.0549522263191506 11.675813273179804 -0.474735429678363 0.5816953780703853 0.024401054552183783
Ni 1.4477321467105304 5.6002302779063795 7.601459647667864 -1.5233783659515765 3.2918772226597177 -0.6623418853788593
Ni 4.425314838064044 6.370450652014789 12.738555597264412 0.374670151523645 0.45840661061135246 0.4465327419919019
P 4.8543813678815475 4.914656887781973 4.714325692353166 1.2117136116158744 0.1259873973371185 0.7309034364983412
Ni 9.126740076266385 1.7991029715418345 11.30862339007618 2.856685873822564 -2.280098249292389 -1.6327356109311815
P 4.1317282693849595 1.6410896697595272 10.814541407833575 -1.7118219728413875 -1.2172597382450843 2.8931508015178173
Ni 1.0087285536277097 6.374294849259213 11.891049130449003 2.1557147061072808 0.537332535684294 0.8331790920408167
P 5.479455304285464 5.165696030648992 0.7949380025555023 -0.8971216563310483 -0.9794519790998487 -0.8985596743291556
P 0.4288696546673637 7.182527989323402 5.350883701496007 0.009331818923887155 -0.4165256541068504 0.7385992624807022
P 2.69791734182171 5.024711029767348 13.034294729788858 -0.3268535462609984 -1.5251948503350248 -1.6896670340109032
Ni 6.161735001139771 4.653736665104651 2.7892459511618575 -0.6600109232528375 -0.6573056085065324 0.147090754974637
