# total energy = -381168.97708852246 ev
CRYSTAL
PRIMVEC
9.21489677292220 0.00000000000000 0.00000000000000
0.00000000000000 9.21489677292220 0.00000000000000
0.00000000000000 0.00000000000000 13.48693288320937
PRIMCOORD
 96 1
Ni 2.594380429784725 7.193470838471697 12.100098286128317 -0.6221033495737867 1.234974381916028 0.31988559958359747
Ni 6.881776959627801 2.606000414447612 2.8636802551471954 0.1727061415498961 -0.4140332267022998 -0.3125584697945649
Ni 0.5058158129492448 8.461274747979486 4.176714563322165 -0.7861129917909494 -0.4773844372654359 -0.08007932195109435
Ni 1.4356440369065395 4.018376837338458 5.032743444559664 0.5650438855566333 0.4136858706652101 0.07662838728801642
Ni 2.369389513425447 6.08961836998063 9.819053829768716 0.6975788542042825 -0.41933278453834233 -0.21965114284086687
Ni 3.555319066287914 8.86514523791209 5.713806318826793 0.2400651877208446 0.0821742568069101 1.2754630860586937
Ni 2.7273606031948137 8.344991967280857 3.4337460134283306 0.6138210549603365 -1.7223755799875176 1.1384693103087424
Ni 4.8629128994867 7.721447556350186 9.56133160054459 0.5667860650587206 -0.39355901800834797 -0.3748143904109932
Ni 1.805668211480868 3.0118428922611487 12.225337946360908 -0.30702031358515514 -2.1311023068752397 -1.6042529301104564
Ni 6.338125702564878 5.036254320179457 3.595036192295455 0.5362881535801796 1.247847381223954 -0.23237013306943208
Ni 2.6748541221407853 2.7801619609413186 3.2218531511529758 0.6196803419545908 -0.20783486693222916 -0.9451948576891916
Ni 1.2803453838346641 6.249542901165724 3.8828072779725624 0.25596180434644306 0.7782130202175823 0.16002571786875022
Ni 3.087561697951032 0.5644640226137527 12.72575751583784 0.16215896216166914 0.9421761254675258 0.5980720196561957
Ni 4.395459622738933 7.675253279494474 0.021603403682531587 0.7569371415579417 0.1475178152097266 0.8403650682662946
Ni 1.4262540572305031 4.424477332257911 2.4544190506802632 0.2976123900076939 0.6922988367522658 -0.28771132884389805
Ni 4.055752458109806 0.8693563862477548 7.766423623870106 -1.526298882032481 -0.9882112133497173 -0.8414462171456154
Ni 2.8462143400559694 5.903256300335723 0.8711422332165634 -0.28528292190806354 -0.0965112422548725 -0.2179616709535859
Ni 4.3530065939190115 4.009558181254094 5.92843784838352 -0.5773576699269798 -0.011286885767728948 1.3757217111711404
Ni 9.03753752425094 1.1270095037470826 10.652775289220395 -1.3492043816069024 -1.454349645387689 1.4471613551693658
Ni 7.03977557741516 0.8291057177247647 13.00025638588453 -0.2575959975157564 -0.004151817384844463 -0.2677965921978421
Ni 1.169609970913242 7.548272003796947 1.8923785458827986 -0.4517186570682156 0.6568968031038881 -1.421658068691939
Ni 1.9374043738445736 5.374256728930208 7.314004450990303 -0.8262368563950286 -0.8098836118479859 1.0505794911742938
Ni 0.19224485965980506 0.5375666608116109 -0.3602748139293369 0.7339311675810715 -0.336298236613666 -0.39960959507780214
Ni 7.902971805259156 8.250272044719544 7.653888541634916 2.470299462303255 0.3774130043761048 0.5883673907739222
P 4.370772914640698 6.207873138560193 11.053849979512458 0.7867709370899224 -0.28263545698288745 -0.24016623207508314
Ni 6.86513485629618 2.7878011102557783 9.78110135646771 1.802768576524289 -1.0329178122284726 -0.37014012486377545
P 1.3714069924299455 1.1721348525925688 3.497566544576802 -0.16816608758769747 -1.254713255105852 -0.3780375253339812
Ni 3.0352671595197203 2.888151334664057 7.597067645974096 0.9019082790864145 1.502411276781606 2.721207763386191
P 8.861763370845255 2.875987671099417 13.067070836951299 -0.46489684632138645 -1.2494561204719707 -1.4610939060900578
P 3.972062766826427 6.80359777653507 2.34713093059182 0.7650307171993534 0.5104529376846305 0.9308344752024613
P 2.9851104771088606 3.4073001815615425 0.5301164168782689 0.4924194772216874 0.8192596537462471 1.104579599539833
Ni 3.9321622643757523 1.0442965915075317 4.005079741487113 1.2173330146851808 -0.9318094375212211 -1.4523318436267116
Ni 7.081731001816528 4.214810789010752 5.581351394525177 -0.2180873978981728 -0.5719629812739698 -0.1921123139906498
Ni 8.793941731575746 2.41926053404047 4.153273709249642 0.8168757268951028 0.7592627043673246 -0.23912030730907205
Ni -0.019957623142649254 5.619501988103939 5.97001730500198 -0.5415545441854416 -0.567554567793629 0.4425267061563024
Ni 0.9072683140035437 2.668247041249992 6.976507018575417 -0.5218971749658302 0.7677982526421616 0.5273522845431304
Ni 3.303042840977955 3.7917272395840014 10.211887637995735 -1.4578039224848764 0.28064799423921344 -0.9624582727553295
Ni 3.137967182571168 9.356990346065613 9.67119620573354 -0.5169148912598904 -0.6758221792534812 1.904606373198397
Ni 4.6550709057742345 1.9905374678701144 9.964914585702028 -0.04365218947231192 -0.31059106165554895 -0.5852794958772178
Ni 7.514720565131148 7.391047437327336 9.676456068735584 0.020292174590132793 1.5647139914755697 0.6632284017488707
Ni 7.241139498789789 6.917982288525884 5.675503679453473 0.03686524845746554 -0.7982712244200381 -0.49830241836502565
Ni 4.4530619416348145 2.6675559240020013 12.550750963322256 -0.6991228016526346 -0.3318507423652737 0.22961879557654002
Ni 5.837655451156427 8.161375936834634 7.152538267597356 -3.0081865849394385 0.055510631472794725 -0.5349722629822335
Ni 4.801762845384464 2.1185692417845887 2.002040423345675 -0.940217201968942 -0.15934900351669976 -2.215574872798023
Ni 4.114211762393196 5.513097576603259 8.177059690915709 0.12129230585429435 -0.2091006210185302 0.10879623026981264
Ni 2.9747897928721967 0.44517257816220324 1.6237458790370551 -0.038388627080527433 0.3251735874554142 -0.24369635671552867
Ni 4.822422643651072 6.912757442131072 4.769801897878709 0.43264904203127424 0.7070590257805758 -1.0303618785758384
Ni 7.689416575629967 0.031187817677669406 5.540567183486737 0.4297814906754921 1.4598188960323764 -0.4497075401754578
Ni 6.108223246296545 1.2931356603708157 8.027489939084845 2.6698672041306857 -1.232723123988006 0.5086968742254723
Ni 2.6751213541433416 6.749570837535461 5.686414117075089 -0.005231680712584538 -0.6162018964876872 -0.4994496445955914
Ni 2.927581877386098 5.0079369428051095 12.143566796557952 0.8336179793504482 -1.1482598140366032 0.16492212672910309
Ni 2.7735364502572457 2.227047005029241 5.553837556137827 0.5770249691779095 -0.7942443626488321 -0.9538959850076152
Ni 1.010625359185415 4.61144758508105 0.1284842253394925 -0.9732281096773238 0.71526135908571 -0.0765222007274553
Ni 8.634293647289848 3.4597605881323714 1.593521939547917 -0.9974967524167015 -0.0502817789736876 0.540671627359856
Ni 7.631934050390404 5.368884444189158 10.48630633844166 -1.1942599349158014 -0.615366030849953 0.17038160718177753
Ni 7.436449233072018 5.986319378647589 12.837024628295383 0.9234420393931322 -1.1271605701641427 0.7626372772665123
P 8.965154511144693 4.783922805489659 3.840767998011772 -1.7860697757123691 -0.2518200142639276 0.14106871715027317
Ni 5.176127236276176 5.036143741419778 13.319775554955012 0.28100794868179346 -0.13276533949090039 -0.8018404298285352
P 5.009586409303648 0.550320999250867 0.4880946452210942 0.48883844473864846 0.07433702015067843 -0.8539026977414134
Ni 5.569179437553561 3.463400472305124 7.864500533277327 0.008612938479991618 1.0165082605221978 0.3325184578562596
P 1.7411270754151578 9.01091568785833 11.463447527706746 -2.621858537461891 1.1368968236153 -2.06983600386559
P 5.763862558864278 8.943794380733454 4.655257968176025 -0.727667703169863 0.0677573100506317 0.4354155490328179
P 0.5221796264023414 6.936034271043406 -0.20570045173335594 -0.24157802482094523 0.16827484525141986 2.5204447156990786
Ni -0.37127647902768807 3.5841064033908947 10.863643454989395 -0.9165561109065763 -2.1541897848223224 3.756376319322053
Ni 6.136245746978415 7.498354908698723 11.801160588703004 -0.8489877769382992 -0.4980157403625423 -0.6630227134959679
Ni 4.504877305440853 4.436567276649432 2.0500813654880186 -0.9119556360200876 0.7038988828850393 -0.749453945807019
Ni 7.7419322715806365 8.224451904334604 0.689315735697805 0.6166101876696993 -0.7047769146146184 0.9830597510557652
Ni 1.09076731526244 0.6644594735013962 5.879116035608233 -0.4150662959525045 0.7147242556353175 -0.7937316846784717
Ni 5.434494508265095 4.069915754245299 10.838719924047515 -0.48628611063043997 3.0098068941516813 -0.18409664277502488
Ni 3.5393680802042837 4.988723883310962 4.1283363559628015 -1.0896648872115295 1.1939017802454341 -1.0802880739823202
Ni 0.8834892732243367 7.909449877596991 9.79156671458162 -0.7081314329091482 -0.4123527536760833 0.3202949192068742
Ni 7.594567644515696 7.170332233008962 3.263068619354161 0.9078372429763397 1.4424652352452771 1.0712635018862067
Ni 8.482404505974728 7.929916163034162 11.869363724693402 0.1893684326969255 0.7185829672597754 -1.1528659453500467
Ni 0.850656596496449 4.048979509079494 9.345608105736035 2.064762960218057 1.9205446416952086 -3.4311795919381876
Ni 0.5696584598496524 5.847183654282061 11.546284841050936 -0.03618570589193768 -0.9113683960580498 -1.6711867158185283
Ni 6.759670364252767 3.032548765010956 12.321796719918167 1.499995468251262 0.7188837863296458 0.43755959195901417
Ni 5.901302742248069 0.14108098904620664 2.491993713219032 0.9838146269439186 -1.1251448252856946 -0.031094150301643222
Ni 1.3489779340084804 0.1940961323947567 8.153107410079672 0.07515925894165766 1.2279334159088464 -0.5621634786850448
Ni 5.180126501417883 0.3717897487705294 11.597885497765265 0.25632073034775854 0.2637350205339587 -0.4745418256103182
Ni 8.564859401108363 0.606980634220489 2.598352050236512 -0.07217369395077247 -0.010566976882568899 -1.0610132849131082
Ni 5.320414087863396 1.7640260935652563 5.731461139299137 1.3095433155718543 -0.8703508159951076 1.2826292647898296
Ni 5.016792458476033 3.1460578618209816 3.9493379102228228 -0.6211214452764916 0.38227161801998677 1.1948088654407358
Ni 8.207551783897067 3.8201275510281074 7.6151675459541455 -0.5405497570700111 0.8107729564314746 1.6049363293307262
Ni 2.8163396451494824 7.7056255788195145 7.896842056014309 0.937779796172043 -0.5102649900435406 -0.0355491007492033
Ni 1.1978812738043898 2.050812106791561 0.9639896887806529 1.398808932007907 0.45762705213285054 1.6767395273159573
Ni 1.6867131107566744 2.0167354190172895 9.984403170605708 1.5197813926289374 -0.039493430108931984 -1.0394075337178743
Ni 8.694052251999462 5.867318203440195 1.5889900533804249 -0.485490354202022 0.15605722013930542 0.13469340975154867
Ni 6.494788160339456 5.891875902985473 8.221930708613934 0.855273867057327 -0.39462833981312684 0.31102994896518044
P 7.073290156494399 0.31188278422501403 9.987774901286237 -0.616691434529596 0.4382064815143937 -0.21822546613793384
Ni 0.7042991576342478 7.749377908065658 6.456707599975156 -0.2763385682305821 -0.4087573230153412 0.7259108683797563
P 8.837592696958852 5.9909544716574485 8.282837489444875 0.3944838438154626 -0.04802126507428504 -0.03306901463982692
Ni 6.210582318172317 6.6752803408247585 1.5529800802911067 -1.6586793273801372 -0.2924550141764705 -0.3535122864991073
P 5.5115586888644 5.681287870074325 6.395962079835412 0.0015390623523457365 0.40634485691910666 0.050198218120945805
P 8.058952360682383 2.2338291689561913 6.10642449847244 -0.6806288566135051 -0.9913165917479186 1.595078205589724
P 6.670783471264499 4.518119111912359 1.5019590405754266 0.22718421799311841 -0.3163387627726036 -1.0441959562454532
Ni 8.616333813738725 1.3873303338236556 8.346590751847875 -1.0138140015194863 0.42911557495671904 -0.3323215113541051
