# total energy = -340858.46059669915 ev
CRYSTAL
PRIMVEC
9.31782007581355 0.00000000000000 0.00000000000000

0.00000000000000 9.31782007581355 0.00000000000000

0.00000000000000 0.00000000000000 13.63757154063642

PRIMCOORD
 96 1
Ni 6.8415534423036455 0.8587349518953171 0.2826970686957295 -0.8964783663200949 -0.29953917471676156 -1.1204623322083607
Ni 4.156931091782294 4.910491150208951 10.159799667308308 -0.02557270626278177 -0.34054287082263285 0.6047093224670554
Ni 2.264891829928729 8.857081772873945 8.188134042697197 0.12921104648073878 -0.6721994948992295 -1.3129788236159645
Ni 0.18183446233203535 3.7585849681341292 2.430706164301458 -0.265161211457524 1.0841241598989586 0.6431200610347698
Ni 5.439584924368942 7.248499913829691 10.466835813676639 1.741268046016646 -0.16957813744387568 0.5488289663596677
Ni 5.4640162484597345 6.647696196800616 2.4602175638668125 -0.6580432580035055 0.04501101749305152 1.1727876239746382
Ni 3.7664492082304792 6.940191885028716 9.084681640013129 0.04692391824504821 0.2854585282539793 -2.827481741454782
Ni 4.689817218690169 0.03083453000810524 8.40966335009376 -0.7536042205299666 -2.3959236184948414 1.404659477251413
Ni 7.208451923386431 2.9373868541868515 3.5965275787932103 0.646473550888035 0.1598925347249956 -0.23769617326803583
Ni 3.115655386797473 5.093353368089124 4.393002720883088 0.3012309605968877 0.6341366265892369 2.5415545010945007
Ni 7.858882349838681 7.954054563516545 6.612394703875223 1.4173635550816428 0.4246441694489268 -0.9534655823384158
Ni 0.6386694740237991 3.962626590918333 13.3175520331713 0.24879125473993277 0.8595483260629648 -0.24692643361705213
Ni 2.701319883996066 0.6265656258186352 2.179761430885742 0.7636456639263687 -0.5514386360683728 -1.4303579104587818
Ni 2.056731730695962 6.820047913698936 10.439601689324016 0.7845495039585714 -0.3408452325544 -0.3919225108461895
Ni 5.123990360312818 1.718942119353695 7.242368788256944 -1.2415638622080876 4.169113452920749 -1.063022087813021
Ni 5.342185751706448 0.4083199181969005 10.66308028466863 -0.3888765249310141 0.9091379640656342 1.0654083286570102
Ni 4.570250952201589 2.8799704472274823 4.680700663583215 0.06431228892482473 -0.04796032992936256 -0.6230564575156754
Ni 0.31572501353639487 6.151345242188698 5.943417156674413 2.5024297671788966 0.4103316094809965 -1.4172522263147591
Ni 1.0221555383050698 0.5079553676640434 0.1903789032897993 0.11768196279521667 0.9887586012127552 -0.9694897256808143
Ni 5.77484008866594 2.428838873169576 1.8676657082468924 -0.6819637733748448 -2.652200897199174 -0.779720200890728
Ni 8.006243673445047 6.83274810238534 9.582248570137574 0.7481398549812858 -0.4265771248055814 -0.29578973497665834
Ni 9.245038527200512 1.9507322101555884 4.096507824302673 1.077954540753137 1.4716907077692978 -0.18407555972910233
Ni 3.215421285744887 0.35944515684928946 12.857966401009818 -0.24158933767485488 -0.580604973219684 0.5102927579576825
Ni 7.953439587395266 2.6655487729416976 0.8475917709341503 1.25019865506495 2.0598583238275885 -0.07429562538978172
P 2.8335490678909716 6.192129340413488 7.203651382512451 0.5032777600924301 -0.8969401364478617 -0.016583101169661763
P 3.778310793115139 1.9831954951030797 10.088979576251072 -1.2763424033398534 -0.6585819041157949 0.37107163553910927
P 3.9348874407206633 7.910652157866311 11.820596726177117 -0.17975713485940653 -0.2779005134010633 0.3883072826911054
P 0.5128239286241651 8.576121545829826 6.165736615208617 0.8474134904726437 -0.03286718304166598 -0.7980038296912644
P 8.487509077445601 5.719892904011704 3.2445963120075425 0.38644477556106993 -0.2964944743531668 -0.5757232196473504
P 6.5345405904853635 1.6464308439629431 5.063193448250421 -0.5477506456938245 -0.7319125944891458 0.5695194048294836
P 2.2158707788068135 5.626593572157734 0.9788146302669637 -0.4252877165701966 -1.8297993553898357 0.0027739632007113516
P 7.964108491317447 4.698007582487196 13.202928870202998 0.4982173148503871 -0.8611753201434265 0.13248714612884924
Ni 8.909140433322175 7.880164250762927 3.169085630352555 -0.5403163009029662 -0.8026166458729274 -1.5458464651471056
Ni 2.1313115621310144 3.043805676628097 1.1812591786998476 0.5752272538475384 -0.8057245953742899 0.9280612833326984
Ni 4.376682559119159 2.3372819736592283 12.536010561226469 0.2852847216802764 -0.4018330850916822 -1.7383256755588707
Ni 6.265870568046796 5.47951178315195 8.882654529917112 1.1333245328830095 0.30560723528771233 2.0691778014563007
Ni 2.209292397873137 3.7217795790576105 10.638833453414222 -0.5683258987420147 -2.364820212221818 1.7778407029343575
Ni 7.788281227551901 1.4337609198408008 9.486103576049688 -1.1631107630065065 1.3225381851696254 0.7830952880105481
Ni 2.015006532649215 4.500413891156398 8.581141987256265 0.408665020411851 1.3215904765443756 -1.4679592657513234
Ni 2.2198774414151434 2.373630789554798 4.234315587043177 0.4592486468966736 0.7617358484981654 -0.005190028841371706
Ni 2.582909027189889 7.78176807135836 5.649745559559867 -0.7437039306971192 -1.4138455146260553 0.07253416261398475
Ni 9.154208417651674 3.755221235107136 7.122167046443044 0.8990325002005162 -0.9802981291502278 0.9385503557894804
Ni 2.8976743052642884 1.9399235389331169 7.990130367285547 0.2033791451537207 -0.2798123857117955 0.7136803877518354
Ni 1.8070607432768941 7.7524448917573965 1.0344140623225553 -1.3315373033444422 1.2451052997024428 1.0701653837260217
Ni 5.635007563635226 7.341911059523893 13.065298146042863 -0.37210907566468815 0.8144421777529457 -0.9820691050077217
Ni 1.3508789107684882 6.235615606443896 3.559242321985694 -0.3454459645512051 0.4409652752064535 -0.6352270314399383
Ni 8.556889565309843 3.1249172998967287 11.581448352905925 0.7139819781526542 1.5025699138466575 0.18263779884131126
Ni 6.577570283334823 8.530566723755118 3.559392338888006 -0.5645864863042406 -1.9691230648245441 0.6718765643421719
Ni 0.5399984189286612 1.1768779397267388 10.355663039461508 1.4006652684903556 -0.6741800156643679 0.7972751790553559
Ni 4.6825772725351165 3.9994226621748328 0.3112533917090983 -0.600449775859753 0.933313275760257 0.5870944375987697
Ni 9.28954043561303 4.241956199459062 9.771579218675193 -0.7554919244709828 0.6770565658812145 -1.4426099883532575
Ni 6.115136193593418 7.201556736572096 7.62768487239002 -2.316829543275152 1.60619591276944 0.6055511016420604
Ni 4.738176704590709 4.584973107832196 7.922856638527684 -3.9356472585736615 -0.8717117008983761 -3.0577577109993466
Ni 5.988600197730349 9.25395568095905 6.43832478096533 0.24196240474355749 -0.6341173433155272 -1.8704680367537916
Ni 1.4682089004524181 9.116396704013063 3.874134322412357 0.06124830528752032 -0.4386723654072187 2.1533444061028915
Ni 1.115585319639311 1.3991638541088731 6.35015770437803 -0.3220568962033034 0.37125186987071546 0.22948972619784347
P 1.9735608692030493 2.3516500521291 12.85421597845202 0.803781612715306 -0.7670127806263887 -1.861365560231891
P 5.972210152316274 4.412966150274593 1.9695924096567987 0.7108028090937243 3.140296036013895 -0.0065887089611112335
P 6.934116666376085 8.325192652708143 1.4568467507207965 -0.3921649658742988 0.037513680674741846 0.0222104746587682
P 6.656156777378204 2.0305300208014887 11.568792889755615 -1.0091482206127007 -0.2512638846501415 0.15369643321661272
P 3.3363386361362752 7.496689367865678 3.1429556676722306 0.011933003992160093 0.19208865984156595 0.14136773644793074
P 4.95218839479564 5.028864735735051 12.10015368952632 1.3682691115478371 0.7030733016599504 -0.06487227519335279
P 6.884145197612194 8.913137778110487 8.930904997323426 -0.3228637083753149 -0.6741172807472327 -1.2349412146852474
P 0.6622156052127517 3.9175842489446895 5.217217013170638 1.5860160953874556 -0.647043307348576 -1.708915854938186
Ni 0.40806181458236385 5.983000187898706 11.522752609257896 -1.621529200692401 -1.9251260904183038 1.415096613424337
Ni 7.702911360534416 0.843887005694448 2.5450712236552238 0.5996290797306706 0.7279834346380688 -1.1503344371774447
Ni 6.148801477323408 3.6229547799321526 6.228428771862954 1.3658101084843832 0.8304922892372728 -0.2882813424147551
Ni 6.839512839719403 4.265660733588343 10.620081340625237 0.3850422387865885 0.9625161225764585 2.310360904831673
Ni 2.8285547163605886 3.749052838254312 6.4538715636676525 -0.450873792569417 0.32608992862209646 -1.2129405420444401
Ni 3.887888356542952 6.980277146752054 0.8167367417220024 -0.011509800411812435 -0.6782886385161028 -0.3425071936378553
Ni 7.39388585959195 6.374180907951975 12.045807504263331 0.22104108120985802 -0.3523041251236191 -1.1940689019509176
Ni 4.749991700375271 0.4499668465554848 3.7588551849146907 -1.41745405791292 0.6961729749956914 0.4817483706610864
Ni 9.218939313326251 9.225806546680527 8.192798543398895 -0.5461835583170207 0.25368380694554377 0.2998374226834707
Ni 6.486153151124766 4.953986734059379 3.992644879892741 -0.5655586204095228 1.8750404866158223 1.2763817412182212
Ni 2.78388508718772 4.968289587789115 12.541465213065809 0.12405752730425731 0.4818725549437765 0.3110338056199224
Ni 5.570127582840342 2.9011778055915727 9.45106857277685 -0.5567963008358604 -1.6888990454966268 -0.568522331023537
Ni 4.993112260320721 9.190948581988058 0.9052746675460734 -1.9110153620485348 -0.2535197705638537 1.0922871553257252
Ni 0.055587318889566494 5.976291357484759 0.9676444276277407 1.0433012123453258 -0.15205555517908007 0.8691989617788515
Ni 8.42106370288746 8.393818397150818 13.354919286794987 0.4451726284195817 -1.626064369558593 0.17312008915886315
Ni 7.471233083572756 1.8423566455102747 7.112511921338971 1.2491231626125843 -0.8073970979807062 -0.30795105292954056
Ni 7.156626208438685 6.302349833422637 0.8679847518285475 -0.8152880706930088 -1.2546188956198328 0.4547679854175007
Ni 7.515679085065158 8.601726915243061 10.896555969112029 1.2687900449138922 1.136705019319468 2.1376357371183827
Ni 3.564830218651311 4.358065554720454 2.434265571548858 0.9541947471949568 2.1800455695431613 -0.9096239025631172
Ni 8.232340576215103 0.12701400003006316 4.7582575385144565 0.18181093206464172 -0.13361997418171181 2.2128186502091247
Ni 8.005712557703943 5.765457043906432 7.2591296829077905 -2.380688546712642 -1.2284203828475941 1.4577774401223154
Ni 8.463552962175797 1.2073472111900847 12.476836813411445 0.9427561663407119 -1.7704264127481575 -0.47808249177372497
Ni 2.795280781071412 9.02951735015244 10.426278138478317 -0.06181574775521612 1.8796273346555565 0.0062266976360021795
Ni 5.047463104493717 7.4807093065324555 5.168653467011673 -0.6093581340929763 -0.162286745988785 -1.0828303807881996
P 0.49050029542175416 6.363968577210742 8.42380500553716 0.45380099351854103 -0.59136606839093 0.3163279641393262
P 0.5633619208452341 8.112168651425266 11.587599045900713 -0.6761332827359968 1.4395467760469014 0.14041205740288076
P 0.4792275967623181 0.6152034760870131 2.191434795806011 -0.4108846537709892 0.1909442618244776 0.6410513514311992
P 7.321393219841237 3.656750513142414 8.38638370855736 0.47131946201827857 0.039863668964157155 -0.26571785529194236
P 3.7973098281346385 2.3422204182694952 2.630141988650087 -0.16762024238655648 -1.461350245075238 0.7946829928481476
P 3.6030612341907937 0.2859350111524612 6.085548387903906 0.8291902825963978 0.8506386822781609 0.8497249122146399
P 5.719669276331239 5.7244027289010795 6.1199963685155225 0.05395588539116514 -0.6052217433270997 -0.17611928099650312
P 0.8910817640925662 2.407351980204904 8.604216636752238 -0.4588573249955258 -0.01803243202167862 -0.17624012284508359
