# total energy = -340889.0037853992 ev
CRYSTAL
PRIMVEC
9.08573697314680 0.00000000000000 0.00000000000000
0.00000000000000 9.08573697314680 0.00000000000000
0.00000000000000 0.00000000000000 13.29789446056699
PRIMCOORD
 96 1
Ni 6.517753511744814 1.831884502426272 11.178822092847076 0.37529004449583114 1.2787877795565523 2.473730599471991
Ni 4.685623694414585 0.24842313464696003 5.846034058878673 -0.19572008594656615 -0.05976400743250997 -0.28115347312072225
Ni 2.9828202601553295 1.8415244695780426 4.88398441718006 -0.6303895008419788 -0.4592946696432606 0.7639295137153747
Ni 3.5481439134543993 4.437301411450363 4.772894017210238 0.12178390077873222 -0.18762342498136073 -0.4268067243178843
Ni 3.8828533855600296 2.8304978762727346 2.916587053234522 0.09543986356756466 -0.003358889169903893 -1.2158430604032158
Ni 5.325695707522907 4.66554421523889 2.4111474937123787 -0.09784333080273472 0.07968645738804986 0.20031001931009376
Ni 5.02593906636248 4.589414823377735 11.19068352274023 0.6185189746566381 0.3499528512826231 0.448438443655047
Ni 5.817879176494218 8.539947865218197 12.442640866492276 -1.381393821855253 -0.3701614650200141 -1.1240564773175223
Ni 2.1256899857314586 6.509885263343841 0.1298960587923822 0.17875543306776956 0.5034016872648039 -0.07424188933371084
Ni 2.510334669398004 1.853590328557827 0.2014762220457221 0.8722624311955237 -0.04462175247443283 0.1315774898303863
Ni 8.111618957173034 8.783600079270064 6.589133788780115 0.06370987945413545 0.4704038921825447 0.6802439624702608
Ni 8.916642528849117 2.556999015572833 1.4264116748401048 -0.2350854751180661 0.7542747642344301 -0.2707955269251659
Ni 6.913882567211395 0.7822229142139066 4.643332313546211 0.6047244919757069 -0.5238854090404526 0.03251777012204722
Ni 1.1140930934496707 7.29420243997856 2.448221844289947 -0.33280410741747846 1.6449442371822316 -0.9405087650674319
Ni 7.821992912972292 4.0791779946226665 3.727572685650464 0.29850276303244716 -0.8415865993782216 -0.9182178148797154
Ni 7.626486020256177 4.109478928129881 12.318291650250465 0.012133035818108135 -1.1144176686761775 -0.11909298421013038
Ni 8.040441292076927 7.233882230816822 9.159576969663481 1.105630666512167 0.18973610044898936 -0.4610803007887736
Ni 7.2616755008613705 0.8612479305154658 0.40039662622170524 -0.17193532482214258 0.5712831815981257 -0.0671962953408391
Ni 1.892340997645764 6.776269991829005 9.019310450449769 -0.24782966215761185 -0.08966825119111009 -0.5065996253768114
Ni 0.39363683775712727 5.138293292374539 1.1487624493947468 -0.4679369186992909 -1.0888228509262088 0.6441130210756584
Ni 6.436072734464497 1.9062058325878957 6.6715941223107835 0.22277014808582277 0.47811720166640237 2.0350561771822435
Ni 3.666067696359988 4.385267394600043 0.12767823034587214 -0.482915137275678 -0.20157448784481413 0.20726022537568176
Ni 6.263561842560004 5.619964563424456 4.536297786655133 -0.08890231955936301 0.03031793425725101 -0.360087882834096
Ni 5.064108248270669 2.9624136944410253 9.154563459885585 0.575792125212073 -0.5621351965502706 1.5392888665342457
P 0.39058221291601014 5.690360855122776 12.280818435810538 -1.1873143568359035 -0.7545850963859971 0.4846179788993977
P 4.084802065939297 6.3818036262670175 12.257999606873996 -0.4182781180215829 -0.49851453437583176 1.2328642775515606
P 2.5250353921610245 8.629969349233034 1.058782759770954 1.195404847153522 -0.4141746373761706 1.2139674406470575
P 6.3279433762428 7.84141821907077 5.815647719441933 0.92057448803735 0.07589767976957897 0.06677334887080758
P 4.532111078960943 1.3389560030059084 12.79067275503018 -0.03616128041190547 -0.8100486766709404 -2.155498733441733
P 4.429596706318693 6.1642729066179225 8.02758043109358 -0.9007744225922872 1.238172062917719 0.3664835019477946
P 5.013718749850575 0.9409461999423278 3.6512297789654955 -0.6558675905084254 1.8700564031376696 0.9964508276506904
P 0.3662169915108235 5.656634598697355 3.5054845602300895 -0.7244443111365588 -0.06125936103111385 0.3701524661589496
Ni 0.7218454649079116 -0.06872724177769812 4.443012705843957 -0.3671188215389484 0.19991278387167505 -0.027480207698139768
Ni 2.1690652950458342 6.504897193630058 4.548066542029015 0.25120937726312215 0.2869687942509187 0.5505714029720711
Ni 6.2674868810233075 5.867814388055133 9.507675184082824 -0.9547184809089105 -0.6504230224540862 -1.3137558109913052
Ni -0.11684348875446181 2.459372769535346 10.11440526744859 -0.9422951675438933 -0.048590250203877604 -0.1484279857288218
Ni 2.6024549587022467 5.377466237994904 6.82316329858086 0.09288058748082068 0.46952894577675913 1.2631217908845214
Ni 0.5523110605047572 -0.2644185749586396 8.700572795739141 0.8366444248815978 0.7735829776447387 1.1346123984564975
Ni 1.390771962163823 0.9318150340728373 11.244580115713182 0.6871854267851003 0.6648373981072033 -0.17671603404023759
Ni 4.185017747074103 7.0887830079951675 1.232522951916384 0.7098707841977582 0.969771261476975 0.23122804904518887
Ni 5.763401096341516 8.134251528497314 8.241942045613046 -0.599456044487916 -0.7520026803708016 -1.4282861155314177
Ni 5.340305572914092 2.914786260124738 4.8885318286404384 0.7461511066860311 0.21951950235900905 -0.6998036297697432
Ni 0.9400194547496034 7.303369948796785 6.64102152526178 0.12287456273974967 0.575828377766647 0.041130451491722717
Ni 5.663676045014624 4.551509127847871 7.525052850338773 -0.315831741229198 -0.4644651581006065 -1.526890749980209
Ni 0.7917247781604867 7.56255877343256 11.523250578017974 1.0495806175961342 0.6850336705494202 -1.1806238321896054
Ni 4.626802631888136 0.6240974699921642 10.250403307333459 -0.060802218889037224 -0.6086217701475841 0.22183606630732763
Ni 7.842599364904634 7.420530529778953 4.348877200032398 1.478009965119106 0.07010292746467282 0.9332960493690766
Ni 7.521036954503633 6.09987320146076 6.884280326893598 -1.6335056563279866 1.782772078797704 -0.7873499495218441
Ni 2.762027760857332 5.344348725960781 2.4257491819400987 -0.9102219411584325 -0.8615594429557225 -0.5904893222129314
Ni 2.299999853598299 5.631803278974652 11.022425664411369 -0.07773936096400806 -1.071675906833277 1.4858402597968023
Ni 1.1003191158793746 3.5042961458064776 3.905272442060495 0.6385794928519389 0.6508475115860146 0.1610580157880065
Ni 1.7822036915064972 1.5246593853009487 2.7707627885856185 -0.5293700863041076 -1.150611087877599 -0.8834773260747365
Ni 1.0245804107171133 3.334056688197878 8.099508578081052 0.31991542438026843 0.4783097772931827 -1.0418675652225928
Ni 3.9826238655728403 2.8890736238952277 7.094028204071244 -1.523159565072551 1.0252070738477763 -1.8566558134610476
Ni 4.637015000482473 6.505169765745566 5.7755151097283735 -1.666269738132885 1.0926633077182213 1.4937350891638468
Ni 0.7566847241383207 0.3682194879860829 0.4830995489351747 -1.761536309347379 0.14203133817385863 -0.18049195614290203
P 0.19926657076267726 5.652573274176299 7.935173032494338 2.2043355524387778 1.2836469074210666 1.767986178737781
P 8.565415186543751 1.5574407250592786 7.999640880680376 0.1331116670867256 -0.05102199957382181 -0.4975981932091495
P 1.926803198783055 3.490885597723525 10.223514976712394 -1.5822309173134106 -0.04013723434051797 1.1679755472979756
P 4.231109691806367 6.327570861018272 3.5923069561825907 0.2842357115904718 -0.2048963531291955 -0.4638992582948075
P 6.851672524715474 3.805842677192069 10.049152411569889 0.43719912329580185 -0.2629770593220116 1.696505139978659
P 6.354110299331489 8.088223183925335 10.319418566979875 0.20818170874868663 -0.19650890039644867 0.4923958230726036
P 2.582102907411044 8.45068958312678 5.52036852956557 -0.596842775234785 0.6489752342639662 0.5423852676168529
P 7.059754077693653 4.223105157347639 1.1487742608530855 2.1304626164087117 0.48559114144594434 1.8750643978752226
Ni 5.745702080307917 2.862143498883118 0.28191407047932693 -0.7320439778606876 0.2290827205674119 -0.4430031315720886
Ni 1.388536870816664 0.8179443985248405 6.7951447022541585 0.3399916263048532 0.9868215320910424 -0.5226703056864289
Ni 6.7515840439012385 1.0576797512768683 9.113619493841535 0.8809062229134507 -0.2241163777010721 -1.4118243704309685
Ni 2.6798926967178356 1.9027895954068725 8.994270158771842 0.6415444890175338 -1.7442898635621056 0.19726583316713125
Ni 6.534534868322872 2.108381656396753 2.622704341163275 0.7875882907848952 0.958700091264478 -0.6653773297710734
Ni 4.240322629310509 6.987240809231561 10.207077969573593 -0.14915020860682698 1.0301340788357483 -1.058149590212068
Ni 8.646932420554764 7.49938564279518 0.2921337076634094 -1.0753965502179739 -0.9683286154931775 0.3392868869283447
Ni 7.837102493908573 4.153971783117836 8.192872704805724 -0.2263740633869972 -2.0191400201726197 -0.5277325507006847
Ni 3.160137507029932 8.511209678506557 11.945219470034637 0.37642801475501625 -0.3785352909060061 1.221769967410612
Ni -0.12137636303534617 5.016916929339192 10.198314776060037 0.46627907138089375 -0.034766456946907866 -0.023123216281024695
Ni 8.636501994268023 2.3914205411394063 5.919305077821876 1.1827419069738727 0.4185845935184081 -0.6576398519174996
Ni 3.6511307444301946 2.74320211341297 11.417506225806966 -0.5499782494727624 -0.2847013383729807 -0.3696590714622988
Ni 0.8799463776392581 3.4450843965811355 12.405127674808742 1.1617190248653024 0.0834181565163402 -0.3981852039264497
Ni 3.2744542522736424 8.403416492560652 7.659759806969856 0.2252054970001928 -0.27339028423553563 0.20635211173911558
Ni 5.669472745337743 7.9599598321048415 3.2169996846196023 0.30911627688223536 -0.3500374405766294 -0.15401319312608314
Ni 3.288528059170996 8.757860185829003 3.4666948224722627 -0.5084631609481114 -1.0175277029256475 -0.6671948425957864
Ni 3.388761911780169 4.6111933354067585 9.191730484982426 0.6988266105684545 0.15275618079053047 -1.0536421892600176
Ni 7.237398411106865 6.236277373797735 11.566654961691336 0.8807195608239413 2.168924777039652 0.0193956309177924
Ni 7.91156011012795 -0.14640211753377852 2.474658613772988 1.0970439532844203 0.024099207041048818 0.2672114091183334
Ni 4.806364055847082 0.7317870785341767 1.5126089720743763 -0.39935377031325414 -1.2094343286633944 -0.5723684442425045
Ni 5.850188057919002 5.694694751759341 0.08652165805172503 0.026487247657251158 0.6991006901654476 0.3482209561931809
Ni 8.268938496506594 8.995951928724523 10.92190651965463 -1.2701596715679093 0.680020533605545 0.13241798345381067
Ni 0.3402935661786542 5.052814676951488 5.8499700002265955 -0.022095032126826463 -1.200181442606559 -1.4256800453671383
Ni 7.419767327855533 6.244400022839849 2.3623180163667046 0.12423647608428282 -0.5065561737333857 -1.2383733802952481
P 8.64094491975079 1.8222354495373179 3.5342481870058435 0.2605815625066415 -0.6667927220613613 0.38892306189823345
P 2.028672484085271 3.391015174601695 1.6620375486640029 0.07745988205037628 0.6770925613254727 -0.7394711235626943
P 4.74959636992412 1.1759124492466986 7.967513713999264 0.4503287186992244 -1.5856545982829788 0.22018978895315627
P 8.643343554367254 1.6437279710916672 12.320792045123383 0.1186227294419312 0.63161540282928 -0.5292168485556951
P 6.555577435640028 7.962449324093141 1.0337860796315093 0.05792926821661636 -1.4814156483665455 1.2956128215336913
P 1.9879047813425803 3.461338780402547 6.062842462421673 -0.007210401705510163 -1.281787742725141 -0.43980467923944905
P 7.2071974207086695 4.130566924132952 5.842536050062997 -0.9924705028467035 -0.8712910684211898 0.5222602147322039
P 2.701789323330246 8.802934527996706 9.776745656479452 -2.0460880095163727 -0.23357957999650095 0.5166991757046585
