# total energy = -340859.9653497637 ev
CRYSTAL
PRIMVEC
9.33891058025931 0.00000000000000 0.00000000000000
0.00000000000000 9.33891058025931 0.00000000000000
0.00000000000000 0.00000000000000 13.66843962575721
PRIMCOORD
 96 1
Ni 2.3462518096579204 7.379905825045964 9.100706525588492 0.3035745211283998 1.2472886805070067 2.096248432420848
Ni 6.251830823875703 6.8957206776394635 2.1064295250673215 1.868869324808104 0.3877174716259065 -0.9384752795771708
Ni 3.9599781671638707 1.78171467736762 11.921216220922151 0.5180230367224047 -1.8277668983408393 0.10373321392460846
Ni 2.9645810657198024 5.107935708526787 9.814294535277961 -1.8517946287140044 -0.8590557026972625 -1.591669694128807
Ni 6.257154002790599 7.767946890121138 4.3166302205708735 3.2362406071320207 1.2770669402107038 1.9726585887816284
Ni 1.7200124965067098 0.3125537186067583 8.233840847663224 -1.3389654774877133 1.6918640416622215 -0.2977581715569388
Ni 2.66416699671212 -0.025142214516988354 10.647591499853064 -0.3340791174751601 -0.17602183618669037 0.5535741943541369
Ni 9.203290720515804 0.10998434751005566 4.985481113990309 -0.5111111400939198 1.123914295312703 0.4627450900857063
Ni 4.7096125031265235 1.7739727206650782 8.957105836285349 0.38887369671753674 -0.7186541868173429 -0.477750562355603
Ni 6.070786707306972 2.6484589494579884 6.722015076844988 -0.6148471822320056 0.07888633008425769 -0.18077246349779835
Ni 6.912717494525624 2.8215089587439977 8.921937367587601 0.40659939613207396 0.3347632880263783 0.9175624406839036
Ni 4.883913926403053 4.756419121936101 5.7775533264881735 0.30403757680774735 0.22621774031479103 1.1766851592568315
Ni 4.7147769205650105 7.053566940831699 8.67777809301792 0.3851818496882463 -0.9941628029474621 -1.2562029522775011
Ni 8.281614977587859 3.3153878951218343 10.975619792954529 0.20137419890854996 -1.5330179459238695 0.9745146896992314
Ni 2.9335385276266184 5.762285141912799 12.759269492552265 -3.115684151002486 -0.8790601708436473 0.8909350679043623
Ni 7.322508881868854 4.630287798384194 2.0281778611273107 -0.03533055698049399 0.10098393331424546 -0.5607779111914277
Ni 4.245674113417384 6.263999424096948 10.988290826554056 0.8594987037719521 2.5001705388310747 -1.7926949943383705
Ni 6.084972512169652 0.19009165294197852 7.152052287994541 -3.005154997201966 0.1395437958653145 0.32927012612229095
Ni 8.782796941880518 9.058724387879678 2.490485677084625 0.29637903182122505 -1.4995486105218303 0.2349435502235631
Ni 2.882146503821928 6.0461413228220415 6.766560745452292 -0.758901464373164 -1.3878683738360031 1.939423995098215
Ni 6.834448086655896 7.917593590002357 11.53054531868481 -0.1270726599814973 -0.6347050974981973 0.43471183809757385
Ni 9.245988218759498 4.768148793369628 9.39491955810584 0.5847151387333155 -0.7457829247133348 1.15226867808568
Ni 7.846898038448386 2.0912715396343953 1.458531410969748 0.5861798962043001 -0.6856705328024707 -1.1419757808001043
Ni 4.560516798957547 4.804225004156019 3.3503397010988345 0.2369770357138241 0.8885115460645343 -1.0125407912340174
P 2.9847344343133915 4.242638967544855 4.767387672173901 -1.5142303809037212 0.023576758878675524 -0.5446141569473717
P 0.3187500856419049 2.3539937663604618 9.16315768706164 0.05940405298992995 -0.05409549629282297 0.6917344796083635
P 4.632146241549219 6.966136061882125 3.5676673522643276 -2.2286450757184197 0.4802057087643149 -0.152481329862589
P 4.179956201094359 4.31532370700913 8.048332731934282 -1.009884584558093 -0.5233099961529568 -2.357480998247927
P 7.234620396310807 2.8431658919082854 3.1741125945025668 -5.05527681046808 0.6546383460870144 0.27086057583514644
P 4.250698447200215 0.5437477839000365 0.8291374138931836 -1.1425789616017419 0.46695989949800226 1.0140060629256342
P 7.402431276875313 5.817683558269227 9.288469988173482 -1.7028719627369513 0.8950148944006908 -0.19636054774404246
P 4.535488519147158 4.339520823795965 1.1585133117620514 -1.5083705796888345 -1.2283967286985102 -0.7675383141125555
Ni 6.267613582412851 6.430755007788853 6.90845334804748 0.23931596825964596 0.9009400016358742 -0.4123368128364834
Ni 8.628751615211726 2.5214124126891337 4.370962133362247 3.981204378378169 -0.37487326867338666 3.2035204911911794
Ni 0.4185111279622469 2.997089812742177 1.9468098027944913 1.996751368064774 0.5455358974306928 0.024405682537874097
Ni 0.7054416781676007 5.1163220500453415 3.774388802914649 -0.05286856586425733 -0.3454264241671793 0.12279691542427883
Ni 4.502512826605933 0.5454736145377082 3.6267424976361844 -0.31821541097002615 -1.5503919184259427 -0.37032652984296865
Ni 7.182023653067483 5.408293744072207 11.333173051212915 -0.629429965142187 -0.11339696226661759 1.3164197309767136
Ni 8.909806123007865 7.088251653971917 10.466046817688127 -0.2848612609896126 1.7422766897868187 -1.3946571146230626
Ni 2.308065005126323 0.8966876204321778 5.160614634181429 -0.4739777255767321 -0.3810575431072276 -0.007962706490502415
Ni 3.131271277039067 2.8370022110594584 6.343727569767564 0.032819103412549934 0.30652074824091724 1.1019856135604118
Ni 0.6492559916663909 4.515746062610158 6.202833296691678 0.8410649225467967 -0.2801826245670207 -1.2946622846949638
Ni 2.6703400164713242 2.8284384302437395 0.16491114889244443 1.5303833365144999 -0.4111669608980983 0.26946935191457466
Ni 7.123692818852673 4.999856498733641 4.423257229800393 -0.949894577157706 -1.7984555509712317 0.7077989892703939
Ni 4.121223793733338 6.371387554522195 1.49300319695337 -0.6290687251480263 -0.6930663110459095 -1.3349995508614299
Ni 0.4864059402941528 5.699126091033076 11.834558603751791 0.8427299689540453 -0.18809085153608252 0.24252496211524682
Ni 8.224815724674881 1.1560356988390303 7.898758875554003 -0.4304893153757941 -0.9536900396443964 -1.0870552175028247
Ni 1.0584721021303989 0.4515111016704521 0.4831531978098399 0.5090966807670522 0.24039403181517308 0.2641181149049903
Ni 1.5079818753070577 8.343186413703492 3.8374553985816404 -0.31793644627702666 -0.37144675949034095 -1.2664130600412835
Ni 8.4193919223799 5.601880017277263 7.4129683694536945 2.106126353656192 3.142889250662368 1.8755040565158023
Ni 6.657167550969101 9.361136983708041 2.4039233168001126 -1.752168494979234 -0.059451361288097616 1.9015202780739058
Ni 4.902619763888205 8.746104363009243 10.241474973743186 0.07496951152835475 -0.025020690414053682 0.8439998368054046
Ni 9.228459083981848 6.055302793901889 1.6358931951768232 -0.21020670959851542 0.6242787599585506 0.7590958397721571
Ni 5.036885278378489 6.434462555208525 12.889926452072874 3.1852468896929724 0.947985018839819 2.438933032176832
Ni 2.688373452409332 2.2919086901740946 10.066900854283649 -0.23873669871740819 -0.2807253844443682 -1.2913265354535117
Ni 0.5738022652753325 2.093718334153172 6.759166196215775 1.1077235444854536 0.1901662460078725 -0.8397516030520118
P 1.2619762981558404 6.008468158361179 8.258306925068917 -2.236151411397794 -2.9613161456401453 -1.7810481541280618
P 1.9891318768410287 6.689732331453738 2.0560610458399515 -1.8790043563595769 2.482696293305711 0.4000327986581497
P 8.011897906989413 6.492149004607321 3.382119079220765 1.4036282077734212 1.6350416333565387 -1.1471254433218439
P 6.521678639219429 0.23839996854017978 9.272532203724076 0.9784122249814247 1.4446362747546668 0.2316923902761171
P 6.107301846881084 3.2807778932646325 11.629040004758028 2.5208401513652845 -1.5848058771294384 -1.7092346717301854
P 2.0106860819911696 7.267792205969949 11.308596774664773 0.0626259023613373 -0.46857789471739947 1.1713035832299439
P 1.5275842481884032 7.7524442988953 5.924530031892607 -0.26852807104722787 0.7306442692996836 0.633660715394083
P 4.835388948084105 8.859693529924826 12.45197544826984 1.528376076276484 0.33976485500602777 -1.0337374799162906
Ni 6.1816489123924665 3.464259465441762 13.819338548357132 1.1723263680675036 0.2545034746333617 -0.7347793745139797
Ni 0.030367334872925873 8.006789523013186 7.905196186476876 -0.1889981938417003 -0.44245111572336054 -0.9164684362887765
Ni 0.9972742224298476 7.27344224674804 0.024167232273628433 -0.44969339910807066 0.6006289817500946 -0.8698157694272438
Ni 8.482074688830396 1.1981635235497259 12.910032192223538 -1.9425784815667966 3.343902209576757 1.9524260637848379
Ni 5.157235816407026 4.34925196840881 9.820814962503189 1.893444443044307 -0.41525732891738804 1.316318943732791
Ni 5.254864785488297 2.2937951500702507 2.022709929101571 -0.21955292670010576 0.5265429012679577 0.15131559168926198
Ni 4.367705655313784 3.973472892658651 12.256271110191278 -2.2068840298922443 1.580032624110511 0.7080964659061547
Ni 1.7303973648459459 3.725945073115981 8.209565284029223 0.7187973972634266 -0.1952220632642251 -0.08386938512114588
Ni 8.699914112284548 6.943554576590512 5.4107470758282465 0.45477698427856517 0.12419970930907641 -6.762001314181902e-05
Ni 7.759084264173354 8.440469843100812 0.4398094469680576 0.8407404493278425 -1.5360233084090966 -0.7867884205914191
Ni 8.728883412274037 4.724573437550495 13.49077700347314 -0.9242321393945954 -1.6220727319006967 0.2971480487767657
Ni 3.3206083460225835 8.391449902531884 2.264026439352491 -0.2333587222349465 1.4294829640529962 -0.012407115415101212
Ni 6.5013011367767914 1.0962853502469154 4.757177441458715 1.381401535164737 -0.45535548248985447 0.05344192186922409
Ni 2.2767703164529602 4.776899352392887 1.7253945105569812 0.3863146777411089 -3.0176083924739707 -0.3575340060639907
Ni 4.722780366758109 2.7207981492383135 4.210904416192735 -0.06270380678712427 0.7683479544980445 1.875993594557711
Ni 2.8277099952343328 2.1545706741697743 2.5822003142241345 -0.3579852346687964 -0.15241319562881492 0.07080535284833613
Ni 0.9723299928128518 1.5224478474810474 11.680309688836779 1.4232565235273102 -0.682601921179476 -1.5811474544412447
Ni 3.205198091583484 8.032424831998082 13.47263897173891 -0.2620715167886067 0.8951509057579228 -0.04642306734922973
Ni 6.520716731450597 0.87766706166732 11.718239673333011 -1.0363903441581055 1.5803707241762204 -0.7967285625232666
Ni 1.46054954950222 3.851450689672629 11.048814436925388 -0.26532550494953017 -0.4640810352883104 1.4186730179216858
Ni 6.316810962278944 0.9040476157002999 0.49677773415886095 -1.7066154889397833 -0.516148445407511 -3.9161505833016292
Ni 2.6706482005137655 6.486069373951887 4.5043927492648255 -0.41301121319568873 -1.6382979355103076 -1.8682787424119567
Ni 4.304303792764257 7.4006195282621725 5.772086328353472 1.7216651841840542 1.8084430012012465 0.45932912242562185
Ni 8.482056011009641 0.6060000265821525 10.125716377947024 0.5564440597027642 -0.37377617895446597 1.2072771731110756
P 7.266839637111493 4.428539317509631 6.448646492289129 -2.443176380834218 -2.9032004724443357 -1.202501348988987
P 7.679470053209337 8.711774528463351 6.274291837223452 1.1227917516724857 -0.8185443728467774 -0.4687900107282056
P 0.7236394789282439 2.914701945396188 13.237719615096243 -1.603578015530619 0.8829978153351568 0.2209274384501292
P 4.4025397910200335 1.147994897004424 5.729208589139502 0.8388743426533811 -0.5546545719025092 0.5094005851607162
P 3.5995149044320094 8.931920662780627 8.487485653502835 2.1266545555165313 1.4669979302793186 -0.44503147485602707
P 6.938567598449189 5.990509433706189 0.1714978823813501 0.9395289176526658 0.56245401334227 -0.29724677913815906
P 8.890353172692551 8.816071479553809 12.114201068298927 0.5818483587084817 -3.1670779320934295 -1.1409776785528931
P 1.0908687822282492 0.844747402588357 2.668393787548755 1.5063838882761087 1.9278961969642732 0.7989245417333208
