# total energy = -340870.3779871641 ev
CRYSTAL
PRIMVEC
9.23677368507399 0.00000000000000 0.00000000000000
0.00000000000000 9.23677368507399 0.00000000000000
0.00000000000000 0.00000000000000 13.51895195549758
PRIMCOORD
 96 1
Ni 7.620449295608418 7.8099971324825255 8.353563725687103 -0.706429619726693 1.5448344789428232 -0.49376262151314315
Ni 3.4832890361790936 1.5990148741593526 9.784652203280077 2.0079696053780967 0.5277238089499363 1.0530225533981479
Ni 5.426733971699908 5.815786887695102 8.814234891669482 -0.6229520707273272 -0.31571347048377885 -0.23887733806033054
Ni 7.316494777406761 8.499827116463273 4.730767998828003 -0.24874111822828776 0.5271167714935567 -1.539486841477665
Ni 3.5307752907168735 2.6511573137410362 4.268649430377995 0.12246112935141491 0.0927916273114402 1.2108183534951147
Ni 3.9362973745472862 0.7693447519613881 7.60099018406694 -1.2910167175225766 3.442514814445348 -0.05396694113475867
Ni 6.345432738979062 4.503980260685667 6.504954594988363 -1.271557066136068 -0.8562426587284996 2.7275933551975604
Ni 1.3207940079985925 1.6618895939879206 10.7515549224278 -0.9148432419805277 -0.44865595898249183 0.3648181984302297
Ni 3.912438787604846 6.946682061411995 10.551204678496324 2.9021203520062797 0.48911226722532536 -1.432955495982629
Ni 4.293575788381429 7.019754179608527 6.531560198483913 1.3108008421280393 -0.24066939696374684 -1.816440931805059
Ni 0.3181163399206473 8.202763231579098 10.104848664679405 -1.2554563039194637 2.095662992231023 -1.6478760661170457
Ni 3.1205701625272595 5.434372783701998 12.325742272064277 -0.40376629755865306 -0.40750082490042083 -0.2867368807457707
Ni 6.19521508530314 8.412114711660557 12.76575724060981 0.08239485745814842 -0.39151884764986766 0.9429037476621696
Ni 0.4361752416419428 6.509801130245313 3.877168166528691 0.5059033706407352 -1.183934127509761 1.4608100563010518
Ni 1.2895737122705828 1.3754295255226088 4.1599436858916645 -0.5904918933160928 1.357993954874074 0.7169639435991136
Ni 3.9180362725785662 2.8099005097119143 2.0001698112973973 -1.318294579401923 -0.4917484192965918 -1.586314600464481
Ni 2.350731243163076 4.412037413444068 0.928860142228971 -0.4080484698737747 -0.16877363926470934 -0.39468181875888153
Ni 6.0597208491983565 5.908099205892062 4.905216481433891 0.39843125849898475 1.4879570490294889 -1.6303755953394374
Ni 0.28536828179221996 2.746998079561694 12.833824874715978 1.575651721433996 -0.6217156272170647 -2.556690071184358
Ni 2.0315729951483106 3.8947503656169356 8.018401843240872 -0.42191160100911207 0.4097880782727007 -0.6590930394242585
Ni 0.5223340210773646 5.266143420952225 12.611601026549739 -0.02558684733016884 0.3998021707045824 -0.21994656259409862
Ni 7.853825624562231 3.914590955919824 5.0240207908076275 0.8411070886386417 0.3935322785354707 -0.7184767806992142
Ni 0.7031466408893473 6.91873158363893 8.120618754073673 0.2745958745078626 -1.2953053175956015 -0.8562585995680996
Ni 7.818273281882613 6.964758427903034 2.7687220480595363 -2.3614986040477524 1.389465028899162 -0.8707426521168875
P 6.291212876279826 2.2695307639486 0.9254859487291361 -0.0832651758782437 -0.33260176159868526 -0.1137800566376492
P 2.561329687718879 8.900601498517295 9.852531407199011 -1.0441494192782341 -0.3323243395675825 -0.035339041620926236
P 4.735130527133428 3.2519078503842316 8.8951056180563 -1.8010230545880919 0.032571506178118104 0.16256262535799101
P 0.19735845287043927 8.969627909752624 7.402842910706806 0.17188056032480722 0.3452873274861537 -0.015487554112637842
P 4.527155326360689 4.504229653580536 3.2303399833650297 -0.13479985342242592 1.010722507078356 0.005432226759164838
P 8.688977772060365 7.341674223014617 11.808398879916453 -0.5267249353717767 -0.2711194859234879 1.1829833335607174
P 3.083124281201416 6.535765701633311 8.120631685557111 -0.21853297007602362 -2.112089770328479 2.1527782491867766
P 6.348176060822618 7.305050414564452 1.059945666158909 -0.7713270917310265 -0.5195826679000407 1.019827554703418
Ni 3.1018564586382222 4.7547494348631005 9.920356114152028 0.6643460602930816 -0.1111233357410925 -0.5262829627383516
Ni 8.442716143538336 4.636176968513853 7.481591026455073 0.8667687550708041 0.361709477597919 0.8068034302607653
Ni 0.3420626762149859 5.766111517746808 1.484421609999344 -0.2342904900205965 -0.7108670866727563 0.6376574952583017
Ni 1.4354685557687805 8.007737987791764 2.2908677116207006 0.09078950927974686 -0.8621729081700054 -0.1694585811468759
Ni 7.5749766577773565 4.879076411342097 11.22511046430101 0.2106813352420888 0.8265451316640668 -1.802939040663882
Ni 8.706998717908101 7.978512835222704 0.5743204318514422 -0.16185274377515996 0.6311721446442743 0.07880302634183203
Ni 3.096628444619863 2.6102568789825673 12.188741518139008 0.4086138554589414 -1.0494752023665217 0.7905985383661287
Ni 4.537177226024858 3.8374546572143196 -0.003923781545934431 1.7478009620391577 -0.005672110684112812 0.0234443470658693
Ni 8.21942637166588 1.0168764368924703 9.106690550062917 2.354661526521261 0.764068353286084 -1.603184636746942
Ni 6.712797709894562 3.7344738651813087 9.008029797175466 2.31839303110753 -0.09302251237532368 -0.22952932118652727
Ni 0.6023383380738596 5.354040561232621 10.133387524948883 -0.2932093758439918 0.475077129288498 -0.3235568777875976
Ni 7.5435716265716675 5.9183335513555635 13.576002427329666 -0.06879809261032023 -0.5483427707518685 -1.4309621197016842
Ni 4.055821228606589 4.394385938551693 7.078820577564712 0.4369643815771765 -0.8187665161599125 2.4037816810866794
Ni 0.5182107252155352 8.661673868459182 5.170593613508913 0.7272007908357734 -1.7489967821194718 0.22602979267370102
Ni 2.602719671493201 0.7325602236456411 2.471818883040944 1.6275445536485456 0.5899419343498937 -0.7986836293671083
Ni 7.2821247417842985 0.024338899184409665 10.849175614575909 0.3024802596229565 1.37178612356216 0.7501512289843596
Ni 0.4918711408078454 2.9115973901750456 6.440374766700804 1.3302926323040636 -0.4562587110304142 -0.41741037070464887
Ni 3.455329321632146 8.148247792115573 12.63196072354491 0.1257526556184931 0.626162864355141 0.22820006085214248
Ni 2.5014292090809676 8.412816706475743 7.301964408409798 -2.256245868154824 0.1261977135757117 0.2207366625955618
Ni 8.481667619007276 2.524641221851526 3.3350988543707154 0.41622663480919286 -0.8991595126966837 -0.5125008213525948
Ni 2.5527764351022704 5.685908610111807 2.9301651530367154 1.3292215107270722 1.3892709106104848 -0.3428254962092225
Ni 0.5346965192437456 1.1458864577306678 1.3218645500917512 -0.6289645954699942 -0.28249173231617153 0.02414574400826809
Ni 6.346698177001173 4.919080879033815 1.93558905933245 -0.5204977235151423 0.13984255805265594 -0.37114336931730924
Ni 3.3240747647401303 0.35146109364198275 5.23978351564199 -0.9484339334517795 0.2930350550496566 1.7247404806752686
P 5.416083971411626 5.416887570739536 12.28624028487185 0.6110877151895734 -0.09880235228189435 -0.8820449645035842
P 8.217782225914526 4.903710887290795 3.0401280224486618 0.49163374809559846 -1.6789429627251795 0.8808761410064636
P 7.672877224174153 2.5647288205082006 7.233693565278183 -0.4967463867318155 -0.29873467653759517 0.6876795928126995
P 5.024093761321312 9.000035369378839 10.991543857805185 0.33629592262082086 -0.024299495977312992 -0.9863939576353207
P 1.7562155288915986 6.825079933228786 0.3547346063064817 1.7720027560963418 0.3886078446506598 -0.9764278475615442
P 8.808252233224799 9.03694551781941 2.8697354072552494 -0.18875676725485557 0.3302844263194183 0.621514309839536
P 6.356895575369139 7.627376876021438 6.373902323444408 -0.0759195341464499 -0.17275936338533474 1.0145799331512333
P 0.9141616639473197 5.092649097088556 6.256746778208971 -0.13311835195494492 0.22256497405355216 -0.09699949474520068
Ni 8.255422079491932 6.571622857851101 6.047459955544699 0.5545833523449416 0.17405751337146796 -0.3072895080861417
Ni 4.877727842355029 8.217652911080148 8.4379084027317 1.537831565262429 -0.6554119910282453 1.6222617079830512
Ni 4.350668287758596 6.434290503743396 0.5768457658313351 0.07615350453412692 -0.7898881425626655 -0.1828681696845625
Ni 4.4058764852634225 8.898236884402984 1.1510147145910792 0.1476440563749457 -0.6048774726138034 0.6559771195030961
Ni 6.653165097699286 7.1300966804271075 10.694235198413084 -0.6673930746495216 -1.301148920860572 -0.20247488817189646
Ni 1.6266420648464759 1.4993223736290553 8.376856098390451 -0.7299410725850719 -1.4325302355197522 -1.4133559765841466
Ni 0.6828294330540428 0.12206673790957456 12.49693294452127 0.5946028301606727 -0.2022995389362968 0.008024155856057149
Ni 1.9080865650927614 7.245057568187701 11.24238784985108 -1.9812121347785945 -0.502913691884792 1.431513878440096
Ni 4.996438860312536 6.903278460930954 2.8093730899231364 -0.10679205535559028 0.22479309205312256 1.104667017047317
Ni 5.920448772575005 2.7169508541169565 2.9280702527198184 1.2355634216502784 -0.3528222024106182 1.342483775053617
Ni 4.787456851186438 0.5187159767469914 3.521565303477111 1.5230950303832027 -0.010475702720343249 -0.38410918544935785
Ni 6.00460501943237 1.2809650390106704 8.872812664287201 -1.5168320801926265 0.15477423966182377 0.25912580389672146
Ni 8.464274773783655 1.2202794345926167 5.466388365661422 -1.15018531319409 0.5792129779681637 1.0086962206769468
Ni 5.730623832484378 0.5893375788320924 6.41714889876942 1.8541101642210585 -0.5040190091338288 -1.318432647641684
Ni 5.144892290176609 1.3688529425171818 12.781290723250578 -0.6138724770235621 -0.0007350783938116373 -0.12559478988439016
Ni 2.187896156361574 6.61935850528375 5.4749998099535 -0.8431876253167544 1.3793811623005985 -0.12167540022532594
Ni 1.562843667629505 4.145750459141469 4.290198823849429 -0.9008183884563453 -0.4032896150325506 0.2889557427739604
Ni 7.104150582586877 3.509715446261293 12.89610751733858 -0.6014787313448996 0.08163663913588522 1.277415324689058
Ni 9.46519930217841 3.180978663728793 9.269932054915316 -1.6036705752444254 -0.16746803307940836 0.7636832020325235
Ni 7.664998256051079 1.1702807775583817 13.126469886974034 0.5783022932284363 -0.7481015455441826 0.05399907992427474
Ni 3.8051259486202267 5.139599618741062 5.141351834746862 0.5664361379184696 -0.7257172643117115 -2.6422437859864627
Ni 8.665294683821722 3.4168027377618713 1.126447667091734 -0.6853008081678779 1.4893899248212736 2.516148145206254
Ni 5.622747550292834 3.2201241114492962 11.087987784960472 -1.1675155769424215 -0.1155515467157752 -0.2613248684305693
Ni 6.587362320549482 -0.03752716493602261 1.8851368767005092 1.7854244288188863 1.523661187299318 0.6865076839917854
P 7.93395463800616 2.451051844317487 11.118906038182473 0.005219082307094238 -0.45947258998202156 -0.5940305025969704
P 1.5776686897133676 2.9215823427436782 2.360179539169047 -0.2491540373959902 -0.294567432533783 0.07713052373541554
P 3.399142026095613 8.00905884645718 3.9173194989251656 -0.8407391637762617 -1.4089665892671994 -1.6082386542310816
P 7.622869330366034 5.845048987359697 9.033742204636429 0.41482204115218235 -0.9227324149206174 1.4143653916852674
P 6.527692761258671 1.8656990097389639 4.776407822266366 -0.2575656584984532 -0.5642339880608283 -0.060611185924153675
P 3.0142179480265794 0.8593709686220516 13.636161535636331 -1.3375863377519996 0.5417787443811056 -0.3254042154089815
P 2.6939328135979626 2.2477319775822973 6.307807664239869 -0.22565209761930816 0.7306987766867028 0.4770157410721075
P 1.668641675697144 3.8101230432914854 11.34396927064066 -1.3297159338649873 1.054080819459333 -0.9229401600560492
