# total energy = -340871.46383512387 ev
CRYSTAL
PRIMVEC
9.29294527793449 0.00000000000000 0.00000000000000
0.00000000000000 9.29294527793449 0.00000000000000
0.00000000000000 0.00000000000000 13.60116475956113
PRIMCOORD
 96 1
Ni 9.17986843174498 7.890351506605655 1.5101779038399377 -1.6295962939712514 -0.5613206710687753 0.2760606319788471
Ni 5.1841994618588805 2.13725653857309 0.7914178617550628 0.40148752882680533 -0.7272082470349411 -0.12804890785183753
Ni 8.94107691737602 6.577351309485854 8.6955916947334 0.5903489399803252 1.7349143358844767 0.5629147550287724
Ni 1.9992005478560415 7.345738465681274 2.8321708838230193 -2.55738066949348 -2.9917389809063764 -1.257974442355627
Ni 6.6151364238003065 7.9861524764698215 1.7511365329797122 0.4495746141420192 1.0459980424511985 1.0923082383716478
Ni 4.5275785550141565 6.692611706151413 2.2655595835269757 -0.6269123409266558 -0.759081441594454 0.7082180790856836
Ni 4.176379578090443 0.7169302612170646 6.70054602258075 1.576155400543292 -1.01683684750621 2.7321717185968626
Ni 3.4728200061197225 5.77547237955967 12.748113043456922 -0.06926140539998393 2.1739823940682172 -0.39075343023875286
Ni 2.37861290575828 7.126926783032941 9.010268468566304 -0.7960276798015 -0.15455286767963705 0.004902836618256072
Ni 7.554067706385015 0.5747807282335339 7.973056858395073 -0.45460831991118483 -0.3705864683725747 -0.7120248544262834
Ni 8.282885502828604 0.9306512686018804 1.655465664345355 0.5263806646584805 -0.6037001644762506 0.7969689606688467
Ni 5.3289928376910245 4.420245040421944 0.10517662206088334 -0.3209950305976923 0.1225979120395953 -0.41215555006361276
Ni 8.791581311380789 1.6787983906170543 4.135978499762335 -0.04499970463914186 1.5334720027421525 -1.3123283345161592
Ni 8.055050370598538 4.841968176846983 10.646991192168711 0.8286434089539921 -0.22474475531369034 -1.4525696706691307
Ni 5.371638162233333 8.41938027878795 5.013783578110403 -0.3629713750294781 -1.34679705771699 -0.3966669675097104
Ni 0.7859749838765643 3.7139440496802543 11.240995306400984 1.798266060668245 0.2795676166908411 -0.24444943283146933
Ni 6.991063927332669 3.316336105494764 12.053813891165088 -0.377331243295576 -0.7407577035846017 0.371826768537579
Ni 5.354501971678524 4.218690356613243 4.316370359953647 0.21458169873775945 2.491268608355755 0.20396869910860357
Ni 0.861153979521546 1.4337991889972195 8.24249557603448 -2.3795945423175144 0.4755574113590261 0.8068124291218298
Ni 1.3797978856816049 4.76372158006201 8.474477220317452 0.7629908039511891 -0.3631222987850456 1.4032667106689445
Ni 4.4739675553879685 9.02712029500453 1.1267370542861213 -0.3863015651149863 0.9557896024859024 1.1223315242066156
Ni 6.003985896773739 1.2968397657885589 5.238325290637311 2.0642425689382127 1.346285151077578 0.5506192254908711
Ni 8.364886449388058 0.3022902074606132 10.253658931971435 -0.5503554303065232 -0.4225687749771368 -0.6119400358875396
Ni 2.844728440383059 0.31058323156642187 8.95174243033684 0.9679462924530943 0.7781397437774856 0.6833930496222037
P 8.382793954376732 3.7975155039423982 3.158557697633209 0.0063110298196923575 1.0815484287519825 -0.33004248551194126
P 8.91147888759453 7.680526101759113 6.503397123990071 0.6054055772031316 -0.5413935931275451 1.3074159848162064
P 6.397923127689626 7.090563489301398 9.897567219512414 0.8766844715226191 0.27421252302651483 0.15673933380799457
P 7.310192951108528 6.414734065169912 0.5196809988205342 0.8352588573879809 -0.03397481428354794 -1.4066793358949194
P 5.962037543105406 6.438458953720035 3.876753657957413 0.42155730299348687 0.4123607240958833 0.7256609571524792
P 3.739518234282658 6.657911849572424 10.793040974163008 -0.8515593943202172 0.6121459812507587 -0.06325530841522009
P 1.3665740249660447 5.269415767383607 13.006127014530124 -0.18726167076656783 -0.7914017509937145 -0.06581921248765439
P 2.96221914384534 7.468777057300398 0.8746120224507619 0.010190310269440514 -0.21238494819675682 -0.47307423992585623
Ni 5.202190603352432 7.132353862904963 13.610141489101682 -0.6441467025270713 -0.8935740481891062 -0.295429266313446
Ni 5.236862581096462 2.8552015893826628 8.62619848663691 -0.5938602955676933 1.5496372996481054 -0.29975411894104503
Ni 8.27518165143493 7.413576964081547 11.089682000366427 0.8240689022094324 -0.49114421005368963 -0.4800822958125733
Ni 8.265396180364315 8.961577154015883 5.0170890786420435 -1.8024405037609088 -0.06313600922853642 -0.08082956985355758
Ni 1.8924617817429545 1.5189783227420002 3.368233486065472 0.031968068266164294 -0.7128766609036173 1.539879448930393
Ni 0.619853370006274 4.6106946549719705 4.508758482827824 -0.3919407656786347 -0.5351560968582655 -0.9522131979885536
Ni 1.0018166413072624 5.971516346991471 10.76948335862264 0.8752703647839118 1.0914096378167786 0.8193324159657115
Ni 6.57472140605472 8.421805737429382 12.355610643246926 0.7500789809855276 1.2217023473974702 -0.4792723983167681
Ni 3.7576859417309505 4.584916025579867 10.034966199018928 -0.6339941874741016 -0.9069113887279605 0.4703576123256416
Ni 4.622496695104621 8.638154789656335 10.29212336056439 1.0832705536494118 -0.29981119743122564 0.26137886159695634
Ni 6.545606609412521 5.18749845732903 8.69820301227456 -0.26792077648053214 -0.720143883988992 -0.46246021185543584
Ni 3.5446172990841758 8.626873154442919 3.3324760923470373 1.4896408644898151 2.14307979095209 1.3590391083091369
Ni 0.2723957327340601 3.4292360941337936 6.658273345132393 0.32028951989023546 0.3423997215257135 -0.11746136214397836
Ni 4.072874756832602 2.9292106032538645 5.629862153863226 -0.6912349142641256 -0.4966098611539512 0.3020051197587509
Ni 2.3693013748819687 8.668133830182263 11.830728383117538 1.4397210968412366 -0.04643849396819744 -0.8918784056542381
Ni 2.9020101532788507 3.626553195028724 12.812378404509948 -0.3767766563436866 -1.7177131415148417 0.11698622227977272
Ni 3.681892682422372 1.6816606176728466 10.818366107839777 -0.67409619770131 1.4251318861731521 -0.45515827887738386
Ni 6.521983943257248 5.18290774250578 2.034013778363864 0.3251460766515884 -0.51673028605291 1.6840373465289513
Ni 4.453011964443775 1.630094065943653 3.5518620789955255 -0.6749657447904569 -0.20184033991169112 -1.0254163616451049
Ni 8.01866849097702 5.72737209631038 6.483743474638464 -0.07609976847805602 -0.5795505638132407 -1.2339721659037588
Ni 8.601986647769504 4.857608203258991 13.183894547057294 -0.630595703315514 0.2160181740739699 -0.6369776955824579
Ni 1.2178590263496658 8.091469422 4.923090940105228 1.0128536944887458 0.33060144333920477 0.26435054263077057
Ni 1.4460379975442275 6.284735057756019 6.714446409691315 -0.10930402314416658 0.1477193896975714 -0.7165692792638563
Ni 8.750079019071798 6.494439654317739 4.2540909012442025 -1.095683325491468 1.1243326137970444 -0.45401259530871485
P 2.3345922253579934 1.5001322303097053 12.886532388322935 0.6946570525717972 -1.37327376385128 0.18775455124258633
P 2.273574748577693 4.29263431986954 5.743826184703192 0.6831508517044106 -0.632991200130884 1.973995562425497
P 3.527759896878957 7.441939032179852 6.805424341107572 0.3427182812073969 -0.15124771456580405 0.7847816745740356
P 0.9472298824575088 8.53237319687684 9.819985997588464 -0.2891190078247021 -0.7053502706195852 0.06860988785891409
P 0.3917097120026606 9.161180319377452 3.2195175581545943 0.18744010532596106 -0.3263717215285734 -0.5013008388717173
P 5.736655748351732 3.7528907821179995 6.5970272619054295 0.6111298812814184 1.0354053545370168 0.6781557124826643
P 2.95077023562217 0.4816421871079538 5.1447081628449345 -1.2021863888517295 -0.7842461137855397 -2.76710555435957
P 6.434667432165608 0.4469739265419185 3.183570588358438 -0.32520521202429803 0.31478864467666434 0.33310286960481983
Ni 4.669518996735495 0.5424626534545436 12.57178777599163 -0.11140821397136298 0.06264287164220178 0.319412773712237
Ni 2.178656608487229 1.9582186604662877 6.441823929099588 -1.1358681252404697 0.653367706904707 -0.06022320645711563
Ni 7.513122990775207 3.4958943885208016 5.209667706888441 0.07263880651264909 0.2656445788518457 0.9513408226859293
Ni 6.966121662989336 7.573638648526245 7.700203912767686 -0.6868432129543331 0.24683541656514266 0.2158078578353767
Ni 7.445163684090112 2.9762979554996427 0.992597110586316 0.9036815689367532 1.1747100378083317 -2.051961437578014
Ni 0.5275010120265382 2.579071022058593 13.355255523310882 -0.32942002143659393 -0.014614407479065153 0.17157691304145936
Ni 6.075848240353097 1.4103995535216183 10.679987651931706 0.4289607945464097 -0.05425130514439689 -0.005511159626216315
Ni 1.6561607766303328 8.848463427642168 7.192526610986005 -0.11732277968358505 -1.6613671586249454 -1.1856014879098549
Ni 6.555763798282589 5.960439156567756 11.955600472782468 -0.49257734295579036 -0.14841487310269924 0.47636010976597953
Ni 0.7432051338714387 3.178419508952511 2.0535986599225726 -0.005299300725726357 -0.079776703109011 -0.027504890288488116
Ni 1.3020159361459496 1.163058529765226 10.82588781751172 0.06482393845392061 1.337017095512091 -0.13042049340780765
Ni 2.9611969198968424 4.15719893963864 3.71696704468431 -0.5011393735931885 -0.8109359643719002 -1.162388025907869
Ni 1.1276988740922074 7.448053789980864 13.170592625603847 -0.2225978841740166 -1.5402568868744702 0.5569400255025764
Ni 7.766876146572173 2.5933728643925686 9.073132453515388 -0.05612923889340011 1.3004107571429668 -0.24059432075143725
Ni 2.5140854577691267 4.976158302449715 1.4977197817912518 0.17705310566468216 0.17479670553033766 -0.636803889008755
Ni 1.6800343523002372 0.08792148181024954 1.257495295305398 0.5881473043433161 0.1719119277833749 -0.7096823223360358
Ni 9.165362144621305 0.22808139527220508 12.845266136816601 -0.7278039716374111 0.06399167236061237 -0.1125801227922771
Ni 3.7353271160938193 4.752635096693308 7.524694565872196 -0.11705409940323067 -0.6372222074930961 -1.4001734164556014
Ni 4.545876363692258 6.514884133287685 8.741523004622877 1.467046781239383 1.378891881369006 -0.5451859702904417
Ni 3.2104615832654066 6.174632245557878 5.019591668726865 0.8265111931023379 1.071340120760413 -0.37958610076802374
Ni 6.528544762417603 2.827146188468906 3.013773614746051 -0.0837364590877074 -2.5761597498731956 0.3523231512870126
Ni -0.02052625688582503 5.517305074894193 1.8214813386428008 -0.09576510811746732 -0.2517199983509536 0.4856536192527636
Ni 5.700868617209341 6.169456075200487 6.0367546793845674 -0.8174130874558115 -0.8152567032344411 0.4037853237220465
Ni 2.858426241292922 2.1655256772215323 1.4545354664397356 0.9282268623762853 0.9074407788688694 -1.3702809997715433
P 4.76742946511156 3.442525005464258 11.662536301104293 1.2645459249255575 0.1090865078167218 0.09526914231765526
P 4.56536366932861 3.6221669249951725 2.3251868357373198 -0.4117578004045619 0.4395305996424559 -1.3423827306993785
P 5.37852423446821 0.8075225354163879 8.653142451330302 0.3843236154530091 -1.555279328425231 0.10430939814305262
P 7.083612366451616 0.9778036714625632 13.48030417893055 -0.8424317209873361 0.41701056416306886 -0.42486399876921666
P 8.57679347391154 4.613798498597408 8.138093056290959 -0.7009940505334186 -2.077180102935487 1.5997789534995028
P 2.1808869152839505 2.8819095132734005 9.092759153326536 1.1073170530756542 -0.4027062317252549 1.1889907160970619
P 8.56540032335829 1.5639282976409208 6.307185883548515 -0.3404076307963492 -0.04042931165964005 0.44725599331117166
P 8.705528640807291 2.2227330465574338 10.95114091792109 -1.9500102552544933 0.6481635369959482 1.175268995635595
