# total energy = -381172.0995670654 ev
CRYSTAL
PRIMVEC
9.22800356895453 0.00000000000000 0.00000000000000

0.00000000000000 9.22800356895453 0.00000000000000

0.00000000000000 0.00000000000000 13.50611600406103

PRIMCOORD
 96 1
Ni 3.97400270955176 1.8560559879350425 2.6435387232277208 -0.1531415891544072 -0.6757270484365137 -0.14976675914490337
Ni 6.9153087976946885 4.4140954149785685 9.18545482335505 0.4753897754329103 2.0945473905693412 -0.49066881307916793
Ni 2.213244311705889 3.2236276211329633 8.604097997796256 0.7710157311381947 2.231330850080699 1.4794878352162133
Ni 7.367167207330239 4.4972674087302575 5.838045534343797 0.9541806061275696 -0.826727422878202 0.6745435696513737
Ni 2.7304093007024415 9.103111504299788 12.411255639265395 -0.01741588148360226 -0.10232604916443667 -0.2488074526898489
Ni 2.5584546871920697 4.392501887254286 4.625277347721055 -0.1337197329843697 0.3002991928112377 -0.6888473878685556
Ni 8.88612423468066 2.965049740636337 9.502146977439898 0.872217436890201 0.13085989493807143 -0.4718773914042776
Ni 1.315378046527605 4.044458514754706 13.205037409611318 -1.0797676827024758 0.6354851701973314 -0.1387002169180966
Ni 0.45807900666073836 0.38140906403491615 5.917150747040747 1.1802060279258964 0.8930253747744878 -0.6065846851128972
Ni 5.740593205483848 5.650601717292738 7.2231512966139 0.3906953233073078 -0.2849232245757996 0.6059735338914596
Ni 5.796671781543874 9.035257996027719 1.5280143125903258 -0.5006647479496151 -1.1416968161071046 0.40086994984746444
Ni 0.4713959382243757 3.720287986794749 7.038117834025057 0.6819437187701869 -0.7503651447673786 -1.1603956780681886
Ni 9.42372925098887 4.143585726213781 4.392215819151956 -0.3311938255075651 0.7883169414208037 0.38032117916183533
Ni 7.254428691002226 8.806772634295573 4.64623875721922 1.8304189912517055 0.13685853572366752 -0.5583711015221481
Ni 7.161991781936357 6.424028357957372 4.563040925058289 -0.19617671386801053 -0.3299332136275866 0.10687304510517079
Ni 0.4874914215819366 6.0130038629286355 2.9497220271534177 0.9178018103882194 -0.39696110171136145 0.7124665699493923
Ni 1.2255249783860098 5.971044131919101 5.994729647991715 -0.7524184277519816 -0.4337152785122595 -1.0133943974835644
Ni 5.772355992845805 6.407279531966101 9.806142321782932 -0.7864554627320327 -1.053142881026096 1.1961391542163853
Ni 1.6877464357285559 7.360836797065771 10.575599075427487 1.8439021133398048 0.297208726811372 -1.6135063303879242
Ni 9.030284102248494 5.666390830940707 0.7880004262778635 -0.8842951939903415 0.5585065986587479 -0.8546123222139281
Ni 6.532318976694315 2.3345187310873046 9.113994088592628 -0.6461148819970356 -2.3544836061825003 0.030952996738088632
Ni 8.170981662864984 2.7927813750137327 2.796657136400142 0.665912376338937 0.2232655996650026 0.9094261847300145
Ni 4.271624272014812 6.755442868508594 5.53857468001923 -2.015916885249631 2.144580800977648 0.9353758147162408
Ni -0.10388147875973788 8.589351648521296 11.197272124607913 -0.606246070826556 -0.488227807737843 -0.9831577100862101
P 1.9537620868857675 2.235142363539103 5.587358519469835 -0.7901534804089101 0.48406339194750825 -0.25262708354625524
Ni 7.287123506697581 7.276723546977382 8.40061498820777 -0.5171288070429094 1.8467295554862713 -0.36155135475349987
P 2.902742262348153 6.799128236135411 12.520871399276357 -0.24329423618110355 0.291384149709795 -0.27470103262715917
Ni 3.0045917347810165 9.139515977322137 9.028392361571793 0.339871298676905 -0.07672788898035818 -1.745638921390832
P 0.6471340330881471 4.900678801035689 9.942405786926123 0.3783648267664129 0.5092182939465811 -0.016246286655533314
P 6.651267939243886 0.8813112272563344 3.052773908416398 0.5006794032376345 1.0435884045684414 2.0769613020564615
P 4.314063859195997 1.9806248044949062 9.399176302605968 -0.8053942086180645 -0.6343590270126882 0.12317692447151689
Ni 0.3908723814200662 0.5881117239751099 12.9787021726483 -0.20817502388046727 -0.7178756567801056 1.2731436938968976
Ni 5.90119737493402 0.9750308287810383 5.718043656617585 -0.9412893519871983 0.5825204450748419 0.37725668130389867
Ni 1.223273345580572 1.3576053896328675 7.955439498562787 -2.0767669266574686 -1.1407745614031515 0.00045842769365727503
Ni 6.087806057686341 2.35406364207877 1.4909537285332795 0.19297337643936444 0.9871912567256353 1.6799050695281326
Ni 3.280158369354737 1.7416933430260568 7.1336193629871785 2.7607423311457033 -0.292302033538374 0.2751049529337972
Ni 2.591158730890726 3.4900308484288156 1.4448976868584424 1.450183172714825 -1.3516682697663622 1.5805388743229682
Ni 4.868030125356839 5.868622523281578 12.163729215522016 -1.2681778652511901 -0.6143306476069033 -0.4065798557480482
Ni 8.36153070302682 2.227621540848808 5.140832972941918 -0.6127867001585512 -1.0685497024994695 0.5002433441414804
Ni 0.49167447547826865 6.165210549374921 12.05786833005422 -0.18704261277722625 -1.0742971465062081 0.43894078857725694
Ni 1.9782347516399539 1.3583436298969456 10.337432615432288 -0.6940842107874627 -0.06805838623081828 1.0248877428351446
Ni 4.947870809916876 0.6551467083543839 11.454928127574773 0.6987304513102224 1.621659041402046 -0.315535807255334
Ni 6.781262821744723 8.402576861709559 10.888347180901498 -0.6420124297928879 -0.7715734034138777 -0.39748612097689606
Ni 2.3802527154469377 5.7864840658995975 1.0380018005065628 -1.0510294342275188 -0.38385233224354537 -0.8598463169193578
Ni 7.163772786573445 3.890664611740654 11.56893364875601 0.2457558103477187 -1.1707963045762222 0.07333686102093821
Ni 4.580734698587578 4.142672153886985 8.757108443330054 -0.6662080532024849 0.5455978610168797 -1.596850209888482
Ni 8.798162907215763 7.731590285689051 6.711607084427972 0.2342048722853257 -1.222423798944527 -0.29408355091882904
Ni 3.5997518076774107 6.099996250046929 3.088335864737366 0.2655386494016007 -0.11637198573454151 0.14877199933180185
Ni 5.298571847367137 7.749178859980709 3.663438872459091 -0.16249757644801047 0.7186863256068591 -0.2213208172338059
Ni 0.8115872027151559 7.935833682749535 1.7615621569333866 0.48804603074434016 0.028487565916731586 -1.0430448733601456
Ni 8.252105039883856 0.8679813764880756 1.6430459877386323 1.0843457889914614 -1.332726181446221 -0.6615738968645832
Ni 3.908686902187458 3.85618879140821 12.957929014417475 0.035325928994803676 -0.3255746795485748 1.0650769134595206
Ni 0.23187480734459384 0.1662037218532039 3.618990348959284 0.15572297672833826 0.2790644518021774 -0.6065126942243813
Ni 7.065365359371846 6.203303747001346 12.030680786728887 -0.0612912427103138 -0.13748074268869873 1.6816598474357103
Ni 8.634670372732385 5.554731990998907 7.8277663816924745 -0.6248156062986272 -0.5031589751263786 -0.09215630772028645
Ni 4.014329083977022 6.7842526948142385 8.487040775923385 -1.0415178951926578 0.5739216476622374 -1.8158261810391956
P 3.4785788963323054 8.947813436747678 2.8994524791713556 -0.4805926597900885 -0.17737912154553323 0.1843460397816696
Ni 2.0364357684592043 7.5465411354945955 4.35014442930248 0.7295770043774339 0.507498483041997 -0.6057897000154276
P 4.450149223875478 4.106507608950463 2.837203137303967 -0.04401497212836936 -0.3126343173378229 0.47066254516057004
Ni 6.2078254686188235 7.851369768535709 6.476776547626076 -0.6811492478933495 0.5678949818521831 0.06743592215547096
P 7.761811996499744 2.659888899476389 7.228243308835379 -0.24619572609861476 0.2607854509873315 0.49843097352309007
P 6.091940203165178 2.4216495382551124 12.92836433744181 0.033725931497535465 0.7999378134891836 -2.0793388011497034
P 8.11956322847195 7.612272203007442 13.138209132505985 1.0290025363344666 0.7848636927648805 0.9961001291794909
Ni 8.070424110894256 6.256530870041371 10.154276128714862 2.985081880601175 -0.40673103661393184 -0.08589412886065853
Ni 6.155862582031033 4.733227453136194 0.2686179480880867 0.336828140975207 -0.9184006203144828 0.0382947818151405
Ni 5.510511399180634 6.563804923957243 1.5468828109398298 0.04360282429161523 -0.12647539271713057 0.38801674803388014
Ni 7.31929232620478 5.190668804768833 2.4426081793522876 -0.285053836616393 -1.0584727778794416 0.3812776295378337
Ni 0.3439101498210734 2.459373615749499 11.887299762639653 -1.103683827198441 0.4745258847707183 -0.2043409948463578
Ni 7.831769489524437 1.3268299986241152 10.985145244327406 -1.0380073109362382 0.7601880443950714 -0.5045985357863826
Ni 3.3700206654996334 7.744675594369833 1.0948702936491526 0.5437222412607216 1.8766440836575164 -0.08632864529491584
Ni 5.678793267377218 9.208956702161975 8.669980404563237 -0.763846209972949 -0.19963381917867554 0.04441400733900093
Ni 2.1452985234008084 3.5197450190579556 11.061913926588549 0.7958754704943519 1.3134861022696862 -0.7061660816526613
Ni 5.1833233141412585 4.887464300308693 5.099423230929122 -0.4236167566256769 -0.8921645694360892 -1.128662865741282
Ni 3.4107161600569342 5.457395012180221 10.448682654827854 -1.4563810739954208 0.9537460896933124 -0.6253599088378715
Ni 7.891456214875145 0.5013611105433023 7.582751820447622 -0.14613790414306443 0.2542278523744718 0.5461431919973885
Ni 1.5435035161310127 2.377668874522665 3.455282801998994 0.1109122481715509 -0.8916886582409352 -0.34812402560400046
Ni 4.756112901322611 3.652646722598601 10.862279917176902 1.570670466169321 -1.5167850290047749 0.9930492581683091
Ni 8.146398262071186 3.2370082259193773 0.5676800018664206 0.6481342264199096 0.41438006851875736 -1.5810168424006512
Ni 6.263368820487393 3.2860735194706625 4.002415731715463 0.4618377477800885 -1.1921986815113983 -0.8993988824009994
Ni 4.18019321530875 2.6296210486491907 4.790794506128666 -0.9043166314175909 0.02998497639786449 1.3099174110818217
Ni 7.193994497384139 0.4338748768026106 13.092099568412003 -0.5931067052311205 -0.18754732032778668 -0.3615667813724676
Ni 3.3308662474935957 0.29088419725300974 5.097221429341509 0.01909481184792195 -0.06518337867586838 -0.5035752367281907
Ni 4.129070077021348 7.9780333418448945 10.506096522965532 0.735939713370668 -1.151436926213004 2.0107376550415372
Ni 1.611495444452598 6.111420518133536 8.266526563442621 0.547843976738579 -0.8570921512129883 1.4320345268302563
Ni 3.343185631900398 4.805981031161082 6.72095412897153 0.04231367316654648 -0.15380699065254805 1.4365460415473648
Ni 5.354881123509688 7.861788184262509 13.04050580195625 0.06288198423620138 1.3165495716863584 -0.5856039690961721
Ni 2.1289465015514804 8.014982267061999 6.992845249830473 -0.25526940626510874 0.3261884018731737 -0.3949548699146101
Ni 5.563581646164542 3.0383385428526823 6.845263638638636 0.3205260613810738 0.6969648747693673 0.09599367918850564
P 2.5733855965330474 2.1348893356773084 12.898596644393525 -1.1815813110068683 -0.9434519068561559 0.1283633537684628
Ni 4.402052870670795 1.2274536310759134 13.83620515138812 -1.439587656587166 0.06575339224672547 -1.132687413519643
P 0.5759196860138615 8.804271845401008 8.997355818069623 0.20581577961967135 -0.4827495582320912 -0.001408450311752413
Ni 7.7840514844550945 7.547140955709159 2.3644073109788333 -0.6468720718780343 0.4287664191474164 -0.46173310388142413
P 4.159956204069712 8.719115830939609 7.011065019547918 0.9500421584791637 -0.01665149251375197 -0.09824082335146951
P 0.6235546390534953 4.008469301880903 2.115570510766717 -0.4482049874880023 -0.20723811388849467 -0.4859305270632341
P -0.11237031899630495 7.370775356620921 4.433922702871044 -0.43186459845676595 0.7738747978535446 1.1864810623013307
Ni 1.7764736874674325 0.7240097601875811 1.2641386353986104 1.6790774314205146 1.0461952460636692 0.8608547035792142
