# total energy = -340855.6801647071 ev
CRYSTAL
PRIMVEC
9.39855614409363 0.00000000000000 0.00000000000000
0.00000000000000 9.39855614409363 0.00000000000000
0.00000000000000 0.00000000000000 13.75573693749682
PRIMCOORD
 96 1
Ni 9.330153365891194 4.72058455501749 11.56162809422883 1.4597397060550086 -1.6069232778537679 -1.053345226844889
Ni 6.089954172503902 4.363589801753221 2.434050265731874 0.5321934146855157 -1.6878407794354418 -1.3225207016681286
Ni 0.7949693452257671 3.242389056948543 13.215933735691467 1.656293857867096 1.9841658180902795 -1.2673610257768497
Ni 1.9539879998920917 4.061379231744467 5.657473036557646 -0.2709443937982044 -0.047681622346679164 -0.42056254318038533
Ni -0.25605050179102845 6.1662046577933145 3.6617498086394042 1.4850355045073198 -1.7915547100863403 -2.3137532183426734
Ni 7.230243384660091 5.205230496646209 10.069336641785785 0.12452726785182425 -1.5568489869051962 -2.0011348418444506
Ni 3.612100056557761 3.8484737413881196 12.483963851570524 -0.15661257842214318 0.09524034596224888 -0.10174883650472799
Ni 9.189673148509112 0.8939079448364705 7.867470184594117 0.0065887089611112335 1.5341839412075127 0.71794841899957
Ni 0.7795463147364383 8.714012226470764 6.655355327340093 -0.9469074695049241 -1.6237961423497067 1.982410783072386
Ni 8.930235407115186 7.784344655549102 2.1830768639227682 -0.9294491648191606 0.6375759912880891 -1.32739397060003
Ni 6.473095708718393 8.768871598174732 2.1829528029828174 2.0805078817571396 -1.6674491031529672 0.6087840067570612
Ni 4.882841226783347 5.6819064627386995 5.831813431845826 -0.40644410150113236 -0.3453125242971343 -0.6833249153884297
Ni 1.3067470384794675 3.278357330978196 1.7841466933883376 -0.618434899583264 -1.8704536385760884 -1.8084406872084018
Ni 5.260306035139485 1.1679961554118496 5.283069337909232 0.3288520647482659 -0.10829640781525865 1.412481544398993
Ni 5.629415527161063 4.784466540536056 -0.03769384892169532 -0.4216326363161126 -1.0453079583627094 1.4254489031929385
Ni 7.001022000989012 2.110257791449721 0.745266961230205 -0.5087549811569173 -0.3713426298123088 -0.1244233952841083
Ni 3.892816128864447 1.6079331658780236 11.523441760969755 -1.3088151791565783 0.026448938220148 0.7299521283286654
Ni 7.3784492151209236 6.092726746540681 12.09656101003985 -1.3225718666210382 1.7968290711114023 0.4638591490854915
Ni 1.8730946279105847 1.4129413233660768 6.008189554375924 -0.6396840387700273 0.2681210654167963 4.536656763591626
Ni 1.4594923715157695 1.1346970713023483 9.93172486371226 0.6475266747428978 -0.43195895794278516 0.48222865273161464
Ni 2.6630244673786563 3.0934407405592177 8.774124451154918 -1.8190120349663446 0.9609356654632158 -0.12135606921269425
Ni -0.01883282662676235 2.997838628348704 9.76501891550908 1.4396159387219398 1.4732940477006755 0.793242403746879
Ni 6.8420266281748905 3.0952922561024216 6.068439937834115 -1.712051058133058 0.596648914056424 2.2375979140363333
Ni 9.333113911049109 8.820140721464975 4.594126983272262 -0.7250942860157319 -0.8433853431498571 -1.6264798598294568
P 2.140915881307241 0.20536972810994586 8.110148420827427 0.4800478430302119 1.0991345172648619 -0.347171431882744
P 1.9703790816552784 8.13749539938611 10.977930770316727 -0.6521006672668253 -0.404374106345981 0.44133834227515606
P 4.3325369725413125 6.064596868262459 7.895504197600558 1.4474174370442299 0.2989249381715303 0.8904792113138663
P 8.524245981126437 4.215130210278854 5.3006906906602635 1.798525742087535 1.0197265103491795 0.8334649987123518
P 6.240782200104603 6.332089172197126 2.490669047129689 -0.32566749637269715 3.2249267247810978 0.21299687074914284
P 8.257402177559698 7.41107160319433 6.627582594192034 1.0955236599851519 0.5890034816960242 -0.08271804512552206
P 7.254425869394426 -0.24978260475669978 4.147836548911642 -0.4406698554532218 1.3485770324355484 0.5851270294597537
P 3.6536040801049126 2.971052743586616 6.7622103307175 -0.40762166674900124 0.006182988882260319 -0.04590421873128223
Ni 2.435344446900905 5.255061640859751 7.542517928494545 -0.5754455405059316 -0.24059252097922432 0.3654208650112352
Ni 5.960865005062751 1.6517116399909386 3.187837018027634 -1.2703021106830445 -1.5805455591911874 -1.7079558050177617
Ni 0.12546884364804475 3.7198263060816403 7.5112649100386255 -0.28540016421221814 0.5111908442919196 -1.169030213814735
Ni 5.444508335298142 6.829394968834452 9.659237227233366 0.2746753215955463 -0.6795639056841005 -0.28440257618563924
Ni 3.012162027779379 1.680640395533994 0.47051521259721046 -1.228895779822116 0.5874420507461754 0.21340464771052278
Ni 6.373499210183708 7.503581590462131 7.49727515934797 -2.0868255964450513 -1.468748080201206 -0.09118597338721715
Ni 2.2599767894357097 7.5009499947662075 8.362387808137392 0.4088753366504442 -0.127803881720567 0.8374268115735771
Ni 8.633729760632953 1.7580938959986854 2.2894638192085432 0.05878158891458264 -0.36126467675101653 0.7463976754791984
Ni 1.8774179636967463 6.1104618218199995 12.312952424837691 1.5098507637787868 0.7072760268873883 -0.6176707677237299
Ni 4.167338552729654 1.5207615584505254 9.285260223029933 -2.409621427696908 0.4149868488648208 -0.16250374709559756
Ni 7.316597317710641 3.129324427584359 3.9349658332127055 2.280861095600343 0.34371124124828545 -1.2816720430828832
Ni 6.076222882104812 2.4813879730235264 10.551764524185081 0.13412750994574965 0.8033393829715648 0.0156886143798504
Ni 4.125655956617422 8.36650061626788 10.722693243624617 -0.19582472984523047 1.49301363761679 0.7980112858904321
Ni 7.238269751532661 -0.06936980240017479 6.546754072247319 0.3608147336977915 1.4044823282436005 -1.4321998487635268
Ni 7.929712122080759 8.46713095596882 11.330820234295352 -2.294570474766635 1.6239465518846419 1.0225986896906518
Ni 0.2342768669740705 1.3481100836857662 0.17234696154851648 0.0869703926439728 -2.1277691287369485 0.09267901299297587
Ni 0.4218316320782134 6.21803769444697 5.790243618406277 0.9559526104263277 -1.0159475029227214 1.3703457915712076
Ni 4.052084059804219 8.267468031096609 3.2580188556711227 2.5382642603790027 0.5394205285615743 0.5572508718747757
Ni 0.13301400445050246 8.545138971240867 9.687505264285624 1.1343339479841303 1.9245547912958663 -1.9445957691071414
Ni 0.34660746911021234 8.276772601592912 12.930956358068594 -0.5235650495865564 0.8311129535404073 -0.7124801967961472
Ni 3.388527205076863 6.023825932087744 10.536247508135187 -1.5722259835818988 -0.6365020414976198 -2.5235989450573437
Ni -0.2789425647787543 6.69618923384039 10.71273359377115 1.6679874921549402 -1.3087223623324558 0.5450913536941064
Ni 9.323339412749961 6.3552660114333746 8.312908169920378 0.04646806165455223 -0.15719364773659378 -0.4271049722845935
Ni 7.915924440345326 2.300907501063392 12.31881242453915 0.6414719839083856 -0.8467696862410579 -1.5978328855167256
P 1.238494724394455 4.866440746464104 9.373103827215498 -0.0382569865986696 0.33937713264930586 0.3940117892750505
P 5.628456874443262 8.211321057212848 12.938783475552757 -0.4970816585840472 -1.1367458998597326 -0.4996064818884299
P 5.224995660033813 3.6738673669635307 4.301019854660194 -0.8255601420429782 -0.1496214918162907 0.3453112387455537
P 7.564418443818272 3.3290719394610835 8.62059621839908 -0.80281770614014 -0.32423924856660286 -0.2859264690293334
P 7.5228768260468915 7.425554778077972 9.309057366965936 0.8779569104771395 -0.07111028568326462 0.9878833976966535
P 1.9333205751230276 2.860553920025959 11.22604325166212 0.2260830145091397 0.05515710478811791 0.7674845780564846
P 9.075085953063715 4.689503530137411 1.6538526310606942 -0.10758909733558891 0.447310757808507 -0.16548956919679886
P 8.095568440816399 9.262934892972437 0.47715529245139127 0.08022741749318442 -0.06551967896936457 0.542059251736002
Ni 6.750917025759562 5.059806638778211 7.513947257937257 0.5541550065582715 0.6468646156788666 -0.10723608487154436
Ni 7.411964466019732 6.3710555856089215 0.558298666024011 -1.299413169116388 1.0622841812057315 2.653005909598973
Ni 1.0681740915318003 0.11250447542319397 2.2477144933483073 0.730301284137968 1.4062152517743074 -1.4394716998345918
Ni 0.43466911979629635 3.003505957650999 3.8812916194275093 0.08185723978712355 0.016325990853533173 1.3823047637052968
Ni 2.036479126403267 4.692191517169676 3.2257752294068083 -1.8851256387659665 0.7928793639805055 1.9228254673095853
Ni 2.797151260866293 4.969185761277841 0.9634685379245997 -0.7957289176141586 1.491764081480405 -2.2832779325719517
Ni 1.9909337237516598 7.5991931012287015 2.9932756293830924 -1.6162782367061068 -2.1714393159313894 -0.6270702066607587
Ni 0.1620264071424641 6.1589489725174085 -0.12727994540020418 -0.4496427483757934 -1.6517201224534845 1.7097049264983846
Ni 7.4403669024236025 6.291882149385822 4.993057153806692 -2.2054884350962984 -0.40358503478578234 0.5873489768117368
Ni 8.549076966228697 1.6732813261414623 5.5971540436402405 1.0360190768616158 -0.4425364763483153 -0.5805543224874066
Ni 4.527040090138302 9.064738142845098 7.686003804103616 -1.8260879679765196 -0.2643826814202866 -0.5857579781755332
Ni 3.1536854848837748 2.233228498897849 4.448454063668757 2.1446273379448675 1.3164960927406038 -2.2455665340641064
Ni 5.927556522397193 0.9171966268897963 12.367508223181021 0.5154331645080413 -0.8305434541901825 0.7207779180285652
Ni 8.03132931016767 1.30337295685505 9.901612829961644 -1.4991590883928956 -2.14059661951892 0.38371066445935853
Ni 8.035746631514401 4.282875002336795 13.292677645173864 -0.769904500351887 -0.4296143689700085 2.923464107789378
Ni 5.093209107004339 3.833765001159113 8.7351542783207 -0.6345631726036943 0.789133523784828 -0.48576777623312467
Ni 3.9433521647822536 5.455655022781594 2.92676674744663 3.3387011249917915 2.6655600921149 1.2866054758287584
Ni 2.362627818688878 8.43151042851327 5.187673054076364 1.741187056267066 1.0311452937090824 -0.18055571950130195
Ni 4.001369451321331 3.363339074844443 1.9453911406668696 0.058631436489963544 -2.1668149297855006 0.6369671540594966
Ni 4.0391986394502455 7.24127728947086 0.8671681129990607 1.2267111134659712 -0.41370155439449396 0.6153686019531144
Ni 6.140509005533823 1.740781755741925 7.96651122846584 0.860502462446118 0.08628082277611593 -0.6368113452079227
Ni 2.4527035799379497 8.914088687809478 13.638537929077556 0.5081312315299894 0.0511271576931184 -0.6728327576078541
Ni 4.941403629573723 0.13222076631930238 0.8831334401728711 -1.5289113799546636 1.3998980513070278 -1.1595137896838676
Ni 4.441522628576814 6.2813839622702945 12.44126621140415 1.0662490793907506 0.9865510520384752 0.16039929915808504
P 1.9093542571780013 7.1227427004815755 0.8666775083728919 -0.9655222563926338 -0.62956391961689 -0.1447551648629249
P 4.581194570138004 8.534199051990667 5.6193694105918714 0.08595660666747776 -0.7464046174577339 -0.9568784646747067
P 3.3854350801341515 0.7905398057561629 2.4844782182550262 -0.04354985956649274 0.4116780962065619 -0.24261957871158213
P 1.3837400096973722 0.952205308346043 4.13357142052852 -1.2858997080109853 0.5807479265554515 -1.375283080971825
P 2.378558371205278 6.397202368559142 4.83053356304882 0.9404920528968834 -2.6061303280933568 -0.47537126349014897
P 5.625110988487016 9.58201587110328 9.385965751179329 2.9853400193585684 -1.5445226041293594 2.269128380544447
P 4.977052352697443 2.4526659857137227 13.878162574447986 -0.1924578702555266 0.4426382920335022 -0.9945605526065129
P 5.974380128672534 4.3749526560259815 11.683256687872037 -0.4162096655283284 -0.021090759232028196 -0.4619156522058755
