# total energy = -340870.7374826068 ev
CRYSTAL
PRIMVEC
9.24139284129787 0.00000000000000 0.00000000000000
0.00000000000000 9.24139284129787 0.00000000000000
0.00000000000000 0.00000000000000 13.52571255753991
PRIMCOORD
 96 1
Ni 1.267956022428741 0.9308947122188093 11.33679235680774 0.40723111617880187 0.6369131608931096 0.7801912269898758
Ni 2.6759006590943155 7.197085615544987 8.625346529576435 1.6229697897936692 -2.1841793892058767 -0.033504816625664874
Ni 7.478763260246511 3.0831133800958908 3.7942459293707627 0.03711104591968448 1.5188180002744034 0.023719969324759147
Ni 3.5998550855135565 2.2610083408897568 6.149600570868207 0.3174548786549178 -0.33822039333704335 -0.6180464058955937
Ni 2.2821803712050848 4.632303460384107 1.4025892496870798 -0.5418826169488217 -1.9258495988478896 0.7158074613971672
Ni 5.724543645005932 1.2730757538973971 10.774190240896923 1.133077706979526 0.7391757038094624 0.8043128026284276
Ni 9.604024786076533 2.3524426787072397 5.311560598500694 -0.27560554671929954 0.22859883895245794 -1.3809459356845573
Ni 4.320831566124914 9.639696561291359 2.339406770386506 0.7548455491362355 -0.40049276901370384 -1.054668830752319
Ni 5.657626721604234 0.8163190033351486 13.662592100814376 -0.7611784333327988 2.0095870863768615 0.13536549611790882
Ni 2.732263912212249 8.541966989499171 6.6584371891048475 0.11407084840519066 -0.9973170323057274 -1.7322424454792684
Ni 9.192514817542603 4.880092918631547 5.022853950631192 0.01597606371328216 0.04296699047982923 -2.1254957593217396
Ni 7.3244320047834055 2.0642868178332816 8.026590237760061 -0.8428032453941422 -1.719681320984806 -0.03599055916199608
Ni 6.632991014738521 6.190947485243506 11.375962923239234 -0.5438060592237796 -1.05141124304697 -0.7546773989894874
Ni 8.031112051131204 4.012289193301758 10.092981320675316 0.17918994950202688 0.13104167193157432 -0.5753401252763187
Ni 2.2628381366132113 3.576954914792744 12.616203085293161 1.45702333556511 -0.8519106070120489 0.40897560967373436
Ni 2.5233160268217802 1.3820040477982134 0.6150220668307822 2.6237105030689656 -0.4232238920626324 -0.33191373439272515
Ni 2.5625734623431744 0.22088406799862098 8.661934126792243 -0.699425420494718 2.1318548687705476 1.298679376274157
Ni 6.8114700289157035 3.40398377057101 12.023303063931095 -0.44547473304103286 -0.7051281273064501 0.20151535247210456
Ni 8.533335528864287 7.25064872672248 5.116830595537171 -0.5305934171882476 -1.566126298442064 1.9647228788743194
Ni 8.319369567323132 5.280485491936608 12.960986503111773 0.12933754475627401 -0.12331936358665214 0.4408940556488859
Ni 5.587724828411244 3.35649225429407 5.534126599942087 1.5264402927063516 1.048431848703672 1.2491876973019325
Ni 8.998584195034024 1.6647906596048623 2.539939443727591 -0.0573998780757076 -0.3893724907308262 0.20087386223336373
Ni 7.173362960887873 3.516100344899058 0.9953746804069966 0.8055111938119031 -0.7650194043454437 -0.019007137230122106
Ni 1.5583667830831183 8.067218171795536 10.45532153604655 -1.011622393184806 -1.3003351667100251 0.5597340433079457
P 2.291477212103042 8.55770508099939 12.92976907910253 -1.2553709432945088 0.39329316594147107 0.3168820368705833
P 3.5075612981896027 3.6267382964202737 2.926206548531134 0.20318631241662427 -0.05543812636364646 -0.275128607082881
P 0.40412979244932956 6.132541884373636 1.124248671832724 0.41995344884147673 -1.666527362669646 -2.9748792290365604
P 3.9747044498305923 6.477310515964181 6.0080270578103 -0.3494717978811465 0.15830179319910803 -0.13547065423720542
P 2.618779611787881 2.520321815637945 8.065720142064364 -1.2362799881013289 -1.3318139540445966 1.787379238552412
P 8.787418375433308 -0.20523099730979413 4.19259245836687 -0.2043826467175706 1.9601856531255981 -1.197152683082564
P 0.9578888198360387 2.767926446034532 0.9778687105133582 -0.7445842764195435 1.8499565470640014 0.16921612611876666
P 7.312002331813472 6.9672059760453005 7.109330276098753 0.2622394098250387 2.2013335323876606 -2.8767929289850844
Ni 3.881846937561533 4.057285533592168 7.468546900790555 0.5116842389885704 2.5512344473864257 0.610507160095755
Ni 0.3109811763151753 2.252811225704381 7.9895978675508825 1.6014630260701452 0.19324977002920266 0.9564241507461075
Ni 3.46789724139633 9.28954019784842 11.317044425083242 1.3925331263015244 -0.869222101707303 0.1684406814053228
Ni 5.981860978964897 5.215897399455671 0.05596494909934268 0.0336426277551098 1.3918630968176933 0.06367208423766453
Ni 4.996580671632293 2.2663313829943528 3.7515858131151463 -0.16778582143014328 -1.3416965032656312 -1.4530602371523038
Ni 9.017649187849615 7.025389783494146 2.722049401034802 -1.4251190306573456 1.743978502969274 2.6794952141387527
Ni 3.2641799841850303 4.368868324561873 4.947624394637335 1.2827177107385779 0.9946639109535967 0.9262481413833596
Ni 7.104791828221032 8.862523172627839 8.735716480713913 0.7724308663181665 -0.5529535300510026 -1.5588433916274056
Ni 0.3434720642168033 0.9491464624906437 0.13031102796611754 -2.448542787352454 -0.803005910891546 -1.6561578465098636
Ni 6.240167141925931 8.365789082065119 5.532084252190151 0.09657706249580142 0.30157214598639026 1.2816188212474444
Ni 8.565116677818637 1.6315401292362244 10.322147524670704 -0.945010252482211 -0.5571678252426663 -0.36296289038904583
Ni 5.59349145735789 4.370346947368706 2.885399331480329 0.3757795825377399 1.1545466754865794 -0.06499183149035258
Ni 1.4806189476213751 3.653094747952057 3.665873745560104 0.0060973711469894986 -1.0565490784941676 -0.6701246146480717
Ni 6.3287920964104325 6.995937465460557 2.1646954719489817 1.5777286585676829 0.005554611269642047 -0.9372432069422827
Ni 4.844864730258771 7.268290545086497 3.9090933351951787 -1.0958378487914613 -0.3632112589544261 0.8798731536632459
Ni 1.5177138972877766 3.1591700407223193 10.292579689230333 -0.5045969931244858 0.09793691895780551 0.011205896018148443
Ni 1.4538743576027986 3.9306599729720797 6.67621023524297 0.9495675328355905 -0.35949884309984537 0.2939567955329776
Ni 6.394110258902244 4.056675601684351 7.700133425492878 -0.5589354586660502 2.3088894624924685 -0.2326375277982058
Ni 5.266410851094076 7.431160847259059 7.630530953418273 -0.8452851312757312 0.5415589150608157 -0.24718842902918717
Ni 5.1340648684900545 0.6883941029235564 8.56472391863557 -1.4667701305392287 0.7562282884163751 -1.6649376495850232
Ni 1.1726680239209515 8.78479381995118 1.6643119554711505 1.1211776131078304 -1.2824881112262752 0.859312813013391
Ni 0.45993948615395486 7.207944251782659 7.903980062199776 -1.1292634754397584 0.3022249490790408 -0.6274813260562483
Ni 8.932397341643199 4.535592287424741 2.4559037647797943 -0.05204324174948457 -0.07157488402450898 -0.6480558077734904
Ni 1.5502343576455415 8.260344793152901 4.159156176008124 0.5625887391479214 0.39827544964741085 0.35735274329112
P 4.982090168125337 8.158310578088939 9.825266495966558 -0.17014120903619728 -0.36396407796005065 -0.9245740961150464
P 1.394868066217653 6.01581385516678 6.377089462117097 0.272713312773169 0.7782379599182467 -0.8129969606659869
P 3.8695281613021133 5.479110741856879 13.141933893237113 2.324043801635404 -2.6390147375262036 -1.8291486091797142
P 6.808651404190179 7.276958971291551 -0.18410702223568828 0.5111525348548164 -1.393774197797477 1.165603190411057
P 1.9806060083591246 1.1273297521064607 5.743422885831416 -0.9392193568320469 -2.6265194332726702 -1.3985394803966043
P 5.9520112810519725 3.1689843996026674 9.549693715178739 -0.10084663640543277 -0.22672604740977725 1.3897432222612132
P 0.19336597342422038 -0.24227881587422795 8.994219485336107 -0.17892512587641446 2.410841159036622 0.36379181404824446
P 8.696048727363623 6.059359296827988 10.730339833281807 0.4768162234667917 0.5180279218184111 0.08927281552490432
Ni 4.528550346307203 8.00403477098109 0.5754162308105288 -0.4798249283861285 0.5235115706408016 -1.4737473331880102
Ni 8.917934562313873 0.48095626107456535 6.558753060164495 1.4680163442415042 -2.528540091112703 1.7302845504219493
Ni 4.945531219226413 5.689306215240613 9.074521641696652 -0.21622437654750504 -0.8330664777223523 0.19108592960866444
Ni 6.071742762835207 5.836041046033619 5.5843609615257 0.41457572946933113 -0.16387491641151133 0.13258099139423618
Ni 2.288030172684614 6.4752589268197 0.15078071244820013 -1.756175045035466 4.1525714894016685 -0.09348068295866481
Ni 4.2958613234745355 6.098625973741923 1.717819618293389 -1.0432850143954098 -2.3115101879447675 0.6789640673165727
Ni 7.3679404808744415 6.299635502938211 8.96708768096999 0.0011112307863077636 -0.5688707155018913 2.7353506305454762
Ni 6.634793086284347 9.151677103896407 3.3865406421466617 0.0441934066877626 0.06963987178532523 -1.4040447264855498
Ni 0.8187282343710307 4.9250430519592445 8.880211197954567 0.41670537421782433 0.8527014783444606 0.6194571702001912
Ni 3.5872867916554836 1.9896071246957154 10.075857944432945 -0.262144021897755 1.3929794698103235 -0.8278324830169227
Ni 4.082874949542907 9.499319808567734 4.6789632513322035 -0.1557905967414801 -0.82633173010168 1.2856122586775538
Ni 4.475486270327014 4.361844866229421 11.045745788346425 0.38583413856026455 -1.3159163089777337 1.2160137816531251
Ni 9.270225687434175 2.8855878558882004 12.32437192260497 -0.9056957711533047 1.0872835314635467 0.19462710999270352
Ni 2.238145135739115 6.039462578683551 3.543465956496504 -0.18907609826748728 0.11594209728597452 -0.26399264507071957
Ni 2.374196916752758 1.1685833284170777 3.352280027573107 -1.142854840970948 1.215855658808706 0.011459921010483489
Ni 4.676893179402639 3.305063904793939 0.29116670656437027 -0.6762700654241772 -0.15036711173306364 0.5138470509678441
Ni 3.7013625412025837 6.686175228821765 10.887792831145836 -0.5508447112381158 0.3505120662202028 1.4498322171333096
Ni 5.854856521250557 8.366177220551913 11.811043987592576 -1.039700639478261 0.37940895176021106 0.020381391869829416
Ni 1.175431200291219 5.532609163286576 11.864619112580378 0.3060157835800407 -0.01786839563998858 -1.6144499252481164
Ni -0.004700172247217703 7.691666461645256 13.045400155014566 0.44447071725655063 -0.1595248669729317 -0.19240567686135251
Ni 7.431271743969571 1.249907582792846 5.156245134731791 -1.6185361795023478 0.7026544689549771 -0.04862830253066464
Ni 8.47244399340043 5.1737936150311254 7.163974630203743 0.1182370639677383 -0.33193276055611864 0.37404331657292356
Ni 7.54103176319923 8.870526218569816 1.0745188902819418 0.8376484406660799 0.3566960835437276 0.2850337820117349
Ni 8.078834602221711 8.394418916162406 10.69937931998525 1.039906327731164 -0.7693560840475846 1.6163067759511969
P 7.350270938332796 5.760150730472959 3.6562026282641673 0.12460362961571445 -0.5886944350960378 0.33487204569010065
P 7.9229969997741465 3.3621572279227454 6.104519209766403 -1.5172547695523417 -0.2317078168950848 0.5057984696317548
P 4.017917201360262 2.013754883409793 12.26656331569336 -0.09983465020115065 -0.04135130925327717 0.06948971936070612
P 6.58423342768323 1.8517717549213306 2.1549439545379236 -0.6226252835155277 -1.0607507752803407 -0.035849405598441485
P 7.386266162286618 0.612102710926543 12.38564327930233 1.9196123596889263 0.974038264283445 -0.6971574503961477
P 5.436517163627571 1.237450185645285 6.137548870853271 1.2399679784758775 -1.4162659511420899 0.8051422405082584
P 3.1897498086461167 7.746504884993643 2.489542433635225 -0.7137048132318676 1.2759667651679896 0.45193977194008617
P 2.871115835166331 4.89057265777497 9.725000159296014 -0.12089532752619178 0.6695589719525888 -0.5143083068749787
