# total energy = -340858.937226673 ev
CRYSTAL
PRIMVEC
9.43217759915623 0.00000000000000 0.00000000000000
0.00000000000000 9.43217759915623 0.00000000000000
0.00000000000000 0.00000000000000 13.80494533548647
PRIMCOORD
 96 1
Ni 0.16207876238163554 0.952829121780677 12.922850722438753 -1.8673150929471065 -1.9019941323865304 1.5804542850289618
Ni 2.448998818702426 4.968871017868527 9.415275812246788 0.7599288771964139 1.050851256778442 0.4027782226137708
Ni 2.426352160931161 0.8266605449328855 4.704614421680004 -0.45334179449393536 -1.4082597930081617 -1.1373701637072926
Ni 3.2262573916474824 6.1416019219396105 0.2866014242852014 -0.286387724936468 1.6835020428507714 -1.1183249741503838
Ni 9.359464675762677 4.936697860993148 7.192652079136901 -1.3618799201920417 -1.1594505405461002 2.5182554213572437
Ni 9.163775292680446 6.402580836505678 9.224105385323748 1.10939604709187 -0.5770807621165093 -0.06802547611035381
Ni 7.865822802365583 7.573585652125225 0.22360391189274906 1.3694698167241577 0.0005247621552184511 1.2090345221218144
Ni 0.901445449335646 1.952356953526174 7.842630964744598 0.12981705549585384 0.4804201387679662 -0.3370055470933357
Ni 8.718604819198402 3.8363589179359976 1.7057668254782508 0.7230253193018451 1.0952853187221008 0.6947323858944229
Ni 3.7668909318946127 1.9043283065577103 6.354691785761711 -0.48612464535191113 1.4039729927073499 -0.7681942025289995
Ni 2.3542525974144803 1.5900764544272517 13.636483599981126 0.3892465066759232 0.8797286576655818 0.19282322401474533
Ni 0.31284645770816877 3.9266531515238023 9.739360709244611 -0.0650998178231266 0.04165881319136697 0.5347511481103628
Ni 0.050667770185622914 5.690800438591076 13.64034890625129 -0.2418544184107835 -0.39418893828286306 0.05216511203932952
Ni 9.293345112673727 6.548015578769374 2.2194762155345957 -0.6177515003629942 0.9122603117446997 -1.2558746224038049
Ni 7.088583093775188 1.4210046757725567 2.690376725557345 -0.39615711775282736 1.9198892674993968 1.047522706625841
Ni 7.658192282782554 3.1027901903872332 4.5220584023131885 2.1387629087442908 -0.6960297645496079 0.029946666960761332
Ni 2.0369164232968484 8.663728411487774 6.835463069361149 0.06236056451509261 0.9284520910132138 -0.2948101446722084
Ni 2.615797442620396 8.54883505942123 13.20059250255713 -0.8764556433412648 -0.4471446645442879 -0.4673923590497306
Ni 6.479283302559792 0.7360305258321044 11.745413161879597 -0.17563128561649108 1.994901716450545 -0.45867349111949396
Ni 0.6720765906583083 6.930103650262988 5.5220880258926845 -2.0198858971997087 3.7559934820613377 0.1068884717241385
Ni 6.619266246326282 7.874302329785977 12.240582664174509 -2.3492719800745734 0.32316966965150795 -1.2794421253110997
Ni 3.768164275834271 2.4856805563419293 2.5760445880419818 0.3974668377031864 -0.5739116203599083 -1.0602496672742063
Ni 2.424682665543608 4.040424074487983 13.564932045967366 0.17950799496307795 -0.02256014468870308 0.47093945297104056
Ni 0.7297043644963328 4.0453665354093244 3.6460788885529856 -0.737927176114342 -0.64202888485312 -0.3035251559477031
P 2.517863145394639 4.2054305847131 7.4221869441352615 0.3450381875898252 -0.7486075386463236 -0.7489273838795876
P 0.9818424992502358 8.27414175901617 3.83581468130401 0.275306527421642 1.3317777014900225 0.29591700458314196
P 6.104429711078905 6.503995607166503 1.2083760454219332 -0.5771023593830642 0.9925808031723228 0.4304782596322006
P 0.2372400106598951 7.883300626959566 12.5060786484643 0.34943734509878527 -0.35151299668089137 0.28614218458456525
P 4.383906244166608 -0.0033238992913759845 2.6173895941538365 -0.22208392065207558 0.28231689730120413 1.0738826846766087
P 1.5945473064820537 7.0555138800533825 8.466268608720553 1.2426930907165243 1.075344871044432 0.25798217721058153
P 5.844865623112459 3.361373331911276 2.0431180798918533 1.3305481999582955 -2.0063222995826604 0.5794150666766409
P 8.4721891864311 2.659940032528568 6.522518517008739 0.06452723314910823 -0.4637200524044659 -0.14816393343415774
Ni 3.5558553962951622 2.393980928331835 8.608377565257406 -0.27592127818750545 1.0012330795306823 -1.2259356687525274
Ni 4.4496107914530025 4.241206833328847 5.652269050977001 -2.414577486150603 1.2586897232550966 -0.9946842226685708
Ni 5.432198432712372 2.4354730764100503 4.554195716914711 -0.3038660842268896 0.37784957769289124 -0.8669343341143908
Ni 6.007193394975627 3.2532805797002413 11.992645621203748 0.32914028541264606 -0.45459803549853967 -0.4992195308626564
Ni 4.598714650698381 4.944451110759069 1.666463885758516 -0.012169545482998397 0.5410050994398747 0.6704745417883228
Ni 2.0145432986681766 9.393137548833653 9.109772304590651 0.9198077850746545 0.6546177772617242 -0.8211450436944181
Ni 5.17058756226514 6.167663027904628 10.618418885685589 1.2942861323024675 -0.286029570266101 -1.9749612687728761
Ni 6.426915854019158 4.901789372691836 4.150070306305401 -2.435254040663348 -1.4094864663264113 -2.174954271063183
Ni 0.6411937556417837 3.126578141615526 12.460357112070952 -0.500922372486376 1.1424786885784517 0.1801469140986575
Ni 0.2241038172912818 8.438186187153544 10.366878750974461 0.8195136787385823 -1.3682236030218824 1.6887540352783306
Ni 0.036519504189414125 0.1341349938213901 5.417433302318728 0.27744542814151574 0.17272722459581866 -0.4471742322306428
Ni 2.06467532118141 5.393488776946745 2.4775462466118428 1.3046985858850433 -0.047701162730704946 -0.5363853412796762
Ni 5.211164789142267 1.2182128631602305 0.9294354355648123 0.5530350340212153 1.3579751858209967 1.3240541075935197
Ni 4.7276147861011735 8.389714227850533 0.5987008535487702 -0.05481694783987978 -1.7448493356100012 -1.2937780823177976
Ni 0.992472563102054 2.5450089517526986 5.41035162357876 -0.7921414573732164 0.1505766566407084 1.5810127286355935
Ni 7.862813937797057 6.292365844395212 11.02189536249454 0.3908195075899979 -1.0302364087415676 2.1987971391190517
Ni 7.58756413892948 8.276565828590186 6.119924891997954 -1.2958902435647939 1.0701340162674537 -1.1685687007972843
Ni 3.718183168158331 2.0717494541795145 10.740123213002711 0.37664578719277714 -0.07345050378066705 2.022320731893446
Ni 7.5027971612575275 9.111455005026468 9.96053017616828 0.3172903280525955 0.8880050387417611 -0.4061967613770166
Ni 2.707034893941281 7.800476677817761 10.73371782137736 -1.1253152894252878 -0.727383853380857 1.0120088299899475
Ni 7.583961047189112 5.73545236607511 5.7667530465473895 0.9925941729087614 1.3161111985973593 1.0365872906602598
Ni 3.5477059950813463 7.2970059162540055 2.5126377191533726 1.5221511784126946 0.9362895847797618 0.3767113503233899
Ni 5.754694007829955 6.902061787058503 7.387578399073068 0.05065176071859664 1.0911111327397531 -0.6286642906207561
Ni 6.697138302369415 5.585009137648757 13.110569915676452 -0.04675268277450658 -0.9010073645387 -0.10614516580021074
P 6.928273807860812 0.30246257368468454 13.663209674447964 1.117111927678889 -1.6896526358331996 1.8975134709073578
P 4.141867141680799 6.992695579030216 12.147551212725306 -0.8905648290491373 1.0536319048473723 2.3879771099542553
P 5.882952755174253 3.8109580643841374 9.328911966952731 -1.9981402779925008 -1.2770260596704395 2.067908447825574
P 6.7637954995662195 7.162927515496601 9.504456105691824 -1.0944224565011733 1.5637071474776103 -0.7878091485464497
P 8.565171590558183 7.025472395254766 7.342643506269109 -0.07016257705801464 -1.4345863467178326 -0.685915044713109
P 2.8368499505451625 2.9316244683651 4.36706980763112 0.4758967969763159 1.2331383571485537 0.8276913294533682
P 0.28590061350952256 1.941670296610371 1.1971677890997368 0.6530504327746044 0.14647960375319935 -0.4325369419334421
P 4.381180344918006 0.04404732491713028 6.906682610732865 0.5516936895019724 -1.8472610025097087 0.737683178424336
Ni 5.399591395679776 8.899457387339275 8.972469042403842 -0.39713825071917414 0.010250731193730732 -1.778323556108047
Ni 7.664389223288894 3.100149180734608 8.474123726001649 2.6438324706298206 -1.5960169153539094 0.8614596841530647
Ni 5.822190668809201 0.1794801863392393 4.992226975375067 -1.4674591861864534 0.2674867742669071 0.6487970568148891
Ni 1.726437442098712 0.7598363981973253 11.342114953222199 0.6838453066682739 0.21025993143395402 -0.5262762778701323
Ni 4.043470667765833 4.625162475933961 11.856142207654592 -0.44372664000167455 0.21444260205673393 0.8685685272837043
Ni 5.9798872416029445 1.7293991457805848 9.529677747874398 -0.5915488738256974 -0.04494725413465162 1.3342647295779342
Ni 4.7627968075450795 4.830180282396356 7.927199866692604 -2.0179650260279116 0.1840519055800185 0.006330055983085873
Ni 6.882518315629073 0.9833044867365107 7.570811648772236 0.33048857191042436 -0.5746922072796747 -1.3660224816055055
Ni 6.544563401866299 8.737969079258548 2.073958470110389 -0.9290529578220064 -1.880804642793109 -0.995626274866866
Ni 3.7577888807703848 8.268388130844379 5.033462568229885 0.6675730518708116 0.3748845815272963 -0.6317203038382605
Ni 8.852079560606636 -0.014051114569701487 1.6051971779062666 0.40131860734910885 -0.15788938825203777 0.10637605086409421
Ni 6.11560684121591 7.088356721519249 4.002647261060372 -0.7188344211489491 1.4044280779668974 0.04612353383093992
Ni 9.351569943336791 1.7563374442373667 3.4798952425969834 0.6183868199541479 -1.0768034578678294 -1.242306653911383
Ni 2.3243997561624803 0.18668542660224188 1.716686457174125 -0.2392915427796137 -0.6386635679253131 0.6850478116168073
Ni 7.538130097538727 2.3317662866578392 0.46760962335203127 -0.5381529747030602 -0.3272235280059074 -1.1829717635964916
Ni 3.0781627753764993 6.629528455262198 6.5316856501565494 0.16361266388906018 -2.275615273820371 -0.3193364119483468
Ni 3.6940556585461297 7.332725571805767 8.731641031487309 0.5402157707693599 -0.6374685191759473 -0.4123177866730899
Ni 4.500582277748677 9.247815992697928 11.024849520434548 -0.7314263988813469 -0.04528381153846395 0.955707327184741
Ni 8.411823251513942 2.27781423232563 10.996107789672116 -1.4397784324417333 -1.0328633048414533 -0.5967882678477656
Ni 9.118680052861865 9.055824023129375 8.019789892242725 -0.13553133227181174 -0.0975013740822837 -1.4772149800216365
Ni 0.9919066324622058 6.005278662977474 11.445762320257225 0.2585280224117225 -0.20910139234947858 -0.40471400618390296
Ni 7.052712523386133 5.28236829581252 8.562213659747243 1.3948872283559977 1.752856007964562 -0.8848531233763405
Ni 1.3078562765122095 5.029821747780193 5.627875553964071 4.077407859584636 -3.824371199304787 -1.4187329246253437
Ni 6.505278383283493 3.7848969584191208 6.517618500885385 0.055920465316703694 -0.5580430287587679 0.26146473644254326
P 3.8386980979140373 6.180707729153132 4.314279797546066 0.7370635425624661 -1.213256273512646 1.134311322276311
P 0.06338045879208305 1.0061492202317226 9.582509259539707 0.221924769366392 1.3933913605367616 1.160213901074686
P 8.650759167657917 5.555958031469875 3.853884846634368 -1.1041222002874402 -1.4945647841539937 1.818127318368546
P 2.282813286310957 3.6095339174847783 11.199399507682976 -0.8252202422050562 0.3129611045496223 -0.39627307450540145
P 8.155437807307978 4.239980650275842 11.92139778330004 0.07500782096545792 0.4634498294622147 0.34542462439496635
P 1.6520930203773 7.4279151054282595 1.6435059661353344 0.2756669960848543 0.29899152974340765 -2.0743835140269566
P 7.485168421826252 9.003758404263325 3.942830278863867 2.0728519078737784 0.0804467325928421 0.4753134136690201
P 4.441027510081969 1.574852920215331 12.859651361451421 -0.40646055656136454 0.29312298677777254 -2.2764323704050278
