# total energy = -340875.9739685274 ev
CRYSTAL
PRIMVEC
9.17968596947814 0.00000000000000 0.00000000000000
0.00000000000000 9.17968596947814 0.00000000000000
0.00000000000000 0.00000000000000 13.43539831320911
PRIMCOORD
 96 1
Ni 2.8398092142290285 4.1573144271635805 6.288934755461705 0.7324270722317192 -1.262201335952781 -0.876719952746245
Ni 2.0831369002119846 2.710256309696369 9.34961271586791 -0.010853654885052275 -0.21296241796678161 0.46989635641850686
Ni 6.51743916421879 2.196359143853012 10.065611678407357 0.7014007990535339 -0.9813155146711487 0.7920864357655649
Ni 6.047301560191289 1.8785400649378472 7.734073400645363 1.9275331571978997 -0.6954448385804152 -0.7787609223012524
Ni 8.587192082654497 3.020906054066079 13.453132348789138 1.5325597753405285 -0.3485004351068127 1.5359451468729934
Ni 1.44025597035046 4.621806524474749 8.164543746749919 -1.4247642184210882 0.5939852511813318 0.08452013133126733
Ni 4.910819749608048 7.57627919300247 9.711898192399186 0.3146644603939742 -1.038290903614928 -0.8954159864938515
Ni 2.4586319444909055 8.91177658994354 3.4002841054035495 -0.1555903078052159 -0.20810740386732549 1.7798477060620574
Ni 1.4012239466791736 2.08461482961252 6.450280583508741 -0.5571426284316856 1.578441368363991 1.270326536163077
Ni 5.411452269589455 4.1370548607848106 6.776693684192733 1.1039162549242216 0.31248699312668116 -0.03856269076454649
Ni 4.8868883089422335 2.89546564873491 2.428944840880148 -0.8540885884999743 0.5351069887878849 0.9187914279949982
Ni 8.688186984919664 5.558290522328378 1.5734458663644368 -0.5504397624902132 0.9066753614577546 -2.8669900839620497
Ni 4.69000240967089 0.8163053883757949 9.671618649438877 -0.8062293029248502 0.6828045241085854 -0.3999142708024145
Ni 2.9263828302318275 4.822566251118926 10.063435174923713 1.0768332826645002 0.42455906593428816 0.16904720464107015
Ni 0.489404846380197 7.544673535076731 4.648298179487206 0.9796275854457646 0.7791054501248647 0.7988960024882307
Ni 2.045435930969752 9.038373635675129 6.416503929910788 0.9889527195014323 -1.2381180697513323 -0.6504513045888605
Ni 6.667912572501888 1.6475149144827048 0.8962723845676288 0.5570223008037374 0.44295788015645 0.7735472393107968
Ni 4.467514366933126 3.0485736268189614 8.724813012964365 -1.157855428144838 1.6745291499282 0.6384154564702489
Ni 0.38895980728951424 7.932414280102947 2.1288526530542646 -0.22455577923133585 0.2126690550960789 -0.3686673969729909
Ni 7.020504300915366 6.6459364048939245 5.366205598687347 0.44415575711929317 0.6325649112267429 -0.1118725552022912
Ni 5.929617989291503 -0.06743121737586283 5.99593571078982 2.542951381442027 -0.6369347581596644 0.32097831842714397
Ni 1.737099467400881 4.78983149184992 12.396505542231976 -1.0396029375581322 -1.153758375257329 1.2791053107969714
Ni 5.0890249884440495 3.5633979409197982 0.21398398188896744 -0.29339835192634633 0.7627334365247445 -0.9774120658516845
Ni 1.5122981438622793 0.8188646847538653 0.9118044128018284 -0.9695401193027753 2.38767860487723 -0.7492801392333159
P 7.105315417260384 7.354296032979176 10.919364676699578 -1.0836711315219403 -0.04156753902914132 -0.8739501033105916
P 7.341894277574681 7.763957867499048 7.178855715481317 1.5306805560399444 0.7078388413693939 0.8533491392307884
P 3.763772120763834 4.937651970960627 12.355218987748444 1.6317213107340542 -0.6183623944741158 -0.7018921368676557
P 3.5626084879480837 1.1180581813479948 1.9800416858546273 -0.11200702389762646 -0.26884097430195636 -0.4887101466909002
P 7.699231903504166 3.054944328706984 6.758542691623299 0.027417472781004395 0.8149581981574159 0.2560461365301332
P 4.413905002342272 3.519748535332553 4.6126002176685565 0.05953955012652972 -0.31535274471025043 0.8123392724773301
P 0.9581388764614752 6.90020451958606 13.59662277014685 -0.416097051209864 0.08667214467726364 -1.5207589260508583
P 5.617554573321281 1.8897025627704638 12.298145209767762 -0.42463825591165577 -0.49461031422541907 -0.47006450656525495
Ni 7.104204675288552 7.669783471722066 1.5353162057991916 1.0732561068362032 1.6116402237134628 0.6935671619417282
Ni 8.296756006234968 6.891685771240117 9.02818418452858 -0.20532547024681413 0.4562957349159367 1.026588013355703
Ni 2.587120005480321 4.075119521248082 3.546367787976484 -1.2229789001170486 1.094670053735605 1.1946903375850007
Ni 3.5095223654431327 0.9994015637621414 12.86704062665105 -0.2571067165841637 1.651085059972647 -0.5209198986542255
Ni 7.102956238030958 3.7375549383543336 11.824547782193294 -1.4016245470798312 -0.07663687192844867 -0.15276775075475627
Ni 1.2872765078664552 1.1290370854662588 11.229157956391834 1.9401372191151554 0.3372271761858386 0.7042051012715485
Ni 2.595317464826149 6.45289679393826 5.610541293433026 0.8648741091512524 1.1802394522669932 -1.4767969186476113
Ni 0.3948146108402072 8.45344406174889 10.319433660373617 -1.0059477113975321 -1.0943352961040056 0.2649172137675179
Ni 4.317867130364615 8.833033245857866 7.6137993224360665 -1.1307413455368653 0.404382076765781 0.19879229711398666
Ni 8.806017430790932 2.993559770313312 8.762042146360711 -0.3258557011241033 -0.051707712786936755 -0.9421735543643645
Ni 0.0994132424160232 5.284772606686409 3.6052811749749747 1.0344453046165927 1.455225363124423 2.036129098531448
Ni 7.79896918882602 3.5560909110885786 2.5715347350689597 -0.632583166059188 -1.5407166001197077 -0.9273997384892997
Ni 2.713781309011932 3.254115969722013 1.276345338113923 0.38704487103891405 -0.4697140652043717 -0.9007829072327196
Ni 8.082924407128914 5.414141917504716 7.315748696713779 0.24540485476620316 -1.5197633949068083 -1.498788335317038
Ni 6.518660062419233 2.0421771425399995 5.192311140264334 0.270003884261806 2.113356552856044 1.1730138810528314
Ni 2.4113932817880737 7.736455529089082 9.028412758702949 -0.18853102439729466 0.32374379698742306 0.043571199722731414
Ni 8.449937421804762 0.8670516089913262 6.64912450974365 0.006673555365433667 -0.2708145530885594 0.20863370868444067
Ni 9.20098258847691 3.205656408818739 4.543918727097955 1.6938101096449991 -2.042327771142992 1.1592281401226487
Ni 5.430059492539056 5.591814734569097 10.95664797024166 -0.002215776704396184 -0.13703131385610592 1.3578723416945453
Ni 0.21991405886254484 3.1539931376000183 11.169087928992925 -0.5589220889296116 1.2961118726572969 -0.4296760754458794
Ni 1.0253708946572657 7.017429106199966 7.2855328432056865 -1.4604835261995686 -0.351054311876918 0.005381318916571377
Ni 8.392766339155473 7.924473851957212 12.517854561638805 0.8384315986890077 1.4276176287094833 1.145754016895614
Ni 7.6889690148718755 0.28937123287628463 4.3441614221341425 0.9947490144682353 -1.0305966202944639 -0.5487862860471904
Ni 6.367617513621644 6.675926438133362 13.090874411315014 0.26085435655205397 -0.9340247000049849 -1.4278842521073085
P 8.61370301500696 1.2055405862368376 10.003621260756322 -0.7679054676439871 0.22348465765434417 0.13208039760873383
P 2.6000633623421545 6.689686787024063 3.3557993484160016 -0.6567919020949076 0.10175397871105057 0.16519929164988967
P 0.8779414701581294 5.065855461692797 5.883239463140412 -0.8217294554429784 0.13173201313037958 0.2702550810406636
P 3.0323898408988113 1.5085895508323643 7.839944551963725 0.26626730003750915 -0.4219144292225894 0.023157154842753668
P 1.7154537684787519 2.6344137462974584 12.838866335246554 -0.17335508798780466 -1.0697514361170544 -0.723631071206644
P 9.223472818485059 5.1193913887979114 10.063341542129391 0.3885628503453372 -0.3225276651921348 -0.5718948470401958
P 0.8376775326635393 0.7351734900663962 4.7517238625303975 -1.7345584952069548 -1.063630410820981 1.0438195467426412
P 7.117157211836103 4.6781881541523225 0.3243724565489676 -0.45031123519772764 -0.3798864056172619 0.8190202840419313
Ni 5.079046670069006 9.109103114129331 0.6858638902656713 0.20793873949994515 -1.1569321449996206 1.358471922951757
Ni 6.498198542954675 5.525601661487961 2.4985268586196474 -0.7716978448068839 -0.10084020864752956 0.5138668484621859
Ni 5.482154208986503 7.75918443092589 3.5103338496605696 0.5619588188734064 -1.1441401354412748 -0.32345557632304295
Ni 1.8106930077989767 5.687843426861037 1.5887630899528442 0.6964948771114844 -1.0403472719233242 0.5601153379067644
Ni 7.642501445769323 1.093273029910442 12.107859504527383 0.5988528636862783 -0.041500176126315624 -0.7449984811388266
Ni 3.991391607817742 5.271507960824461 2.3343334920630077 1.8797751730873304 0.8489828918422928 -0.4314257111471344
Ni 5.494794636219655 6.7424791595860505 7.0791918676452035 -0.7741663609520344 -0.5804805318266777 0.6738504002390912
Ni 1.0008244150483712 0.6728443420123822 8.55576910047454 0.04731524014619593 -0.17439329944433193 -0.8780826374217264
Ni 4.698521158016834 0.7136893536128969 3.9492550144367593 -0.6727301705917189 0.6884540090848789 -0.7977734588480132
Ni 2.7510508330254373 8.246717539388266 1.2604231732367248 1.9524000956429082 -3.013389983517249 -0.06921641109466144
Ni 4.115923224262867 7.015336137856351 12.774268886851718 -1.0435454671456479 0.25786853445085267 -0.28846414784952257
Ni 3.352072396014651 5.997896491659101 7.81946834500202 -0.08304868899206343 -0.43529445007392126 0.4166130716143341
Ni 9.363830213107347 1.3327067724829174 2.764870849873302 -0.778434392199769 0.3335672108357481 -0.3192101707831277
Ni 6.94302775345872 4.365142511810316 9.510555555711942 0.6262803637696117 0.9544881100656594 -0.9255079207832254
Ni 2.09072850030045 8.42784191828247 12.50491579461983 -1.0942051982840446 -0.7041567645321164 -1.3676705587318898
Ni 8.607561805261879 5.630810039497513 12.375384921332895 0.3555997651557553 -0.7329356364370216 -0.5771638087486188
Ni 3.934211345482737 2.7665920409453544 11.10586100767573 0.239224179876788 0.7170415909145844 0.8777195976553528
Ni 2.44754288414403 1.9542724721081466 4.332136951812643 1.2954495564829496 0.5150855513606355 -0.46094094699743193
Ni 6.8978086216137635 9.137339827396705 8.862579900277144 0.49686620013913135 -0.6513925854562072 0.44683356106177247
Ni 7.378576301702259 4.458821204558548 4.782518036238699 -1.7086068083381996 -0.17799695763519022 1.3424241254602751
Ni 4.417016915800542 1.8336881205215947 6.063207201634196 -2.563509408099037 0.5670192641154492 0.8481688805814296
Ni 4.955240248795572 5.563761615016075 4.903087700328102 -0.5864951134518738 0.38008386634004865 -0.6944757897989265
Ni 1.5705065309976574 6.569809271237768 11.06523263665815 -0.3367697769334458 0.2848784873807932 -0.6304373233607787
Ni 5.479262607985456 8.82113637316784 11.688151421958155 0.6626023381290975 0.375865714493643 0.05354579443694004
P 0.825270269447615 3.4627243276547466 2.295625511297553 -0.8042315557685311 0.43572485274312056 0.5779703638103143
P 6.486723935807661 1.7708898905274109 3.1605162222709535 2.128045008106154 -0.5983286157516922 -1.8662151750147087
P 4.206646058210027 8.198276337856427 5.357176459815502 -1.6939026693588053 -1.0671186264798977 -0.002175667495080124
P 8.540834669780555 0.47728490732723383 0.5896984206565392 -0.11810773747872563 -0.39524926122657733 0.6666587675866583
P 5.120474591712589 5.3179847096127295 8.873005269346635 -0.8228450571046603 -0.1749334882185181 -0.9999614119071101
P 3.3085056075988644 8.726649868076459 10.639733090369681 -1.0483806837507623 0.19040895814629788 2.014932152738859
P 4.990811530951319 6.901911941129536 1.3759458461185854 -0.07057446778445266 1.124523903872244 0.13093008605437448
P 7.8316396902950025 7.398000516680726 3.635914704183218 -0.11602797213156146 -0.5380943535509829 -2.633013782747762
