# total energy = -381173.7844167692 ev
CRYSTAL
PRIMVEC
9.17927083203798 0.00000000000000 0.00000000000000

0.00000000000000 9.17927083203798 0.00000000000000

0.00000000000000 0.00000000000000 13.43479071759826

PRIMCOORD
 96 1
Ni 8.162813465187297 5.047240431389669 9.227914552657317 0.49874156278497334 -0.6363596023824847 -0.6198767742361131
Ni 6.959769049274721 5.967554126076836 11.035068812976734 -1.7365109909476353 1.2434122282707358 -1.158674324501708
Ni 3.9942128388590246 7.083744281275967 5.3705848364585185 -0.3027900775538914 0.09733425237680011 -0.2619733006478456
Ni 1.3496465505410289 6.215862581642191 2.887284567940158 1.1358861229625987 0.05327248617089534 -1.0991581714139458
Ni 7.565499952912377 2.723260177252297 3.1972382527037047 -1.000830958996257 -0.5224296504305325 -0.35499658435411763
Ni 0.6570494531378317 8.278242796034005 0.5448604048985882 -0.9757380205833711 -1.2993560906262072 1.5188079729720745
Ni 5.229467316158566 4.652238048487433 10.178197648718754 -0.3863018222253024 0.21081477549615954 0.6130229845390733
Ni 4.214937585542124 4.690478890818041 2.492986235111556 -0.7244350551651781 0.13052308042394295 -0.5320702588440901
Ni 1.2948646621519104 3.271079061143481 5.207889604188676 -1.0085895198957533 1.5344292244490993 0.9260378251447665
Ni 5.762039431180058 8.84242831983769 7.574816912817698 0.6175095595555171 -1.1266666612468599 1.4791088546102398
Ni 5.3484857419047644 7.660615557384235 0.2211424035064421 -1.5345981459267959 0.5166217854995039 -1.0151697442164322
Ni 4.193191892915814 7.297804877327281 11.503889056141638 -0.2912136855702017 -1.5259021608146948 1.071684391473709
Ni 0.1837579871454564 2.6979988238932395 7.565734942245951 0.2389794108558336 1.9647663305177454 0.46354007518317586
Ni 5.950783598247258 0.36246186776493283 5.542925646529848 -0.234641445602112 -0.36643053722267216 -2.316755495504107
Ni 0.2993011409506155 8.440789324116196 4.617094292139146 0.6100189076054269 -0.765707945772036 -0.40324436361691196
Ni 7.4094339900451205 8.64187043119596 0.8795806803227715 0.8093807040696384 -0.7722231211827346 -1.4557650376779767
Ni 5.267129864426084 3.155135691129581 12.995755557410826 0.5874479642834464 0.0105921736935495 0.9984454894832159
Ni 5.2353145116853534 7.4484917874807275 9.450999289874071 -1.6975137837488314 0.3743899012790649 0.9300582591580692
Ni 7.913761488683683 0.9495955686753186 8.280036425556666 -0.37029953325977516 -0.10889470352088987 0.4106180303731638
Ni 6.093429467142516 0.4871806207044356 9.953325707468931 0.6782140765244254 0.2396448123539744 -0.4166940613639146
Ni 1.1337042039669654 2.9290135331909846 12.153327057896721 0.02656695185525102 -0.3477920961858784 0.9473095900393492
Ni 0.9861474251708731 4.576876234869024 10.363543649719995 1.7010364521901091 0.6341757073572886 0.8621554246685088
Ni 1.2266443212491074 5.6433514591841965 5.141414242673068 1.050289727848017 0.7025757931982416 0.8265885833074926
Ni 7.531802849648897 1.5005170461113289 11.545671261163353 0.21218183104701524 1.0529978708077994 0.4101315776550485
P 6.2891039836959415 8.189717908027193 11.522227403431147 -1.9312455730524805 -0.11573460926085875 0.21026327386806368
Ni 1.7775199023309045 6.736354776234715 11.545778658632214 0.015804828242740522 -0.5927521501051792 -0.2521617138740625
P 5.814241944462383 7.3968492097198055 4.218000708222327 0.11445522832780287 -0.19125279420383193 -0.8248425471506634
Ni 5.762617725243146 0.5486872429129018 1.822012746032462 -2.306933367207362 0.2219185987188049 2.771582873404633
P 5.429446910737208 2.977682027198878 1.8788021409548745 1.1223312670962995 -0.1184617783840347 0.052800688740799386
P 3.5006434456480826 9.229206076064884 0.9116925235117214 0.08345158085743692 -0.6273813101432744 -0.11797763965876457
P 8.956388967349572 6.020454263943205 11.289509939392085 1.1110060718914672 0.4223921401899564 1.191024458697639
Ni 1.9673196855450132 8.877658361331898 12.312354253537825 1.0048945875426694 1.549019206448132 -0.5664482221033277
Ni 6.129182727074758 6.457460990221548 1.889253658736351 0.6878495427316605 0.3777300213958914 1.1839806644769801
Ni 8.02318757639928 8.551225131624488 6.5296036335554275 -0.27272951072308516 -0.6142388592240453 -0.2929746341253664
Ni 3.3300466970368623 1.8280517883198615 12.904492492911642 -0.3904986339154694 0.06496792023095263 -0.7742090412645118
Ni 0.5977577889837042 6.904243639947346 9.284837964934034 0.420417790072405 -0.22638563335122303 -0.07662967283959707
Ni 9.010060163966726 4.444841603067905 3.650742882467598 0.012529242815262295 0.2607216876289316 -0.9096580982351624
Ni 7.567280731455858 8.166466814982684 3.171941100188361 -0.6289872211778135 0.1576171084272576 0.08978857881905827
Ni 6.265292955130027 4.839348305344636 3.6314370400312717 0.33575136297126046 -0.3313717458463261 1.0833191474991601
Ni 1.850522643342744 7.811238212641783 6.589173429616088 0.38409710126449975 -1.1817661733241647 -0.6278693055232863
Ni 8.254771400489272 4.489159122696368 6.278924172331408 1.8410127076071519 -0.8958816132763604 -0.3071655809137678
Ni 5.25098352701381 2.510337810785476 4.24030174673462 0.397735775093857 -0.7398040814220808 -0.896087044418947
Ni 1.91115172725865 9.006489427608923 2.6220412755971414 0.548487523859849 -0.2907899677692218 -0.40572290706439157
Ni 5.658029113261643 5.330072124594346 12.758537496877596 -2.1853623537703846 0.38947353508506466 0.8129406535067547
Ni 7.990748033241246 6.381493344727522 4.6786119294726225 -0.3519724528158132 -0.2853513132521537 0.46903143731505026
Ni 7.3800511440777 4.539378913476674 1.4523010901559799 -0.5208353093602192 0.11306811817228915 0.039908149048847395
Ni 4.556819528077767 2.6131915405777124 10.83797977078645 -0.042365609450404455 -0.31655062167309356 -0.7198363800509022
Ni 0.22100012480838055 2.5094841385971063 9.968547692307348 -1.4986374115614707 -1.0028737004578987 -0.44426528611396393
Ni 0.8967284761839833 5.308583451551631 13.266237459623762 -0.8704027522789655 -0.24294636592338162 -0.016713198989622827
Ni 7.188644988466121 1.9898088991095808 0.699106118357742 0.8873882310933686 0.9749692607381467 -0.3941395731021664
Ni 3.9843910190573557 9.232418820859822 4.014153886837663 1.4326953003427068 -0.5444043549294107 0.17774627507696486
Ni 3.460190399044389 4.869300266104304 11.923389994995906 -0.7482187878483372 -0.3760181809111073 0.1313741155703286
Ni 7.054076877912423 3.287730258452104 8.209503826328591 -0.7019340458491846 -0.5570994338985761 -0.5677972799320544
Ni 3.630493410988644 5.407958237694492 6.934622436801197 -0.788951489681009 1.5958312817056646 0.8209941199388506
Ni 1.288172973707596 4.940861861593842 8.076082206703143 0.3410540061310965 -1.5420656579484346 -1.4202426764016507
Ni 0.8587134439161054 2.0205319186200335 3.192160280073534 1.8930724044168687 3.454084007340187 1.1980610538294463
P 8.19720819303482 0.9898099542371026 4.3666030059674 -0.1882949971270886 -0.2300448273703651 0.7270292982549157
Ni 3.7463908846483305 4.113543359813873 5.026976273077367 -0.7383460088193156 0.08034157447354551 -0.5046250181489439
P 7.050395990304508 3.2721622151029175 10.336204109442155 -0.3399445751170016 0.2148382948332558 0.7802696456362949
Ni 2.57989832523131 2.9508418392548794 9.207735761563853 -0.18336542103595518 1.83227558484447 2.2616248730785498
P 1.9965832009914795 1.4317734867704932 10.712768091002697 0.7581944110038102 -0.6604924908749464 0.1281070147832826
P 2.2519413365640135 3.988778710520157 3.286714113169819 -0.6933907842648639 0.07562745682732781 -0.048181187690917025
P 4.973026026626595 2.379478125652219 6.390943404060062 -0.1609942524296066 -1.4713819182796273 0.17735495317581715
Ni 2.4512783821836677 1.4893642320374718 4.664976122635821 1.6938070243212056 -0.4595396957745312 0.5888307035635859
Ni 6.174252946912319 4.1354909963987225 6.0140709989992045 -2.5707012978617856 1.3148780975212064 -0.17050064925814507
Ni 7.331557056215817 2.1569909589673246 6.027330455731457 1.1945864650172846 -0.30006882196798645 0.06308818670973651
Ni 4.390325913533225 3.6611888926865683 8.001909108658863 2.8911013751879566 0.6301431891591277 1.9991298955992796
Ni 2.553581355725344 8.406725050019007 9.931185306196385 -0.17826718057744137 -0.7038518316971879 -1.313963299016421
Ni 3.655506924034949 0.12253041477060761 6.574368183673929 0.07380428757565999 0.8216201835586238 -0.893853269992422
Ni 0.05386946886735596 9.104882031771616 10.039792602952815 0.6709982755022766 0.9871670883559193 0.05677355734561835
Ni 1.9994287749527104 1.0235162367714263 8.311044002463241 -0.8742174980393654 -0.9442990853477995 0.2773117307771289
Ni 2.7458503627961344 6.656329893028225 0.45665220173584803 0.7814022165788413 0.63947732207586 -0.0665046685904532
Ni 2.6422898291490107 3.646483700796594 0.7481619775951961 -0.13747380071016324 1.431889773722276 0.44914035481807807
Ni 9.1168150838671 6.367072710233671 6.926104991386274 -0.9708197573461474 2.096010348268113 0.9563092224347981
Ni 8.796311663124062 0.7506174325456132 2.220662971167579 -1.8760663567771756 -1.689711256985277 -2.0577978417541334
Ni 2.7745080463669836 2.6608962111471244 6.957341132136832 -1.0061940230803832 -0.38227444623346424 -2.641570671178838
Ni 6.0998274189198645 6.610139802147856 6.269788044061688 1.091273112238914 0.4459264758664707 -0.35678170127899844
Ni 3.606452900651663 1.8498984529254416 2.3912588018517162 -0.4597214727680341 0.37589142552525584 -0.11564539198116212
Ni 4.019152917738587 7.284614265126349 2.651180870887231 -0.35834724599390544 -0.12166305893015177 -0.13373978758902774
Ni 4.298386336772935 1.1988678476791557 8.545239329107975 0.6669307903011223 1.0323493413195124 0.8808352604661991
Ni 7.360985798537452 7.255121267908815 8.913862323462515 2.3410763316376584 2.040322824897822 -0.6760088413429906
Ni 0.1045482231897961 3.355812910292267 1.1274815762627122 0.3732951255529893 -0.2874506189833437 -0.027061374993166295
Ni 0.6940538476859305 1.114078922905314 6.128790772209776 -0.4430789791153466 -0.9659539446134139 -0.3660068194216922
Ni 7.794678808041588 4.048994727248142 12.526330400297388 0.2905698813386157 -0.5963923179609277 -1.0229553016991222
Ni 1.531331858330208 1.5548216124166279 0.8761898576734852 0.6089305596372545 -1.0776642632062279 0.2597562383918688
Ni 5.3823021756892 0.7621236485469135 13.029583924247357 0.9202878100348667 -0.29531305245055595 -0.7953424808090174
Ni 5.965736630449985 5.654586886695638 8.312010579682976 -0.19695318702271888 -1.809907244451599 -1.268165781066332
Ni 2.9639498380182276 5.788650137352989 9.384321984399925 1.0901675378795612 0.7090071506458822 0.7122806791908314
P 8.728403417429911 6.402009015060914 1.791677091751571 -1.3225502693544837 0.013463067483441329 -0.9644488208227969
Ni 8.265648836437848 8.435456167756598 12.04013838706271 1.4290762155328807 -0.6544827943457567 0.19245529915236534
P 0.6064422971279645 8.757015204646546 7.95866280993774 -2.7355241800088628 -1.0356400962556422 0.14843107105261533
Ni 7.486319562623414 6.473689941071407 13.23012529020157 2.3697865550881576 0.1466994330734893 1.4575247006815608
P 9.03305423742764 1.1312533386519696 13.141831719819992 -0.6739293331061426 -0.269502004924723 0.03836805825523715
P 3.7386068629737372 7.535575529965239 7.912473636984455 -0.22266524707684232 -0.5986232641739755 -0.36016578725988296
P 2.2989850996327523 7.66799569114175 4.276200039146175 0.0326686938776147 -0.1813712734240618 -0.09943561499051908
Ni 4.07805629873607 0.40974704565683395 11.159514941572208 -0.24486106644759123 -0.23475046037615058 -0.7130728360748235
