# total energy = -340857.0262085998 ev
CRYSTAL
PRIMVEC
9.40386333614244 0.00000000000000 0.00000000000000
0.00000000000000 9.40386333614244 0.00000000000000
0.00000000000000 0.00000000000000 13.76350454951780
PRIMCOORD
 96 1
Ni 0.9044071370016532 4.71692134544895 1.914903016026831 0.8610807035470912 0.5192823630508024 -0.32316889832055956
Ni 6.97073582876096 3.0971529328545917 1.4589040483485358 0.7745142312097565 1.1504845896020637 -0.17441566804183511
Ni 9.009070191278827 9.027332493564863 3.4129224332521777 0.2031184352931663 -0.028743647791595658 -0.8167985938002641
Ni 7.98202727461075 0.46114946353929515 1.4150942709747176 0.39002272272031535 -0.03647469788726622 -1.1008386444401623
Ni 7.862532385244808 6.803977123076987 13.076099956560087 1.1033367282716675 -1.3494650914674564 -1.1461543376578263
Ni 8.887214932255937 7.541982901195322 1.378690035851287 -0.24117847538968146 -1.2871430934997834 1.5530668941549444
Ni 1.0891084136237077 3.8710250451227415 8.70252588065601 0.2824734774837264 2.1698323764555854 2.220358667339912
Ni 3.770723440497171 7.2523345115392 3.670602390044562 0.5663456350871924 -1.364423512549502 0.0434146195402091
Ni 0.03956769469553264 2.6449117489010647 0.38770153059652773 -0.009764535585931572 0.6333660669717995 -0.12050169163219893
Ni 5.742017662439781 5.741124295438147 2.556832345244166 -0.7805488674396106 -0.29692076325730804 -0.4943259502157809
Ni 0.2623630806535823 6.324267254789006 10.002268604379733 0.2778524337719473 -0.2744413512078693 -1.260026182678333
Ni 4.831723707090518 3.8933310085740684 9.906681156363838 1.3511689615324407 1.2015369281931887 1.316892299737758
Ni 3.5715120029959437 0.7128814768734317 7.925989653950356 2.5239295889238855 -0.6326423014318976 1.5292739055004048
Ni 6.446865419002728 8.343474159608729 13.577366300404341 -1.3012000858134816 1.894670345031608 1.3685920421048945
Ni 6.656364682817511 1.6039040954179713 10.91149992319021 0.5675154870255775 2.7595405975281184 3.0689198982637533
Ni 7.330367768166144 1.1999141334158603 4.118535664277578 0.6309530866549328 0.2286554032220062 -0.496083556336836
Ni 8.345401951559623 0.3199796099410761 6.8301113992268965 1.0292035966016793 -0.5309266321579501 -0.8059151141185411
Ni 8.784656400468343 1.0374906086556075 12.149885260855388 -0.4571637393431868 -0.08270827493350917 0.48801132085166277
Ni 5.55080891250056 1.6410869704122997 6.288654824944918 1.0641587725206252 1.163420066716809 -1.2783422073787016
Ni 3.2646827553189213 7.34425727407576 8.249817324702681 0.04152974381267041 0.8023011715150375 -0.6774262905158075
Ni 1.3646604123803618 6.689757800952275 3.4163774125827073 -0.8610840459812009 -2.168875926079587 -0.47843987511314373
Ni 6.389078679791765 3.2980100464114606 4.08140168937176 -0.5022179513693479 1.4711520616570084 -0.4114667515267042
Ni 6.103248258584732 5.319295204992879 0.2751843077065078 -0.31766159534908517 -0.07663198683244221 -0.8715474074063699
Ni 5.917032959991487 9.003954489711575 11.27701680017037 0.01822037966276862 -1.5712780178463326 0.37835248547123873
P 2.50977823507494 3.363291664572975 12.78618543757611 0.709720631773139 -0.9305483114206103 -0.11747498899073316
P 8.922742727331448 3.6231486156903943 10.771593948802725 1.2330406552284248 -0.3787188676717219 -1.8142122995848562
P 0.8783791245056234 0.8255660885279684 9.728319964294434 0.1487437171970277 -1.4720424346817615 0.21997381628760826
P 7.499242343064512 7.73386872928315 7.314944492172669 0.01151468550781888 -1.6063980014779171 0.16983473353937203
P 1.3154594002482611 6.143195869352539 8.113489520253317 -0.8598931109968933 1.1188577067254022 -0.11766525062466833
P 3.8443933046108705 2.7716288051854794 8.512493553999994 -0.3872577583806685 0.8065092960591143 -0.7727095739008499
P 8.888211741752496 2.146121442230814 2.548243797006351 -0.37329101178793134 -0.2444052098570952 0.48882250389904836
P 6.691713804492695 1.42886058627674 13.250235992904923 1.2729727155366724 0.2953207657600398 -1.72944637079137
Ni 1.101794225046912 0.7451395487229626 1.5793901048931318 -1.952225003517625 -0.9927533241944451 0.5663718603394374
Ni 5.869872586168382 1.7909657416969749 8.914814330288525 -2.0928427491734083 0.5880362326867485 -2.170422444631101
Ni 3.9820564576310966 1.7408337471105397 11.079221584463312 0.07728016193940239 0.3603948725515535 -1.2302366101207265
Ni 9.170299425415841 2.2815746874048926 4.98254004353375 0.2585156811165483 -0.7824514837789622 0.5312534193697496
Ni 2.3136888801478444 4.634571715624637 10.711626453721458 -0.7653230516287917 -0.1834224995261357 1.7671127749938924
Ni 5.134979486761004 8.071486224995436 5.651143430647244 -1.166798753381055 -0.0036044295218066956 0.2679238618043257
Ni 2.997434367745877 4.135442869880082 0.9655350687987277 0.5001240449547968 -1.1854922160255001 -0.3185859069355675
Ni 1.9667521560290386 8.125088245093481 0.714919294023475 1.109573967430631 0.19738487524349876 0.1441931217118678
Ni 8.151212176993896 5.371994454226116 8.065331396547336 -0.2887510829623221 2.780912635445991 -0.2084773856122345
Ni 6.066836500370761 6.167721144513187 4.764869763006128 -1.5950609791985433 -0.8663278108786435 -0.48481286851902305
Ni 5.802249406076268 1.225708930105148 1.3298397878156174 -3.018042394687596 -0.541153709202597 0.7665798068540282
Ni 0.2538601075706608 4.592950217211663 4.332076708485016 -0.36234865384381465 1.177901805272752 0.6691745920299766
Ni 2.613897808149599 7.921033818057079 5.809134914693074 0.532927978858695 -1.4287869664272361 -1.6234145906405717
Ni 1.4382268339991353 2.841217392681187 3.2968684174220044 0.30813591524683703 -1.4460532097068515 -0.8892581944225718
Ni 1.9945217639850963 8.705494680260387 3.5269254665238625 -0.1774662819427008 2.287734168571092 -0.5991806793393423
Ni 3.3982364201316306 1.1196615650795938 3.635023814107905 1.317992217670156 0.04437338390905261 1.2518495604048119
Ni 4.119249417492568 3.099748399090918 5.137723534035496 -0.9536514730969771 0.45736068584534134 -0.38390709674088075
Ni 3.326955137264405 6.255148860452052 1.3889026312594408 0.5244425670955032 1.432989691654674 0.658518397867711
Ni 0.5603338892196644 5.962566465485301 12.101037833978669 0.46080339297830325 -0.4686455147305413 2.12104672241145
Ni 7.759635314382913 3.880758043508966 12.462481897817694 -0.7604068452740969 -0.3515507918973623 1.755182342104893
Ni 9.391064517314389 8.164998240408588 8.497973048871328 0.3846311193910989 -0.3949116753815005 -0.8077755643660476
Ni 3.360837256284275 8.86101576945012 10.701881230313106 0.4480401797753638 -0.019229794763889464 -0.3315087856448226
Ni 1.429650510783448 2.4543330577945754 11.209451924029942 -1.1551112897407976 -0.5004665158958801 -0.8341013467447699
Ni 2.895157951853536 1.878459284678065 1.5806699706712624 2.5090292747732854 0.5708784899605394 -1.263344705528605
P 7.0624423024444924 7.544117578136069 2.6725280738873685 -0.10896386619592847 -0.13388068404226622 -0.1045305130149232
P 3.9660698902334337 0.24635864591588696 0.34544339064660023 0.29628904321058 -0.8999467844846695 0.8566566063374665
P 3.91700993604896 0.4555344168374455 5.811529138257454 -2.7890092964111965 -0.40451577413016787 -0.6832292703508297
P 3.8562703838010166 6.137609974626532 5.64733110451606 0.6747942522095991 -0.6911289848138807 0.26457782815022823
P 4.746712783987653 3.3518471630888835 2.226481214607277 0.7362379613373772 0.33874926925731985 0.7982306009900898
P 4.950071325149097 -0.012791134690765163 9.43016107846485 0.3447947041204513 -1.707098342113473 0.836130975580289
P 0.4668472642370856 8.797972270724278 5.287332414447047 0.5710679802635262 -0.03799524829685069 0.5886916068825603
P 7.780906852884979 5.330843148971897 5.371234622081568 1.9921493505163885 -1.5782359372214043 0.7679224369248516
Ni 5.998442203498291 9.221108498150885 7.549777763381159 -0.11990673836067736 -1.312965710989842 0.6207427217808341
Ni 4.836331600046314 8.58925352755303 1.9908636612099841 0.12071252209142437 -1.1750946748412603 0.7749101810965944
Ni 9.407718758997483 2.1278027167657276 8.338784453043308 -1.7261327330371046 -2.936935402802935 -0.5811677877016893
Ni 3.118321028861732 5.416371284549392 12.72543366030604 0.7722195216383088 0.9332515692843862 0.7940623285450131
Ni 8.113465070209063 5.081509120747409 2.1732431240141077 -1.0357727651787645 0.9439507008694452 0.0065604268263370884
Ni 9.259654933305601 3.859862659533903 6.814916637108576 -0.7747620855545044 -0.027803652475829534 -2.118125177889281
Ni 1.2937928994928407 8.958101252869808 11.646030033479029 -1.9165321781017057 -0.7047566028996443 -0.2648627063804987
Ni 2.172941260006187 2.2442507544629375 7.071262185716415 -0.4447342553305824 0.2671674432542754 1.7845289135878104
Ni 2.5728405415271314 1.0628810392283659 12.863027224738769 -0.6820594184124447 0.7439970364575058 0.4954942594922692
Ni 2.0893785318322866 4.890159312860563 6.503627137127606 0.8785765463390094 1.389713654574858 -0.4325230579763712
Ni 4.759887596295962 7.143428372108417 12.311454914839343 0.22230760662710747 1.5697119589107933 3.1973218185796357
Ni 7.584911536589634 5.295625681381163 10.487996945099775 -1.128342506287386 0.2958743242706646 0.28061456989811673
Ni 7.346260296932056 3.4098407872896983 8.81871719288854 1.223471266372435 0.8269871042974919 1.3994002857350027
Ni 7.3235875828168995 8.218581452780283 4.938854397153843 0.9548704331057426 -0.1198676575926258 0.10604617832850124
Ni 9.334255779873635 6.76690709444076 6.110899241663989 0.44169084051856833 0.10316268613311912 0.3367936881928458
Ni 7.781405257633259 0.39309746728639766 9.347140012809835 0.7524271695027299 -0.23898403884152386 -0.3396339858551183
Ni 6.242284375628521 7.045186213518192 9.408098675069757 0.9982326021414615 0.9387899826041123 -0.7120953026529027
Ni 3.0360090144901193 5.0204404332883374 8.775940900077664 2.487584217525632 0.2236929170104083 -2.526229440701656
Ni 5.724347803533776 6.14096715378004 7.197803389759455 -0.10933513349241815 1.1406922861019904 0.030622095761231132
Ni 1.760704109999517 9.235035619513202 7.209640032337948 -3.670617173377362 1.0765715443626815 0.8893283855388748
Ni 2.9186958213808003 4.650304378716571 3.267387306368079 1.202427044107626 0.8281032201798061 0.9041520808152688
Ni 5.129901400646452 3.2774249899211765 12.33745377535953 0.22909120520784415 0.4533255965440193 0.7786830178754655
Ni 4.22658511177311 6.5887885220412725 10.32912431907444 -0.11996175996832886 -2.051216846102506 -2.1135594128954693
Ni 5.512290688935368 3.882751662502086 7.15234229401209 -0.12011628326832217 -0.809962030494405 0.4843883793870948
P 2.4174887218745504 6.993041792212287 11.285839504601245 -1.2749046424520625 -0.49360809821315 0.7088022337239276
P 8.622759492045896 8.192288251342715 10.54786758039034 -0.48601794457071784 -0.44001885213278413 1.1129374845862252
P 9.118239638878512 4.995962177443564 0.13610681366474753 -0.8307735679231175 -0.08191817493204602 0.4209968025043266
P 7.4643257990953815 2.216659819907207 7.035159814600905 0.8361104067549988 1.3197547088872175 -0.2430157857087363
P 1.8920478669660783 3.173850840910672 5.364587031203093 -1.1017169332800574 0.4097127449500751 -3.684918163381067
P 0.09352988275318426 8.687505090006429 13.547637867748913 -0.15016862256901234 1.3775178838396147 -0.8832456696799047
P 5.628513033916375 5.35033735733387 11.78319760290993 1.0850070767245443 -1.0065573199570728 -0.44616893089458
P 5.537464830655099 0.2982632687108276 4.182370968282762 -1.3438564870314273 -0.9434948442789493 -1.2980242591886613
