# total energy = -381165.0195230854 ev
CRYSTAL
PRIMVEC
9.28615398965226 0.00000000000000 0.00000000000000
0.00000000000000 9.28615398965226 0.00000000000000
0.00000000000000 0.00000000000000 13.59122502269101
PRIMCOORD
 96 1
Ni 8.40620738310498 2.527161823050811 8.560039025337606 -1.1857364708258225 -1.097267382149136 1.445430745631504
Ni 0.8128755672243001 5.834314155970157 12.984376979717158 0.9851611136694839 0.1872282464254711 -0.3812498616236918
Ni 1.0763859750031735 0.4305673906169467 4.8080046953251845 -0.0552244676909436 -1.6924253134823302 -1.1618126130203734
Ni 0.8252586536569412 3.291830178728227 7.516627254769126 3.702746192701423 1.8603564022410863 -0.322262070235574
Ni 8.12086244129606 9.122875608470945 5.118427824775644 -0.31821592519065844 1.2822945071582303 3.0808775848462617
Ni 2.678888294159115 4.68852346555824 10.044757623687897 -1.1971853360927123 -1.3374575254836192 -0.7520584733094015
Ni 5.703732257645598 4.249539104905638 3.7323811135699447 -2.200874847583687 0.039669293565163945 -1.6429827425804868
Ni 6.54948731053323 0.9219516613723662 0.6109147171388566 -2.0445173225951434 1.2023738222721871 0.434012240927388
Ni 3.7607809585170364 8.560246106573036 4.429733209885637 -0.10631562993980398 -0.4515278812136482 1.755139661792416
Ni 1.4280990598447805 8.335567609206894 12.087410644445777 1.1294233980563904 -1.1137895481738753 -0.757394026589702
Ni 2.0365557320052194 1.300080140039463 8.034846653513332 -0.16404280944794328 -1.1625191521690945 0.4477249625277902
Ni 3.844820652716813 3.890424955282018 12.257382551041784 0.07378114764720843 0.42300791939708443 1.628523372622047
Ni 2.774795693241468 3.0763914046470315 1.0279298945276094 2.279072379131036 0.19752474325547273 -0.762666587842551
Ni 4.347730897885576 1.4530881004073881 5.662036497322237 0.2277308345252078 0.6422417721948745 -0.7201261433771792
Ni 3.6220551030860455 6.660800439193199 6.062923482347877 0.26008533959651337 0.711513976228136 -0.6731592877093374
Ni 0.1002802490269579 4.38396547100906 9.541284637583386 -0.3018768217110027 0.4192376537213748 0.8617944417846642
Ni 2.1117364352363124 2.145482319072996 5.685386531694098 0.5206617598968324 1.8448400517730421 0.5545594410855417
Ni 2.322216403052018 7.74870124522485 9.468300109786355 1.421986655675951 -0.2865149945429517 -1.1705736470424548
Ni 7.1980323097500705 5.92170615178387 0.49385995942654204 1.272620731513892 -0.5353029068487749 -0.4707059968039958
Ni 6.27769086749088 5.501971988487748 6.5524523795230625 0.0052913303059263705 0.6995904853176725 -0.04993930803260432
Ni 3.207224029131081 4.9426762158956645 4.612658372773277 0.21849054687386246 -1.4060247330300557 0.9164013304962669
Ni 2.296289460929833 0.9938320654522325 12.890039869285541 1.5119976349184607 1.248751123985146 -0.7100139946438417
Ni 4.25873239742031 2.264456524828525 7.79316799391829 0.025740085078581477 -2.4836406594968516 1.9543644184581308
Ni 5.082915714437656 5.046681141314172 1.6388167532043 -0.6781420856359095 -0.3024344939866856 -0.9381706038525585
P 1.8321117643254088 3.508411149758215 2.929697100421253 0.29048452071366104 -2.454433698915592 2.5886092884904577
Ni 5.945710860016623 9.271249777965314 6.294287082018377 -0.19148933569467022 -1.3770093196343125 -1.6402236917781108
P 0.058692208090637445 1.4727468885422972 6.692700235603704 0.2668823079136887 -1.1255194350162938 -0.5103354382701598
Ni 7.9349536371104765 0.15045241077192734 8.141660640533546 -0.9244925921448337 1.716180249810083 1.690694703944469
P 5.143777168115594 2.7159121903772925 13.8161600852133 -0.2614439105069368 0.039600902221073736 -0.24051435944312125
P 1.7884296956496355 8.088964502116367 3.3315758466999905 -0.17038443539525494 -0.3670596861662388 0.015024498433290253
P 4.360471501249344 7.1927577742467035 9.975510772898092 1.1258001994815063 0.13651735033416487 0.46033828041642655
Ni 6.13713563971101 3.684783073729083 7.996682417577173 0.8016450259882775 0.5807592394093611 0.803319585477223
Ni 3.5257391132252627 0.8502764812971201 1.3052033112317303 0.195235947221296 -0.6978909861280626 -0.9850541557779746
Ni 8.259411859800002 5.3312367600284 11.751340086110194 0.6118654738958623 -0.2717141820846933 -0.003810631995341824
Ni 3.840066141840538 6.0390831390419 8.203649433313787 1.0078588123773158 -0.01642806364903622 1.0571062365492183
Ni 8.015641029696317 6.478327512008048 5.2294140808128695 0.23400612601095824 2.1354955508469287 0.5106133745218948
Ni 1.1358916501890486 6.499379223251241 5.690156829032267 0.22012499715349185 -0.40607797641096516 -0.2680914977304415
Ni 6.427290809320538 4.204222673116146 12.646444547493502 -1.931510396678093 -0.12892128315446183 0.28574417781519823
Ni 7.532528864973292 2.823928734347658 2.470504211313673 -1.539339517266523 -1.2396435052569232 0.9726760938285958
Ni 5.006945688111869 0.3831940757042217 12.277048768099936 -0.798075049248832 -0.16986815788046875 -0.051558074582949906
Ni 5.176399427311596 6.379987140563227 13.028738794869772 1.3244608561136353 -1.9317124853865701 -1.2147770810325467
Ni 7.4837486977212 0.06770720644744885 10.842168958564033 -0.623235920516333 -0.5286694606926572 -1.1145148563756742
Ni 1.3760130217490294 8.627319997313919 0.7438887287480415 1.7755629626437743 0.48137607492333234 1.4408019886102412
Ni 5.087317351459832 9.282931759766786 9.470813871689103 0.884860065354876 0.49977283226296504 0.887887025106658
Ni 8.066649873921662 2.9723957653825783 0.3228823623463532 1.1853225232168552 0.2511127037842578 -1.5976225692781323
Ni 4.844558712148167 2.2794908082439327 10.696878720831405 -0.19914248136455381 0.21730449698556126 -0.45543210136406076
Ni 3.685711689134606 7.859828650803715 2.2110750682420703 -1.2746393046058175 -1.1334728855354157 -1.1145932750220933
Ni 9.222562472253774 7.054979106529346 1.0652230892133887 -0.23091694556267325 -2.7636399644084726 1.3424506078228364
Ni 2.9582250942943062 6.379299965163141 11.52038414860272 1.1917052868147477 0.31372652196073714 0.9271732243007903
Ni 8.826470857182251 7.816016575971169 7.195819419238711 0.7720997082309929 -1.5657617160137935 -2.4411297827178347
Ni 7.718484099929151 4.550884090151711 4.3262770961717925 1.3259893769430195 -0.366816202696865 -1.7565463123319554
Ni 8.387217198062048 7.270482883688928 9.335337241562035 -2.4539349049023023 -0.6932285476553868 0.4408282354079569
Ni 2.415820835928676 5.4036223308888705 2.6072994753165823 1.4511686765565461 1.9460386722012548 -0.4577435231060568
Ni 3.002993642994541 0.3595496702488105 10.517039346936317 -0.1676626655887177 1.1778431841206747 0.44983018179625117
Ni 1.324530583666868 3.4208427170174533 12.504484324605077 -0.30491715119922325 -0.061341893442591125 -0.03713547139971669
Ni 4.97834433362178 4.960719213224964 10.534871548568562 0.12629515838552444 0.6123915216026614 -0.5080957503063637
P 5.954904152531296 3.2763965906884445 5.42958548901187 0.27629100282209834 -1.387545957499578 2.731802251072586
Ni 0.8643227179210519 1.6541147633948763 1.303386010883123 -0.19173333338467627 -0.026066872290380915 0.5860166311535585
P 8.164646657666442 4.6762193114350685 1.9245851436381398 -0.27798793090854707 2.4756018483527753 0.37782720909538803
Ni 3.8895427706467713 8.845730340692786 7.483301105095739 0.4775628718248291 0.3388289734553197 0.018939517216980287
P 8.665151788934901 3.055618278025495 11.537183729904026 0.8652582319635486 -0.40511818360085716 0.9274740433706608
P 8.672720004489909 0.9921512715682371 2.8152452516906177 0.03924351888165499 -0.8170564754473412 0.6733685755066662
P 7.440939527526617 5.388560189011297 8.69871009245967 -0.2721965210377506 -0.025891523054781217 0.2066560161327796
Ni 0.8482056689428051 6.409582113537225 10.646632269853994 -0.8628570787212236 -0.11662035429992175 1.1568357286310722
Ni 8.240802407073334 8.051011990492665 3.314125305999414 0.2791765519000095 -1.1366903640314487 -2.648067334646775
Ni 1.8506469278196358 8.351762661879205 6.777128091042989 -0.5818043928444239 0.8317014790540257 0.33788435015386326
Ni 0.4482500851689042 8.862138974908367 10.02437080107506 -0.02961833708706512 0.7605721672073675 0.2759762997951569
Ni 3.6552623899875267 7.7358120633961995 13.334309908826377 -2.0206104340705586 4.013847361224171 0.41771324665704834
Ni 0.9716753018764682 6.304379274245593 8.340160541002607 0.05912765940009172 -0.30831280714433357 -1.3461056880769204
Ni 8.803171896657695 2.4530211690739026 4.477248602955407 0.45732546173203176 -1.7839257327861726 0.7210188303947777
Ni 4.289060976564671 4.106272320141644 6.710748804625438 -1.7043359488769876 1.449783109062929 -1.6956080820856865
Ni 0.7878744546614207 4.305144595388319 4.892705563693693 1.418705670931834 -0.010416310237317544 -0.2180334047317858
Ni 0.7783654329088714 4.146936388749469 1.233491915155669 -0.6536212176764098 1.224539302625633 -1.1395556013943857
Ni 6.6088351211001655 1.3413199501987125 4.056980485801109 0.270121897896909 1.0136065134943706 1.6189565548692182
Ni 0.7300700028984626 1.7818458124244816 10.281109745316861 0.4653460180436631 1.3327269527771692 0.26276700019373456
Ni 2.846410513315355 5.824693700368946 0.5211742529645779 0.4348406503659544 -0.8157562685786789 -1.0237078635944306
Ni 5.318115424348369 9.485434921249054 2.759222812890857 -0.45096352406974594 -1.4925251280161458 -0.4440146035557386
Ni 7.157526105761183 1.8437008845863283 6.716185847824772 -0.8199993601257491 0.40675520498364787 -1.519358703269222
Ni 8.321434082734843 3.9001661308859474 6.387128193031693 -1.6831585434684235 1.113412624450431 0.7647913474950376
Ni 6.852930966595783 1.871847217527712 12.04569909766052 0.21386024719070265 0.6994557595120212 0.17342964997948196
Ni 5.01878553453228 2.436631107166433 2.3950189222295686 -0.015015499572225753 0.8757097663141756 -0.5507092141015161
Ni 0.3870933317920103 6.082718776947398 3.326438746276641 -0.8634540888752742 0.5029052072443597 -0.010587802818175313
Ni 4.945842794428495 6.36290990325567 3.7488268924017465 -0.31596158193884294 0.9557538641519605 0.15462537278878533
Ni 9.300919040171754 1.0361304971737777 12.729922429372937 -1.2945499274868157 -0.026327325040619173 -0.7726720357946951
Ni 8.489420609593843 7.841200625768935 12.30212416989526 -0.8168086211025932 -0.7120184266683802 0.31401551395606564
Ni 6.093667152578506 7.832044477870485 7.905295518288903 0.5185809661084037 -2.267903249888094 1.0067732926226207
Ni 3.1197763163930374 1.3021880970099988 3.560303107234212 -0.7964539687056412 1.3339695669350187 -0.2165586199584722
Ni 7.057644232743194 3.707524865010327 10.380774322329959 -0.5794479767971052 1.0386914814874562 -1.4052922257394056
P 2.1967604617659426 5.054611516877334 7.192748488092648 0.41416152475004797 -0.8554684995666364 -1.5420479173366217
Ni 8.267342235363163 8.978457340604102 1.0850053831972324 0.39570357515517657 0.6773504429725495 -0.3276616439845905
P 2.712179156447093 2.5011327332340185 11.046485705933287 -0.45413780803266945 -0.23897066910508527 -0.4605948765119229
Ni 5.967765475897781 7.429805428814404 1.5696915510326188 0.01889298024976101 1.0433588050561386 0.4888788110582806
P 6.422136993819889 1.9708283336023442 9.261767686059525 -0.5545866947790513 -2.3798423966622626 -0.41765411128433877
P 6.252042509990352 7.996715847731772 4.239592705297088 -0.1511494984250429 0.3818939229655939 0.5839893163108845
P 6.420818359944047 8.249884265739341 13.061873649769622 0.46281836652580294 -0.3007429652168756 -0.06432668710252792
Ni 6.591052136084412 6.653826537497725 10.844139480454551 -0.7794049836431544 0.9380986129640425 -0.03881568731561702
