# total energy = -340893.4871901488 ev
CRYSTAL
PRIMVEC
9.03354741140798 0.00000000000000 0.00000000000000

0.00000000000000 9.03354741140798 0.00000000000000

0.00000000000000 0.00000000000000 13.22150976156523

PRIMCOORD
 96 1
Ni 6.243726135549375 2.321197159180316 11.448333226356572 0.25483566116179984 -0.8859887796426805 -0.5213037643562054
Ni 4.682936880036898 0.33064319957801697 5.9503137990935855 -0.6961169249467754 -0.8155948033001502 0.8483671126351647
Ni 2.808340247628234 1.6562557866610437 4.8441369237285805 0.14068099479355126 -0.865130962357065 -0.44336205757340413
Ni 3.362873601251048 4.241765515379201 4.606863568898715 -0.6247040204214273 -0.06184197300746124 0.5860914502555519
Ni 4.945451773600234 4.436682372172598 2.81110451319707 1.0554833562338144 -0.27947839941114444 -0.9602944323347913
Ni 7.332937105146957 5.990741634715196 2.6115922907341735 -1.042431665256179 0.173405738720082 -0.8604633816780665
Ni 4.996816525313968 4.598030566045094 11.302011435579509 0.2904050736259773 0.44431696528750575 -0.466849342062067
Ni 5.705697073411082 7.929530656444612 12.61723453955561 -1.4299575896965695 -0.8605821666441178 -0.9576539093881506
Ni 1.8293385588796782 6.486683398535814 0.19913733023705787 0.7535407142818829 0.5877040461583104 1.2488665665170877
Ni 2.7942930810937883 1.5906902981034834 0.3422449847742796 -0.5527097894713127 0.5498314394822531 0.09324619835035554
Ni 0.42274112082259957 8.998181271680524 4.7636570480659595 0.5847750454369736 0.6341844491080368 0.22981882740248807
Ni 8.5730444540316 2.3349733192864446 1.5235936232259306 0.8635913857840868 -0.6200773202826934 -0.6332488246676449
Ni 6.944214517916264 0.7991672430457765 4.848460379615003 0.031149943240243134 -0.5609177792034017 0.025294512900730627
Ni 0.8201693378856043 7.300217595701451 2.4545865231980804 -0.3849671625742789 0.028384978900596276 0.2738453694950832
Ni 7.489199411714699 3.8716610697739053 3.893800488257905 1.0382723916721666 -0.3367191262011685 -0.18789776168866995
Ni 7.588487133502539 3.854262457075936 12.765949317094718 0.3841477519967771 -0.2425571009047629 -1.874689788144623
Ni 7.930668883443545 8.754149016528425 7.013429559708496 -0.2985279598434278 -0.12200321587838987 -0.4176595106009775
Ni 6.9002121075051495 0.7449343399656838 0.4235442032051798 -0.30602298266889233 0.07649674680615857 -0.016546591504771505
Ni 1.9753568224570277 6.395851077311473 9.201364727892358 -0.21578291813471226 0.621142528322414 0.16157994972974754
Ni -0.1639923132581122 4.650470309924488 1.3409515509257846 2.448316273163945 1.6661820635150852 0.3181740162091295
Ni 6.274539566449049 1.980009099476474 6.973936696264581 0.773189598861062 -0.24681844728427813 0.7028892106736024
Ni 3.2689969744819427 4.391315896072285 0.2551326784559738 -0.008330374242566298 -0.46500688953668945 0.5583875565823803
Ni 6.170861540522469 5.554746492838359 4.938789532237434 -0.8723498487030074 1.7003008595756652 -1.2825367050760235
Ni 5.320452402010462 3.2532695680919304 8.985826991968299 0.4256846948982991 -0.6425580178837128 0.42592175060976967
P 0.3482649409019674 5.381988928333706 12.277163929691197 -0.9069149882723865 -0.4609936546122383 1.5418301448988607
P 4.023487904464855 6.304630313539878 12.56506218868549 -0.29575733907682616 -0.22143523132448317 -0.2577739178545173
P 2.513476220071425 8.354116427689291 1.4399682662853073 -0.0044071279287601515 -0.01600923094406275 0.13958750461905636
P 6.350891110853637 7.812230040721284 5.784516583022881 -0.008778774633894558 -0.7333716955331756 0.7849279703439128
P 4.842577733410995 0.8555681975524072 12.579817585352604 0.015317089973044587 2.61041635706322 -0.1377028860018338
P 4.079288128055382 6.128205128705329 8.124684192185406 -0.33491575444384253 0.15444668111907595 0.06326610704849749
P 4.84484515386125 0.9789565210105027 3.8862909001292327 -1.059017337529002 0.15729237809798718 -0.6748688142012764
P 0.2576692986250235 5.501484696126404 3.6073828277169846 0.014098644184911201 -0.4262917323546787 0.1543950019455341
Ni 1.582135528516268 0.7942159556004197 2.7189108363478156 -0.4355101656291531 1.223621933017686 -0.27333654817946473
Ni 1.887604940967893 6.458444528705154 4.8834048518369935 -0.4532278946238904 -0.3946558506169526 -1.4589190099259262
Ni 6.106181339630746 5.761352760239841 9.040657012545452 -0.7548226663181 -1.4042938663818783 0.9236202168422093
Ni 8.626495955243376 2.586069808670013 10.356554019173304 -0.20935747422434264 -0.6455698081268431 -0.23647927014179917
Ni 2.2936267718728387 5.07495671214545 6.915312585690987 0.2743552192519662 0.4211035032855199 0.29800988255642874
Ni 0.45307216027986935 -0.08905090563553539 8.868909398663659 0.5330601335611852 -0.14224525395687762 1.3218064492099235
Ni 1.3943009730495628 1.315311632742687 11.290495469085545 0.48891249250969343 -2.1033284791960805 0.9300726573357725
Ni 4.190870508141216 6.8466070359839915 1.6863907981351638 0.1882281484448952 -0.08573626312655556 -0.5783033216697008
Ni 5.761976075024971 7.858888314129909 8.093282677336283 -0.7689398224457724 0.9518025928136963 -0.5270566076795826
Ni 5.3911850798012715 2.918892803286462 4.914263450474721 -0.8804061433485805 -0.4298064303761565 -0.7503666874292755
Ni 0.8854331059529712 7.385250379359802 6.831540885279072 -0.8313716065184328 -0.3407912393880131 1.0290135920780599
Ni 4.760200812750154 4.627479931255572 6.598287459135913 0.7188807010058522 0.2641487110326096 1.6032147186539292
Ni 8.113092343891514 6.984657710568812 9.466601429350762 -0.27080478289654647 1.126747393886124 -1.405734969703779
Ni 4.478028919586204 0.40583031969560146 10.321358414327738 0.5562008333437066 -0.7287089999501837 1.0821621510765815
Ni 8.05795156927656 7.13723432971144 4.560138447237773 0.7005420505976645 0.27648512111077544 0.47645446925199875
Ni 7.387942376547753 6.098114381614502 7.002812431201787 0.44101541171809855 0.41229824628906414 0.33689884631214234
Ni 2.267799859254202 5.232565017307169 2.564510343942613 0.011045202070568074 -0.1545454114804693 -0.27921640399900943
Ni 2.4650473713311274 5.370037544844913 11.350097912865365 -0.5613759497867429 -1.0378548445187739 -0.7253238855280347
Ni 1.0965552438049802 3.263197436915953 3.776962390172238 0.08642814698725759 0.5267452470867509 0.006254208439827939
Ni 3.5196688871278146 2.415082819497032 2.4745380164507984 0.910169233543626 0.4382694735418452 1.1790564877024856
Ni 1.2147953484798086 3.2075959513728582 8.29390602615528 -1.5159262805489055 -0.06136606181230722 -0.07458307472321349
Ni 3.6642508166350822 2.685727905909887 6.990688506953632 0.19433040468789112 -1.0749954581248133 0.8213224498125468
Ni 4.026414773890681 6.73914395360858 5.906154204954046 0.612378408976539 1.9047647531531327 0.5422178888010534
Ni 0.5450932963697621 7.230532809433468 11.282628152471496 0.22092281046443885 0.40880977351983144 0.42964008000162135
P 0.39134231603775976 5.551322778293952 8.09197371628751 -1.0783656601486267 -0.30969117554909886 -1.4975668042051111
P 8.335534420254337 1.587356919035181 7.998855004162933 0.8261810634564287 0.939891443198407 0.6407978406594964
P 2.00393896709689 3.222772311358626 10.476764340581997 -1.9353701367438152 0.9181327113650769 -0.31817375909881335
P 4.139026978404121 6.173833577686349 3.8007612713523002 -0.4690540630228696 -0.562981603710966 -0.11520110535489192
P 7.00187565231457 4.114835137902999 10.346558398742202 -1.3533276597466564 0.21679439011836213 0.3601249067196185
P 6.343086125718099 8.042016391291504 10.348779748099641 0.02402824459379733 -0.9153253238232687 -0.11708778085464351
P 2.393582976183861 8.468499207534403 5.775407153612376 0.5873726309608207 0.5476164341088052 0.4331758610690217
P 6.910627787900142 3.8416787252544036 1.578529336310126 -2.038713828539489 0.13475717310994856 1.0966806564077305
Ni 5.193811098057798 2.9549005240622175 0.32613726602986165 0.1330954691368095 -1.2920479870005683 0.8274918118480523
Ni 1.4330548922989335 0.9983696148256305 6.991071529372321 0.20576898554213596 0.26886231445819503 -0.37790074264580076
Ni 6.737707619538498 0.9385313954531754 9.337837241709613 -0.4292762689042994 0.3443843560559101 -0.6356882873470729
Ni 2.651391391442088 1.4694871898123862 9.314117855748522 0.06252742911026006 0.13228737141321734 -1.4621568001369334
Ni 6.346392404143571 1.8883095576815179 2.7324765147946173 0.35044778864117065 0.9766204231883245 -1.3604719841009216
Ni 4.193174062781913 6.940519796943539 10.247609434989757 0.40497394471350906 0.2818209315013921 0.9058850043459753
Ni 8.290140843511193 7.071885646296534 0.2760877988482268 -0.1283633537684628 -0.1692976300889794 0.9687289362553897
Ni 7.672815300447266 3.860107162379979 8.232862731531576 0.898450659555117 -0.3986068648449006 -0.6143373324751226
Ni 3.078786595993656 8.605140648691975 12.441229414684955 0.025437209126181998 -1.609994974800556 -0.6940525862185789
Ni 0.007999206409164985 4.93456634872949 10.157424819129094 0.6850077024074912 -0.3774816528305112 0.5857458939906751
Ni 8.627733551266026 2.4020745109378026 5.904488418774656 -0.07091051096763272 0.15953026628957043 0.018912777744102913
Ni 3.728181233075128 2.573865485848125 11.415306576292307 0.7132309589192427 -0.36410523152360524 0.541823481576112
Ni 1.0119651039795472 3.208390903562589 12.633496731964168 0.2901533626264874 1.274721579906979 0.2168653525656136
Ni 3.1349300943933853 8.29716894355222 8.284558111087858 0.5178523154724952 0.40359840452222107 -1.039988345922009
Ni 5.792798539472256 7.867786358526325 3.597651890230872 -0.4273566832840833 0.10161591047128951 -0.46433017518463904
Ni 3.1760869373071694 8.25796334692232 3.74569366847299 0.8337005117619255 0.09713396344053594 -0.4240219624838955
Ni 3.2206945954081934 4.229145649367227 9.035791543802395 0.8462089286415813 0.6763896217211771 0.4142810810470478
Ni 7.089627533803705 6.292968003574623 11.689864092175302 0.35694445210910786 -1.4223594656343375 -1.916490269120177
Ni 0.6632701662113164 8.93524454547764 13.67315688620822 0.09218870362011865 0.43335995205536976 -0.4233241650859226
Ni 4.529402704847549 0.3267714210721241 1.5609843801408656 0.550333318819336 -0.3496204076438688 0.4133922506841912
Ni 5.7189312206605765 5.265203224824179 0.3206918435302065 0.2533719321320798 1.656387960242799 0.8267145673623957
Ni 8.173319005811225 9.162908012359376 11.10194364993856 -0.46808244313821973 -0.8345176083465821 -0.12949335360784794
Ni 0.16500768400954097 4.8422886598874575 5.80493059391326 -0.5567631336050799 -0.12066032869725024 -0.17868267084830516
Ni 8.191792610674852 9.097234121230489 2.4861461251303885 -0.821788590815688 -0.9975360902950692 0.2555429716414696
P 8.4966838760794 1.8888786711809842 3.6404636790669134 -0.22741561727763412 -1.9906038604061396 1.0971961625915685
P 1.7821653732572507 3.23554574767998 1.5609446325313792 -0.23025745760180344 0.1313221792864706 -0.1984086885223228
P 4.67685730249498 1.1604043583165309 8.251557658311663 -0.2683532360322604 -0.43924777829471445 -0.013537115254486363
P 8.637408480756953 1.5000205807361329 12.579764287421703 -0.31362959137155666 1.28922003063347 0.13217681397728204
P 6.453448976876506 7.6849292877930475 1.356910216134628 0.7139125583672996 -0.08329217246143719 1.583809060433808
P 1.7715961225528771 3.0796628501118817 6.134185337223531 -0.6864259229112565 0.5596396838219265 -1.4436749392826622
P 6.806407749116928 3.9664771854945102 6.17042612352764 1.3370312365794779 0.12548654644130003 0.18927664431406757
P 2.0723409896041707 8.393276856581139 10.398718102645667 1.5087122792989693 0.6761692781802549 -1.2180961181034506
