# total energy = -340890.52035310236 ev
CRYSTAL
PRIMVEC
9.06131748347044 0.00000000000000 0.00000000000000

0.00000000000000 9.06131748347044 0.00000000000000

0.00000000000000 0.00000000000000 13.26215406906529

PRIMCOORD
 96 1
Ni 6.625082427684956 1.8889493764147298 11.264223139186768 0.5425349058208397 0.0013135766051009636 2.164196261215731
Ni 4.743943906733639 0.5538512693132448 6.09376031143283 -0.9176526864048649 -0.716704776400456 -0.2884407508107549
Ni 2.7610196091923926 1.3597684494271098 4.482157014794796 -0.31374786211697575 -1.2119354978186934 1.8405702207530947
Ni 3.4299351093833703 4.190578324024616 4.707202077576972 -1.1301152819170923 1.8011269271558077 0.24895246290814546
Ni 4.618852422194871 4.61736636616703 2.5098625485112396 1.6637564847927282 1.1771073343959146 0.2198627446310407
Ni 7.2515275339582805 6.1281416674477125 2.469028628487661 -0.35678092994805005 0.2334620805820302 0.4376979173090913
Ni 4.998467246770545 4.388522799196613 11.60645368721325 0.7782595571848017 -0.3760408066189266 -0.32048518084080935
Ni 5.590669635182803 8.02220162678746 12.454674533007498 0.1917680432773536 -0.780495902714488 -0.6138197694087557
Ni 2.129989476394142 6.290801373275705 0.3949266384527916 -0.7012300778036247 0.9075690769166176 -0.22021575709508523
Ni 2.6986958691954603 1.7752842129193067 0.37897509557832226 0.8944965600033756 -0.3682426507307464 0.7103590366880863
Ni 0.8018885184676544 8.793582502361588 4.3138077078699615 2.081958241050421 0.5918517497780968 0.015290093389851087
Ni 8.525893068370694 2.250133481718266 1.3160022871437158 0.7375227415870718 0.4868867203289163 0.5731868263787419
Ni 6.9460161617953595 0.6995056010714144 4.846865972505835 0.02419176675485511 0.09006728640174166 -0.29775380068156465
Ni 0.6505744879595453 7.43773760330067 2.1454979208554317 1.5432841037365679 -0.6539940276347962 0.08324126461884374
Ni 7.672507271747969 4.112225113824926 3.817749519932179 0.6595931189891286 -0.4849059424534617 0.02610235351400666
Ni 7.409602213261345 3.762974763330339 12.841053630905025 0.8107788699687456 -0.15424073575585695 -0.4237877349859024
Ni 7.87240899144444 8.887394319777732 7.174294302569817 0.22186769087621142 0.18907429849527435 0.039109564406952
Ni 6.8120083410895385 0.8190669636968176 0.4218940246995015 0.23847521752590545 -0.28511554309226383 -0.502468119706941
Ni 1.871596953894502 6.460447354698003 9.068356074173012 -0.3340886305568569 0.0074698260144839095 0.9249286512409877
Ni 0.07784033964374058 4.652478970483417 1.6589495853641139 -0.7977873428050841 0.6819190361798385 -0.6134137922195888
Ni 6.468801889195992 1.9592198916337191 6.95614580834124 0.488977541419674 0.8535627979034913 0.8341957062307892
Ni 3.4571371837466724 4.323290376364697 0.38936661419252444 -0.5493763542227055 -0.6025434251639882 0.1344823221820071
Ni 5.773218932359047 5.404341768716256 4.726870572784494 -0.17384719713287478 0.6664898461089619 -0.02476589409077025
Ni 5.496604100883856 2.7047578904309866 9.432481483053607 -0.8182085867739134 1.519693203790505 -0.4335661545289049
P -0.004749036367024171 5.359180163577449 12.507059820252374 1.0574867598170885 0.062452610008266636 0.6289435124240716
P 4.2202813219469695 6.181585316546565 12.608899964745763 -0.8436360257080826 0.4338155515355496 -0.6617351050327958
P 2.4651313559414727 8.437191833879567 1.1849294270928832 -1.1045011808934138 -0.011343707147593366 -0.869202047102645
P 6.419435832856462 7.8968745480003735 5.927161650999332 -1.1292549907993261 -0.13328598788106077 -0.3982924189282753
P 4.92984589128977 1.1476792580388866 12.506556011013666 -0.10810614618132348 -0.4916273203376953 0.22952597875241762
P 3.8464294951378046 6.248195059599407 8.124368884833318 1.746344432098289 0.3638805171073088 0.7894639105410534
P 4.783279084885237 0.9779879700303736 3.667714947418774 0.5086619072224788 -0.46370616844739493 -0.01086008264295549
P 0.2009347098621656 5.84815602595815 3.569203930880441 -0.23856134948180852 -0.58198462717603 0.8109431634607518
Ni 1.554260562729546 1.2079913856078865 2.274167719573437 -0.4444437206733572 -0.6729754538333055 1.2280997662833817
Ni 2.0140771062224703 6.447788694509618 4.899012947107222 -0.5342582676343444 0.9880273794736856 -0.22514404763463805
Ni 5.8113489553173325 5.367045386944319 9.494243421381476 0.8159287896008012 0.8172747621057344 -0.07601106541899168
Ni 8.832618657044167 2.2838868884482126 10.056996528754185 -0.22810210182169746 0.43249091918685517 0.9951295377361055
Ni 2.646575172414077 5.243929269564512 6.857594015875315 -2.1978969959022856 -1.4116847595293107 -0.3815398820602849
Ni 0.356779398991744 0.09094119211358136 9.234291446184328 1.916046239604223 0.7807252451164748 -0.5144965116263849
Ni 1.4465668072972195 1.051719908436166 11.57252902158741 0.08270287561687047 -0.12074440377062431 -1.5950650929636014
Ni 4.368506349406961 6.905729545333253 1.4795255365049604 -0.22919173534145043 -0.19701592193985423 0.20615799345043848
Ni 5.361536106060612 8.000844102045852 8.059053097882767 0.6364804442310651 0.22473652778357422 0.31920965656249545
Ni 5.107647058230713 2.815269715525867 4.948334602992262 1.4271383750802196 -1.2056908024605621 0.020904354252834965
Ni 0.7424616815932895 7.509312948202643 6.863270931128016 -0.42316372824865833 -0.5743692767226173 0.3226855309262378
Ni 5.242243864557325 4.510723723534884 7.31731360327374 -0.5940531283047897 1.1612184310798002 -0.8395669978450316
Ni 8.331491568240686 7.240527094825352 9.195738259710796 -0.24716657465231626 -1.1318502623303281 0.7719477560341609
Ni 4.739023611470724 0.39352757107048186 10.307332634093129 -0.49144734311640526 -0.658580361453898 0.18187675230557063
Ni 8.218605678028156 7.477897361321374 4.661805784321573 -1.9009898594917327 -1.9068545458026256 0.8557351229644617
Ni 7.416996248131584 6.34480682404362 7.127386581598296 -0.9667648705504834 -0.2102316492991799 -0.9040577213292494
Ni 2.2571741252160296 5.492037196993416 2.7125614968406055 -0.3481613065998391 -0.42939479676003467 -0.7949357322889019
Ni 2.5761777987536862 5.278833463584311 11.448647222900576 -1.171975412485988 -0.24276047516482063 -0.1796044113316262
Ni 1.0333254344330003 3.1412959099268014 3.9176804448824805 0.6719691240559782 0.9808264908498721 -0.7670197226049241
Ni 3.537139553684578 2.7572138559503587 2.8876089294714196 -0.166079637372314 -1.3263256772365157 -1.5314349177074658
Ni 1.0650672287350145 3.312373579473484 8.382185107556307 0.4188188210164013 1.437522546528021 -1.6234379876793394
Ni 3.5620309921509308 3.0168024723260665 7.263840957959709 0.8114188175455895 -1.5793782783559638 0.9515724790807611
Ni 4.2365735703497736 6.992228879734347 6.10147964759209 0.4885692502376618 0.49964633398742975 -1.0745506572779109
Ni 0.6397063440583647 7.380823469697773 11.948975103523228 2.2563651673415075 -1.0708130446123494 -1.6202768163425387
P 0.17219583609446124 5.587117598823571 8.044544116713373 0.36389440106437976 -0.6727126870902221 -0.7344075929968579
P 8.566868344943261 1.8267434335419555 7.849656929979146 -0.34358525719338245 -0.7693892512783653 0.6884311262667434
P 1.895555076684832 3.3613318765370814 10.442725930205393 -0.9380767585871714 0.00023037084325121617 0.054231764760371115
P 3.9182404342880943 6.234113772603881 3.890280833803282 0.6275553738272934 0.1618864252265728 -0.26062398570880274
P 7.098518130994017 3.895795551477335 10.562376999871502 -1.0322814641960545 0.24717428796180016 -0.359742069458903
P 6.396574129452528 7.6408289066666555 10.015140492145601 -0.5908726736942792 0.4145595315194151 1.076862593240539
P 2.3693804166353396 8.446443438784607 5.781742007357755 0.7812026989735256 0.765553936692675 -0.5761865324370141
P 6.7519408690860985 3.9137097756666246 1.815549082220029 0.7386519700955085 -0.4816141590760674 0.4688406614604829
Ni 5.144372577016344 2.751133712080347 0.7273464983003435 0.31861187507749644 -0.2199769016114018 -0.07388142067049856
Ni 1.7079948710732438 1.2198526498788933 6.9605613882337245 -1.2092263264176464 0.2015166380236852 -0.17914264120385923
Ni 7.006563883612675 0.6681679415184352 9.37293413065991 0.048314113724355505 -0.7473572111789902 -1.5415061859005388
Ni 2.6499006758422357 1.575119715022791 9.286398550989848 -0.11344427056478527 -0.5272029034494599 0.23565317469607802
Ni 6.610992079372187 1.8453553791589516 2.694537630712676 -0.742681917190508 0.43292954938617056 0.27907679309735167
Ni 4.156707120170512 6.830674654609993 10.186408449354387 -0.30622250027420805 1.5104878831421535 1.1156615683856077
Ni 8.144357244539515 7.029081256961378 0.3867922939638055 -0.7226157425682522 0.06542506237302925 0.17889761507258867
Ni 7.323057572274038 4.127765272896566 8.17680763384993 2.4050461496214 -1.1603612252858273 0.1619393899516953
Ni 3.1884238209073255 8.695457497937804 12.307796017289807 0.11831959637921559 -0.796463481787338 0.2668938778779145
Ni -0.069059923235333 4.853350251124882 10.24665805383441 1.0315556417736234 0.16275931474982935 0.046566277795313346
Ni 8.67921961743846 2.6723546199702377 5.783227157253872 -0.21209287087763473 -0.8002676860247766 0.48199776766773117
Ni 3.492186358842359 2.460057018285427 11.58190476653868 0.6074992265073667 0.6596743658490252 -0.7573508320565925
Ni 1.1103013244117645 3.2086033744073497 12.730195663491465 -0.6790052049671532 1.7415896910221231 -0.464390081888297
Ni 2.872591608404697 8.43763583842447 7.86809127377818 0.9727704533146149 -0.1630123113008999 1.3744222756334266
Ni 5.6440589163781985 7.647724569088532 3.7377127169887507 0.11289174049542494 1.198334619205807 0.058989076939698404
Ni 3.2579060015261794 8.282433596687417 3.1306769522498015 -0.7513527054916286 0.06675329426614955 2.153317666630014
Ni 3.518826631536599 4.420898885705633 9.340587946497791 -0.0710308385955809 -0.5935612762700359 -0.14600729210247113
Ni 7.22482383204334 6.20044191772912 11.517040233186828 -0.5196088931522858 -0.6368884783027612 -0.4165379954020246
Ni 0.4463061194837026 9.110248356050567 0.2946676938182964 0.5041246814737576 -0.804973319030562 1.3882625239506283
Ni 4.476997500756666 0.26726808273909836 1.35837572496687 0.8169986256262124 1.1737772415814172 -0.18950598671605426
Ni 5.85281354302102 5.306035537947613 0.5066019366816653 0.5941220338695122 1.277434865073084 -0.633670999806728
Ni 8.06055818267682 8.809856628129905 11.460171406170142 -1.279569137807267 -0.0017462932671453795 -0.6336211204053991
Ni 0.16488788373803118 5.026403287830525 5.754514561306172 -0.0759141348298112 0.2946941879196344 0.18463528888731426
Ni 7.962433178253035 8.779573705904005 2.5859078412091536 -0.9474396878593103 0.5995725154611222 -0.5207561193828515
P 8.82115609073185 1.4384025604613317 3.6562958754292216 -1.7647805273162895 0.780107666137134 0.04942997249635358
P 1.8258644857693906 3.4885618319451837 1.7419702800756427 0.7885982201066483 -1.103677399440538 -1.1427118876351805
P 4.576690113063477 1.2614984639274396 8.229510973330033 0.03176417978547433 -1.250272702835995 -0.926626864879017
P 8.628702773809076 1.5693295333045532 12.45017830739155 -1.5700199770695156 1.6824640885045605 -0.4034577651792987
P 6.320803394667076 7.907730006057415 1.3181253537737363 0.42814035552764323 -0.5719624670533375 0.9504931299736534
P 2.0691517924250515 3.057324683036488 5.896778148152034 -2.2561432811386886 0.6609987410874035 -0.752963244511858
P 6.7975555400870515 4.005075037427175 5.876553288065796 1.211297092903746 -0.9506039445199049 0.8109187379807196
P 2.2941442995672197 8.302187268277022 10.30197467720738 -0.6302020674215211 0.8187444046727254 -0.07085317536713603
