# total energy = -340896.3399148964 ev
CRYSTAL
PRIMVEC
9.03964358668671 0.00000000000000 0.00000000000000
0.00000000000000 9.03964358668671 0.00000000000000
0.00000000000000 0.00000000000000 13.23043213029925
PRIMCOORD
 96 1
Ni 6.381925197297284 1.8177096409212734 11.33449831183068 -0.6975122626324052 0.4319461024269787 0.6232904279033523
Ni 4.800837270705266 0.41039078578980165 6.082294454262757 -0.14138779105258875 -1.5395778585295743 -0.40520791510118603
Ni 2.8315508836855456 1.4218546022525536 4.81542725568874 -0.549471485039673 0.5863123080171063 0.7110313801647625
Ni 3.545520024927646 4.216568937730134 4.741548959360092 -0.5449771967137453 0.25635544024043594 0.30219306739984086
Ni 5.233103994326547 4.481484736940599 2.667784178014475 -0.6869355155578235 -0.36403658306919884 0.16169539226168927
Ni 7.0514373706653295 5.998138083010807 2.4649490360980035 1.0923282929763058 0.25302560453625456 0.5989359103183879
Ni 5.186775820199964 4.516657990701874 11.538895504184044 -0.125960400753925 0.0404136279303562 -0.655235099130749
Ni 5.641045036664972 7.934095303590584 12.439066842875707 -0.6109882134972316 -0.29633378040558644 0.19554062294590838
Ni 1.8466093819325289 6.531088358519283 0.20057071116160136 0.7106966225331632 0.21399780120983145 1.6718765427967013
Ni 2.7907007336605645 1.8347493693561239 0.4831517821531729 -0.12066058580756639 -0.967128167427173 0.17560454614361368
Ni 0.6272075446665825 0.047412931374424754 4.625544115311501 -0.24277641600442057 -0.1543520645227406 0.0893967426972783
Ni 8.650532267571524 2.292028787183893 1.4443660270383936 0.38560222505511654 0.9404118344782515 -0.8449686284765769
Ni 6.963120051403532 0.5265194729575204 4.666770314515735 -0.4560291115181114 0.3052472808451323 -0.44163659024186525
Ni 0.6711845074584678 7.51733156896971 2.540984191421111 0.44220480404050944 -0.10004213822626641 -0.37694172116664115
Ni 7.605269223194763 3.833902739266426 3.8021482787645993 0.5179065657491984 0.03043723344393467 -0.332601247378053
Ni 7.570611229126213 3.800094471708685 12.44458464140973 1.0198558368381918 -0.24452630881599174 0.36231600083366633
Ni 8.108750260136867 8.891122385499134 6.647180887112074 -0.7050507371012954 -0.3802507309352161 0.5373721306729777
Ni 6.82116148623595 0.8163702254383793 0.2957699111965831 -0.0568234367469473 -0.4600202349553755 0.4988716606049344
Ni 2.131963815621083 6.536277114021461 9.129607170401558 -0.5215616460032825 0.6482036462052643 0.05653907273730907
Ni 0.07906343597333294 4.917530031641863 1.2977267343463739 -0.5800406160757816 -0.2790953050401129 0.09561984078885469
Ni 6.466879769090772 2.032961637468042 6.7836921629667435 0.5346195076285051 -0.76591157714241 2.371188834752323
Ni 3.4752819931298804 4.404376575906501 0.6249874081659993 -0.1697480873628367 0.17937224071616206 0.20674754740532136
Ni 5.975566092611961 5.634202026359835 4.945892817815436 -0.06683608378794297 -0.13001348777737606 -0.897408591443848
Ni 5.037703055415285 2.8274740043624065 9.562598873450147 0.05357073413760451 -0.01574543575971482 -0.9304205275934944
P 0.24359760739725186 5.615616518846811 12.373259140471003 -0.8496349236039947 -0.8234109569104593 -0.6012023377550614
P 4.102145127370274 6.1317530570137375 12.648942059330672 -1.0758400655132958 0.6749066094177473 -0.46014056258332364
P 2.499976751595193 8.50591604714673 1.4731428288948938 -0.5967209049449401 0.22975480693377204 -0.6150942652458052
P 6.234841154133649 7.59821830108379 5.932380098646628 1.0043196888758057 0.46738001775455634 -0.16355121452350543
P 4.532450248301706 1.0630621028851004 12.488668271997653 0.6559686348626638 -0.047226279976815444 0.08643920273085112
P 4.179777587740828 6.088751471780536 8.307970448524905 -0.2917495034690137 -0.11908090002527234 -1.341380257576793
P 4.747494333042639 0.9530496386664636 3.9041678899953873 0.6542801914166474 -0.454512674873585 -1.4408647235273766
P 0.052446205004411356 5.660471231045075 3.578898005443743 -0.773637742142074 -0.8867102311897374 0.5285661023455736
Ni 1.560070754915081 1.2415137097988314 2.6190035485433962 -0.01783471418857574 -0.33939975835712516 -0.5268244370641184
Ni 1.5023797486173538 6.658212868322627 5.090170955564654 0.43848930286213517 -0.10754153192710511 -0.79057719820989
Ni 6.238583566638704 5.685646638838739 9.127582290205586 -0.8493806415013436 -0.382268018475561 -0.08044030483493887
Ni 8.551819358017907 2.1897542579998626 10.291450884132638 0.22911177403313446 1.126453259684473 -0.1895970037679638
Ni 2.376097473891644 5.145726798012879 6.900596451566669 -0.27210447554457656 -0.3776518598597883 0.5281035608868583
Ni 0.2455628259445922 0.17349697818421295 9.304487214076769 1.5141046539591343 -0.5856967859202945 -0.1442723116892354
Ni 1.5310263796041128 1.1031619624803242 11.502444948763436 -0.24213029777998943 0.4669838107574022 -0.3261971436239221
Ni 4.084499742805377 6.865003758336228 1.6886533592523985 0.2807667792052648 0.038340033230779134 -0.23621161830270931
Ni 5.523882214254311 7.906623826288986 7.994951993123262 0.4441814681509059 -0.9996287111580398 0.15303591681447837
Ni 5.305041479145932 2.69639013060444 5.003405743131643 -0.27033452812834735 0.8337858723868801 -1.442441323985877
Ni 0.9161859715273017 7.647601874791794 7.320861240204952 -0.08038913988202928 -0.29261725078594764 0.053867439442416905
Ni 5.052717903654164 4.4391430456998355 6.940764108489883 -0.14933789913760087 0.16289738298959042 0.9762442707958284
Ni 8.392703549046958 7.023477752602203 9.357156698281361 -0.11201705119995548 0.05776626027619084 -0.5563329880461967
Ni 4.634571103542293 0.23360428125150798 10.392557491346492 -0.20660253718702484 -0.3341225691185859 0.09189636919068045
Ni 8.041766500082629 7.258743520371656 4.493345653481377 -0.5650235738416591 0.5456366846746151 0.6320995415545501
Ni 7.522493205540691 5.9572156158359695 6.9233926251300675 -0.6520546445202383 0.9834508158465965 0.44008621503560985
Ni 1.9727485705690826 5.473540438310713 2.7997711121812694 2.254431183543588 -0.2805549203047749 -0.6886895221344527
Ni 2.2018131427383723 5.425928634774184 11.258012982249719 0.4999417537406615 -1.1479582236357844 0.746369136234108
Ni 1.2551816511216398 3.3511044071831746 3.923696232349662 -0.7055004230442044 0.07053924367114303 -0.17707290315902408
Ni 3.7040392174122814 2.585790089543223 2.7916209693924836 0.2643577417196221 0.39963144945467305 -0.5373099099764748
Ni 0.9612666748188664 3.299976182234891 8.054686862868799 0.30517091908124216 0.2697963962366902 0.23168930495232357
Ni 3.707266370224611 2.3761426721103036 7.037425922880704 -0.23915810252554293 1.1621013479053854 0.07554055354047635
Ni 3.9738454638817675 6.718480173083978 6.014302773932397 0.32472570128471817 1.006781520152737 0.1733391471482047
Ni 0.7613956320821231 7.494036407072304 11.289978066450502 -0.09000300882270951 0.09383549519492226 0.3071072168720066
P 0.3837111812791292 5.645465422449928 7.997862758404972 0.24071387704843705 -1.2381275828330287 -0.31611559101820397
P 8.440233995789901 1.6049887446194693 7.9399665521945275 -0.21582354156466055 0.3271862470100688 0.05232477754564537
P 1.6470863654794685 3.0375191661195338 10.33548118082254 0.4435068106813846 1.0772030072990932 0.37208182197117856
P 3.9841687370237304 6.098686040242023 3.8346955160217235 -0.7250557194683126 -0.406667530365848 -0.5746176452879974
P 6.857907638006595 3.8034481795332633 10.327172844268446 0.12164377565644209 0.5575948854777558 0.24153765850131304
P 6.415769623429952 7.690178596769591 10.105999881077206 -0.5648785636233625 -0.07170318207225716 0.6624966657891688
P 2.385426386223084 8.464071536311227 5.893270984004433 0.26808995506854477 0.38821857963204104 -0.2281725500483167
P 7.003807487841336 3.787041226159654 1.4355017523947784 -0.39622165244217566 0.8853601449197461 0.4250252069374293
Ni 5.333353643314606 2.8487533257075723 0.3246560927422408 -0.2586882021386706 0.03917281354471964 0.31532754789926987
Ni 1.42753149851626 1.0977291365973822 6.974699835024245 -0.020400932253855187 0.027031035975863125 0.35587410186306456
Ni 6.799601935935091 0.6045424459372983 9.159997548664224 0.2692929742377104 0.6262721362394956 -0.3824351401810446
Ni 2.822655874253242 1.5057244167981996 9.292248440427992 -0.8064884701235078 0.7553847094691571 -0.00275776525079525
Ni 6.404307355177757 1.9800435630608197 2.636838765626664 -0.3192101707831277 0.056310758776586894 -0.06204251905404153
Ni 4.192532525046703 6.806417827309031 10.464742662404134 0.4548857419422876 0.0713861650524706 0.06281410711274342
Ni 7.989580636817698 7.266002354288465 0.06043544213476724 0.029154510076769145 0.1444916267888931 1.257458679061473
Ni 7.555722935899583 3.7559810102964466 8.305086802174392 0.03799267719368941 -0.30203108790067984 -1.1257089253192807
Ni 2.9990012441774128 8.347523409674343 12.338159107823957 1.0732085414277195 0.02658700645990905 0.2583840406346905
Ni 0.0371429921304812 4.6646821568136385 10.042003723276398 0.10635728181101682 0.2397384005090452 0.7386797380096504
Ni 8.679260255351872 2.282437725184224 5.774368934139732 0.15315470178052978 0.3805731472716414 -0.5211343286578767
Ni 3.5076439176904985 2.9416627839852345 11.684430152412013 -0.8009068622706722 -0.4903829064076328 -0.9033383266647217
Ni 1.1251102174616594 3.348121324751609 12.712235836813504 -0.4040092668073945 0.5299868939525002 -0.3518413265545876
Ni 3.2261674911629794 8.636249630474937 7.925955104409902 -0.855049923971979 -1.2569529430696482 0.29095811791596987
Ni 5.373751811152986 7.7767693440785735 3.842276161255392 0.49841580401443836 0.5875428379900978 -0.5529717848834477
Ni 2.9382638779419965 8.425508416150445 3.620097989681153 0.612596438524616 -1.3036919989973998 0.010945186157594053
Ni 3.2071842393257453 4.376344640693519 9.182078686408419 0.22250712423242322 -1.3422922278681013 0.3777433911323301
Ni 7.234670949113297 6.070916254697268 11.384906077173522 0.3651879230648227 -0.4056213484895208 -0.10710598705158328
Ni 0.6763063695970282 -0.04510420636526783 0.352652773344668 0.1829573869642591 0.13680042879222248 -0.10176374890306344
Ni 4.617097472208306 0.43608506913368433 1.5055174089567365 -0.067653951703548 -0.7756876826925674 0.30895404027275825
Ni 5.991213715912082 5.5035882140759345 0.33694187253842395 0.1411147398968602 0.531198140651782 0.4471590627219912
Ni 7.798518726897805 8.8673390828402 11.379296074273434 0.5370224606430428 -0.28321318386322836 -0.061524441767042436
Ni 0.12740473875903577 4.753098912156489 5.7150833346876775 0.0778144371763176 -0.546530143023162 0.09526554277322948
Ni 8.092704892512538 9.09044652979009 2.265566134122789 -0.5953808459772778 -0.33571511041668634 0.31008995364941433
P 8.61240305030988 1.6973015864108183 3.5702054840310358 -0.47274282472836643 0.20213935920934864 1.0244208305010551
P 1.8375878174879767 3.4216497868678286 1.7713037258585953 -0.044022942548169346 -0.2785160354978752 -0.7106570275444793
P 4.816792241892275 1.0026501638240364 8.258105061805985 0.9426021572613509 0.9991952231650469 0.11049212991499681
P 8.580176720405243 1.5963739641428578 12.44234823355043 -0.06875798340100417 0.20672800702129557 0.5537055777256786
P 6.357608555658161 7.8713330571591955 1.6527849568881314 -0.3641036888617084 0.2703170446268506 -1.09729103629822
P 1.8999071213764964 3.122356222544506 6.000768619336823 -0.18705881072714237 0.3299992909788316 0.26220547126330973
P 6.954649905226632 3.961741380924598 5.932089022118457 0.5901550788019643 0.0926119072004663 0.3485312883447481
P 2.3227726155164805 8.517866456160455 10.149421809743945 0.4876590797185666 -0.0522476444508068 -0.2629791162045406
