# total energy = -340893.5075094334 ev
CRYSTAL
PRIMVEC
9.03176633719361 0.00000000000000 0.00000000000000
0.00000000000000 9.03176633719361 0.00000000000000
0.00000000000000 0.00000000000000 13.21890297941820
PRIMCOORD
 96 1
Ni 6.522967488306884 1.7525691111059702 11.326551284791659 -1.015556952352522 1.6864732096639534 0.029912214178400093
Ni 4.601712076146385 0.45117647145678624 6.061791948268556 -0.3682426507307464 -0.5574421619499754 -0.28124963237895434
Ni 2.7753353700188574 1.5750768378113502 4.745771459757782 -0.025716688039813775 -0.2776194918255348 -0.08487237246436351
Ni 3.60456893851056 4.237027412443445 4.892540373289206 -0.8683438128674078 -0.013010553327055011 0.04697919696301586
Ni 5.033873066624415 4.5358614673233095 2.397697346944905 0.9960237674156008 1.1956457595197343 0.5003058219482996
Ni 7.259526101767237 5.773773433652803 2.7325455703451387 -0.27858262706975245 0.944390102399709 -1.8595637311364621
Ni 4.7854904588554685 4.542102417905773 11.18227965466986 0.8585502238157536 0.7078938629770453 0.6355129381114732
Ni 5.508510454482082 7.729105700440852 12.650358059115954 0.5337599878416872 0.7886360153231192 -1.2917227424506659
Ni 1.806281025887321 6.292540032141321 0.30842579079676247 0.6346516185524426 0.3500232995092423 0.14331329021007577
Ni 2.9444461640941917 1.6482431774185005 0.40973150180004125 -0.42693579369658086 -0.8667566708859459 0.45037088479106957
Ni 0.2004745060762956 9.1577595413739 4.9617679595692765 1.3755155086976052 0.06457248456474686 -0.3222330167698515
Ni 8.79298456000696 2.2408986568261775 1.523571383561542 -0.898178379730337 1.1058877768282953 -1.0714748465660644
Ni 6.725703548689763 0.6359284785838006 4.563099468432709 -0.25518430275047016 0.43448300991621946 0.025962742612348832
Ni 0.7931895951422131 7.289773487441147 2.3770624702506136 1.0955563129953003 -0.6678679574034111 0.7751791184872651
Ni 7.5554970866982725 3.7802006679267612 3.9326632069968044 -0.1071296412006671 -0.5497152256193629 0.19701926437396391
Ni 7.892499386384927 3.729180219532638 12.532973997567229 -1.3973973963723612 -0.4042859175075489 -0.49152036244618574
Ni 7.504277939443346 9.07186744290902 6.794979003331753 0.6865879024104174 -0.7885565682354355 0.3287929293755563
Ni 6.901651389929968 1.1069874805937507 0.45839736869366027 0.2228555087107775 -0.9787863204913918 -0.4962776746255131
Ni 1.8529120358109992 6.579145075315461 9.15773876831118 0.6753375263075788 -0.07504947283667075 -0.29025877785610016
Ni 0.10236965308520966 4.763805187728846 1.3588102881844928 0.1575857409686899 -0.018976283992186673 0.017129717701751146
Ni 6.175957991448926 2.0334841414480507 6.8860706897131685 0.5660862107782185 0.41080572090393763 1.9125587952762546
Ni 3.2362264094155835 4.210934639313577 0.4644007838198018 0.6974508132668505 0.07313760052593857 -0.6001165608900504
Ni 5.956513163225876 5.511653509189315 4.729102431689771 -0.5944642477002794 0.5011085203552531 0.6050584782763581
Ni 5.048043908106161 2.956196492180712 9.442645839402102 0.8372131529008743 -0.7843970375411071 -0.6163101399307773
P 0.0232306063576782 5.55702910358338 12.219236624950572 1.2644052855826353 0.33134449215281647 0.01132673786672888
P 3.9277797309042746 6.004480874576768 12.6431534190586 -0.2662837550977414 0.6454895897082109 -0.3560741336890126
P 2.581405281876069 8.55100547461568 1.473801834813832 0.3488231085535541 -0.6272123886655778 0.0946145394527919
P 6.118290162984335 7.820877478832193 5.6498386319340925 0.14285486251641846 -1.4967803037480738 0.6181831885837741
P 4.844729814673677 1.0964383774384425 12.6862204939608 0.608335606365733 -0.2832296389234606 0.1032146224169771
P 3.9888254400025 6.138557446786143 8.123452491354975 -0.9734975612886266 1.095505662263023 0.3417062950031147
P 4.710599051865901 1.011747503904774 3.6358062057819205 -0.0713933641413222 0.2520778959110046 0.4929246989928801
P 0.13538075927754814 5.602377602678245 3.7044918860779847 1.1363211536174882 -0.9182674371707281 -0.3474231428822339
Ni 1.4379114014931438 1.083613269150311 2.5750162103246432 1.1060993786184692 -0.5435155245665543 1.4092296131205988
Ni 1.870072391971175 6.552871666857591 4.744343537489927 -0.6081309465540946 0.03745737351550968 -0.4849560789651068
Ni 5.917279169983875 5.580773617449224 9.069013404726592 0.28773266900013666 0.5414169901663127 0.6560267417941088
Ni 8.566449795159837 2.3462542118832577 10.177140694240032 0.7241013259748432 0.46805904609945204 0.4010082751975416
Ni 2.2961188765963434 5.2627109319035625 6.795176799015915 -0.558675005915812 -0.4697824565484619 0.8150808397782092
Ni 0.4414600971635666 0.05547491558264882 9.24422967288839 0.22214871245174 0.4127826421246504 0.12333710419846501
Ni 1.561583378809612 1.1442796440597331 11.466684559548936 -0.7001445580489296 -0.39051277498285647 -0.036306547740518114
Ni 4.355217107555057 6.811667901285845 1.4832138385793685 -1.9321513726962014 0.5004204931492929 0.9344628159836681
Ni 5.509874251208497 7.7969162025727465 7.923621950223006 0.9215232251038645 0.24698094100407145 0.2738993626614702
Ni 5.373052022013494 2.737727094728872 4.836003321977907 -0.4682343953350516 0.33352401630263856 -0.6413897086072244
Ni 0.6587382046272345 7.888380900906485 7.1396745616380075 -0.1635776968860667 -0.7305499098136644 -0.2564158611647261
Ni 5.072700630378414 4.691939422483309 7.003612807173893 0.1258048490126672 -1.0215982734505955 -0.631707448322454
Ni 8.487918586311032 7.003999366775817 9.73494179858494 -1.1409838492004802 0.9036666565384178 -0.5971050277572363
Ni 4.440874380093535 0.38423843795913987 10.689307781020004 0.944903551701018 -0.5102421072254051 -1.351431728275524
Ni 8.076340991458812 7.178493093625606 4.587620714208961 -0.5500988342110269 0.3256865225360907 0.8549679057811339
Ni 7.286070463217109 6.249729459404883 6.986322393577556 -0.15733685818267742 0.18999783875080825 -0.2681609175157962
Ni 2.3156545873197443 5.088135919156172 2.5547516360527553 0.33655020472347197 0.9926538225021033 0.5716930154420348
Ni 2.2779018037673566 5.237132969458499 11.27690095536043 -0.6681065557767785 0.4701200423935388 0.7059745344671454
Ni 0.8644339748594236 3.473490912746016 3.6051650350929663 0.40443992658690997 -0.7342160458113419 1.4057542529774885
Ni 3.899293539678382 2.7190674653462805 2.459403278166978 -2.0292549971194345 -1.8263576766981384 0.7101178672115577
Ni 1.122043435182705 3.515398308842446 8.131171942097135 0.06715592902120691 -0.7282063492821523 -0.4470461912932107
Ni 3.713591390726078 2.720142245547892 7.371296920498303 -0.6658342148028339 0.05127242502173105 -1.0410674379188005
Ni 3.9264791565426607 6.8106292481498345 5.9656912442416505 1.173820436114527 0.8935272541115709 -0.4918191246335271
Ni 0.8829662563357736 7.628067329723017 11.720249594878256 -0.16553816304654717 -0.3457886926026045 -0.7048579043641989
P 0.2128913785231429 5.850028637368784 7.847150887290063 0.2252389213412895 -0.6095368257626858 0.13297539861917743
P 8.391513511756445 1.57602517328336 8.12481357855147 1.3420793405263467 1.1263838398991182 -1.5307042101890282
P 1.7195128460816314 3.2564846614509912 10.384849645202802 -0.1920765756567079 -0.5796585501460145 -0.537288569820236
P 3.9899905378681124 5.996270998919083 3.706752537207928 -0.047555895402092284 1.0953825064215974 -0.1470362475876177
P 6.8900455701058485 3.9301550854674985 10.248760795439487 -0.47110657467652417 -0.3890917262656138 1.29347109260034
P 6.381936455969438 7.661882263124963 10.218040145206214 -1.13902004060589 -0.474857299968208 -0.49010188483210443
P 2.255647531357529 8.534685072730712 5.808254008238436 0.7178820845380087 0.34106917563974803 -0.5822700196269326
P 7.05797320278277 3.913238587000125 1.4009389625577249 -0.4376300401856334 -0.10215507080421116 0.34095090489432894
Ni 5.344231655430798 3.1731214575781364 -0.0673516883987706 0.6112700064037085 -0.6951041674115448 0.8555080945553202
Ni 1.5853007973762552 1.2321406675998339 7.159939135909896 -0.14830123034297038 0.038503041171204656 -0.6897624434836572
Ni 6.942465942291986 0.5213514900322258 9.217078376736428 -1.8228558341924672 -0.025302226210214485 -0.1487974532530986
Ni 2.7676854638779793 1.486583590623243 9.299471568897912 -0.6032124262065547 0.1534040987871745 -0.07809468742089776
Ni 6.246450928201649 2.219881736413162 2.5119356442564764 1.2528582041749843 -0.09902886647040365 0.021726593043814194
Ni 4.164854567140305 6.915506119587709 10.587151277621837 0.08947387579211687 0.08691511392600516 -0.989737934406889
Ni 8.376033064146686 7.120463994505011 0.420235446123349 -0.9960273669600266 -0.7527974083579551 -0.6715140387964306
Ni 7.626324198807797 3.8061850598598275 8.242647422066916 -0.12165097474529371 -0.34038551930916217 -1.482792216999098
Ni 3.168370748451687 8.411771763791853 12.407500182853944 -0.526123554342352 -0.5820815577652104 1.2549338557570904
Ni 0.10340017763146024 4.850329509841734 9.849590138091074 0.06702120321555555 -0.9695231500219109 1.5743934235468626
Ni 8.654617898757543 2.228796089850053 5.945030175424799 -0.5021503313562061 0.7440960239292153 0.0668168005142333
Ni 3.5536207442476377 2.581414313642469 11.448812500196432 -0.15755463062043834 0.4113903897628141 0.13406708902145945
Ni 1.20444024005075 3.36754829287293 12.573331542549402 -0.051087305594118476 -0.205263249550311 0.3881085364167381
Ni 3.2593116043342203 8.388533028844414 7.90055481883717 -1.663529970604219 -0.014170377963111078 0.5516913755091273
Ni 5.816782705250044 7.698587361774939 3.426934866483459 -0.48730581014420593 -0.2650635095373951 0.09043701103633457
Ni 3.3883574826587433 8.317534313173285 3.698305126093921 -0.7764111911221532 -0.39057268168651443 -0.2981188973304672
Ni 3.2153630290313693 4.4486236356648154 9.247257120985699 0.3116606405706439 -0.19653872519311957 -0.8497202842289495
Ni 6.971746928961086 5.886327306530757 11.322360545182017 0.5578206283353166 -0.3722599994202556 0.9085311837195708
Ni 0.6500117119314651 8.992351771522605 0.5825796408117336 0.3843704095305445 0.823840331138394 -1.1021092836224695
Ni 5.019801574573072 0.2620847005745274 1.59942106096616 -1.2921495455754393 -0.7102950162193703 -0.4629150400046673
Ni 5.939723109488104 5.474325218657731 0.38582441613899615 0.9497022586412419 0.27463264128306897 -0.9980117443799071
Ni 7.802398484777603 8.88062882115346 11.321964050637051 1.1451819464422277 -0.8520080518218617 1.2167858839324595
Ni -0.0809363682411499 4.718393466269181 5.916728232233468 0.620884389565021 0.07355129102458946 -0.42712914065430957
Ni 8.109794654204755 8.77142573360994 2.5660268932266312 -1.187188887001633 0.6542123142931895 -0.35649605171777954
P 8.36863604746501 1.6962018570029924 3.582811413252737 0.37519517078917963 -0.42662314755216846 0.6031165240586387
P 1.835534917257221 3.1005963733853927 1.7162099291091175 0.015786573410295393 0.13960293123802409 -0.8700016601858049
P 4.75726618885518 0.9798202096804468 8.425120714531188 0.3359069147125183 0.06544768808084857 -0.9152330212197787
P 8.6894895488283 1.5407651572573986 12.510052277620435 -0.05610327075147112 0.32874562107738864 -0.39776997076590204
P 6.49421937585539 7.504305034742547 1.3009302132094995 0.2858040845188562 0.5696369042439545 1.266552156722309
P 1.7846589771254993 3.176020654592566 5.828809405388407 -0.028817695562640692 0.6465851367652348 1.0912684842532239
P 6.865036608943992 3.920590444849801 6.018368118593551 0.3079726501960954 0.5042542650730865 0.33285372970849125
P 2.273440111165711 8.42441623675198 10.178158574313324 1.3145297130428522 0.6283459880493888 0.7711604842461751
