# total energy = -340884.6134378681 ev
CRYSTAL
PRIMVEC
9.15659085596640 0.00000000000000 0.00000000000000

0.00000000000000 9.15659085596640 0.00000000000000

0.00000000000000 0.00000000000000 13.40159628009886

PRIMCOORD
 96 1
Ni 6.687378768727046 2.2103552450270976 11.205570324828834 -0.40807058136096175 0.3578733916812804 1.0267273671470445
Ni 4.753103894017528 0.591554225732843 5.766037104782998 0.5943729735380537 -0.6157190433139976 0.06788200855395407
Ni 2.9262999259584497 1.8150377488339087 4.709508449384878 0.7168140482848107 1.2052370027525954 -0.6435226957898272
Ni 3.8212010182024208 4.244675031218486 3.930768784154467 0.5642640699678153 -0.21041419762363117 0.918428902449257
Ni 4.516048913845998 2.824103215629953 1.8676332065999588 -2.0541964975561204 -0.43196230037689476 0.7563763839584651
Ni 5.045711910795364 5.006732303603499 2.0505644939947922 1.3947615014114108 0.22483191571085798 0.03145693295770066
Ni 5.919223206844786 3.093325299410838 0.14266701050857808 -0.8293594611844103 0.2012973229240275 -0.3332476227128003
Ni 6.1083709037586615 8.151600052834167 12.456327669396117 -1.529698137522017 0.739118625319282 -0.23298334117339872
Ni 1.988051532693504 6.675127250187532 0.25734323848842383 -0.3534099565932881 -0.3875441792728358 0.6078059591145081
Ni 1.0263622668865857 0.08436882796942637 13.292708073943606 -0.7351683824222823 -0.34161682061310195 1.1112361856244024
Ni 8.248348591614821 0.00854493056881579 6.887898035801029 -0.16740684082416973 1.1232944023405171 0.1154247913299238
Ni 8.81533385281461 2.605700210992797 1.6956367199823215 0.6873399500850936 1.1664503689027008 -1.6025464889423109
Ni 7.014671951594332 1.2706326406374417 4.889894204527107 0.4949790104187476 -1.3971883656853485 -0.8668708278663071
Ni 0.7956875992100736 7.897935016884848 2.6125877986201687 1.7874679416114767 -1.6767251291382541 -0.828790733165134
Ni 7.873038246399839 4.03444886219851 4.107911274822334 -0.0959995927257766 0.021258138047827904 -0.6294965567140642
Ni 7.861427689218894 4.0871541990546 12.749045565263994 1.3682935370278693 -0.551858754324927 -0.3227814330741538
Ni 8.643574521899643 7.5064449756614025 9.212859918717612 -0.11636967174169636 0.18390329581729617 -0.4243230386640821
Ni 7.118232993957499 0.9721460925424384 0.0829605442987407 1.69663523779862 0.39744601176758004 -0.3387001611869393
Ni 2.133961807676444 6.95932951657727 9.322913899643089 0.01795966980221423 0.22660340578898394 0.790117227854336
Ni 0.281384783389284 5.095056778814384 1.3839289703781956 -0.007183919342948918 -0.22363558140991163 -0.04313925439163538
Ni 6.7047579781351185 2.380237474820539 6.941195804084255 1.1109585064829834 -1.058865642442486 2.411344838145918
Ni 3.6118355687210952 4.466411034920204 0.0569036337547211 0.45290804939062645 -0.4419371522014196 0.756703942501213
Ni 5.887486463004757 5.6557606187001905 4.2871167454057115 -0.5241587173064973 0.1879281007059731 1.236804236035915
Ni 5.563059293069359 3.34845538989403 8.861443697291019 0.08263576982436091 -0.09880878003979758 0.8267122533695505
P 0.19349890887947818 5.753003613386029 12.538386289497444 1.7831867977376192 -0.1527962899998465 1.0643870864813476
P 4.3656061263988875 6.274489774718216 12.571501100258397 0.47087646094358904 0.23449052184654454 0.05740861982645596
P 2.6896020528295512 8.615179933715012 1.2733750395930359 -0.8749551475363382 1.0308352186678311 -0.3830851150602177
P 6.806423606195086 8.08044418544211 5.5738311065296635 -0.48088370866794594 0.29607127077281914 -1.2224456533213979
P 5.216363294219089 1.1269199474553118 12.447215030195425 -0.4597384420488986 0.23254342542250273 0.06337177938842634
P 4.800837202049286 6.626542379207959 8.235562328170444 -2.264214745292913 -0.009643950847667263 -1.435267174834941
P 4.8815342370931925 1.4967363381682692 3.506500894712859 -0.07051250419826567 -0.712847864548211 1.1372531785134543
P 0.6211611465442541 5.740047037352086 3.556623157293914 -0.9753680388384621 0.5557812293077847 0.29373182400636505
Ni 1.0502334991978832 0.22363508064125115 4.514019813316583 -1.513949873548825 -0.16746777596909224 0.764254244044645
Ni 2.0946342500327835 7.047296884745523 4.651546313729433 -0.08325463435528242 -0.5795618766671503 0.6100536174981042
Ni 6.556521929079654 5.690198556837049 8.93583550388477 -0.9429441139818019 1.0720646576312634 2.240525886316406
Ni 8.635644914235055 2.7031263374953687 10.020775229331027 2.2490825176371656 -0.7565813008804196 -0.2918122383861491
Ni 2.406782431656155 5.995277850334483 7.172480300710491 0.809024349171484 -0.9240313362376991 -0.9500881812257508
Ni 1.0491896478424987 0.021408109376223013 8.772376622563279 -0.31764719717138196 1.07533304396989 0.43209548352064936
Ni 1.676599251973722 1.484988432124773 11.543733296678377 -0.22517361532099284 0.37963340906619136 -1.210980847214908
Ni 4.3949438434397 7.1389818287934785 1.362781823840819 -0.5229592976817574 1.0126626615238623 -0.26988587062670294
Ni 5.98521475700494 8.415694445746494 7.51743746296087 -0.6412737518546504 0.47709904481453314 1.2673563977911593
Ni 5.392682607370737 2.9643730306574807 5.271169153013121 -1.5345595793793765 0.8247106495584894 -1.516085688944905
Ni 0.9000150482262722 7.785830875271033 6.717777734645833 0.32697181700641753 -0.4580649110012176 0.19494515545375457
Ni 4.47882737209478 4.716779698168308 6.936451774371755 1.1184332175934737 0.42951512438798295 -0.34481398739416097
Ni 0.977081495003424 7.567263051998817 11.499681853822057 0.13002865728602767 0.22646045245321644 -0.296698877054489
Ni 4.746016692709916 0.4774072487033589 10.37969710826647 0.4688638013889344 -0.21654550733234967 0.4064942380127773
Ni 8.703028266202388 7.40582319895682 4.5618227114387 -0.40809706372352295 0.6468023949823635 2.193762404908622
Ni 7.527166340724873 6.5428419823696125 7.03614598842458 0.6119518629620816 -0.27539651603228704 -1.0984436618454243
Ni 2.593595197906669 5.413568791069267 2.351363996935148 -0.8876797941918584 0.39985462120907267 -0.988720291775652
Ni 2.5344619342832098 5.486647542537033 11.471941046223167 0.064940666537443 0.08750441077057189 -0.2380877522794996
Ni 1.472297397225096 3.7583776484717677 3.7415249430368074 -1.509195132472659 -0.9585003165488458 1.3115251218885735
Ni 1.471143666779671 1.2639391727358082 2.4829542795085606 1.0867148034442704 -0.46080647830209676 -0.7392276400933204
Ni 1.4938611686455432 3.566922490667043 8.130908904520457 -0.18135224726066831 0.3656430083243703 0.15460171863970149
Ni 3.6863885313135705 2.443793371818128 7.220029561266431 0.8325723116947532 -0.015808427787166325 -0.3549135377220081
Ni 4.454946983192646 7.114542887850305 5.880633670422564 0.08468339638200899 0.48385693236365696 -0.2565019931206292
Ni 8.46721858238465 7.321710755530821 0.3607348839211108 1.5639156639439904 1.629081559118362 0.15910063495131954
P 0.4539150992527012 5.880390105106308 8.095783306411763 0.8050049435994459 0.7328700733064089 -0.7654248673139786
P 8.837849909682074 1.989992729950886 7.8766404492349995 0.045097920779902975 -0.49840449116052865 1.0123505296000823
P 2.319593373709023 3.5327958766186325 10.360720073757392 -1.8489936689300994 -0.3301635844708378 0.9300549167239595
P 3.904480211862279 6.666574994346046 3.518963930500702 2.0579369384351587 -1.2603871655621777 0.9974036784822629
P 7.319174379869053 4.247275503016112 10.465668339632318 -0.878247702244681 0.7316886514037979 -0.42265979202904636
P 6.901936005212785 7.612340948687929 10.341810798020507 -1.4489382445641303 2.2228696066872238 -0.6605714237419977
P 2.6756748781669186 9.050557514818799 5.818088661053348 0.41044216691693186 -1.3611332718340041 -0.24642172606649174
P 7.277282976791114 4.317250170190233 1.5535264301966154 -0.8941846851899116 -0.024695960084783274 0.9102821049724065
Ni 2.899782438895344 1.7434332084908528 0.3508073081359521 0.22464911027609055 -0.6323049726971368 0.2440804795278248
Ni 1.5715182155316627 1.5099309855639653 6.70211172338331 -0.32353708029325573 -0.6500098461760676 1.3567053179696376
Ni 7.12955054023167 0.8219697618886763 9.383020508872491 0.3754844198948243 -0.9528068657084946 -1.6873188454937007
Ni 2.825275259257052 1.7242959336421335 9.306054784594542 0.5745585099152879 -0.015268753233612412 -0.3326459845730594
Ni 6.726321749555566 2.145645617584083 2.5580566375512386 -0.23533101546996893 -0.030006573664419292 -0.018232720957942792
Ni 4.587781646460767 7.173712777837112 10.403498750487408 0.21768784846690897 -0.6473428408668658 -0.07693460567452556
Ni 7.331398428636058 6.3051551974303495 11.868990053743579 1.1208811649133343 -1.9256773349360838 -2.188039643492232
Ni 8.165884334539431 4.322103163333688 8.141335514506217 0.2948127157753697 -1.6672215605231933 -0.6350431975639063
Ni 3.259279351735332 8.205944419450027 12.402494240548945 0.954677086148014 1.0811555641889379 -0.22456452098208418
Ni 0.2731163818637368 5.474231205362456 10.410614337226614 -0.4789888056380782 -1.3904065668768248 -0.9591045257917482
Ni 8.933050984611326 2.6424456100205056 5.798602520093749 -0.17234490155573542 0.3989449649106097 -0.6380040799644431
Ni 3.904242140500524 2.6470513752113694 11.64022453525652 -0.0335922341331486 0.47231370761074787 -0.0643624254364698
Ni 1.4321365898152951 3.610443766913915 12.86571976136441 -1.1121679534100524 0.37477068165725136 0.07434010547447197
Ni 3.2787828902175193 8.502306638470914 7.784062737580466 1.1253705681432555 0.20327578680663702 0.6674167287986054
Ni 5.814233736311094 8.346214234477555 3.501528865888526 -0.06819439758805029 -0.05933129077046555 0.8462999456934909
Ni 3.296473423714039 8.751585667409449 3.4259970637356068 0.5429794495574262 1.1411239743227701 -0.23492658094269864
Ni 3.5726362033491483 4.791103745989865 9.316428286353448 1.0874807350760174 0.9494724020186228 -1.047342472294235
Ni 5.411499401540172 4.560201994860603 11.446946300216206 -0.31058591944922637 0.649560674453791 0.05012622723242979
Ni 8.440426397596443 0.10763480962641742 1.8462974342913456 -1.0690592951460363 1.0274285069791274 0.6713296906997664
Ni 5.0371047154088595 0.48826330279935976 1.091481193940001 -2.183949532583258 0.2596302543369658 1.0013220397000626
Ni 6.511288370346317 6.228487062354595 0.49170709661304557 -1.7843484221458883 -1.7527832457450974 1.5687603936308014
Ni 8.29366455966569 9.104947664388844 11.323009096264114 0.23177620823917505 0.7112406679620913 0.4635848123781823
Ni 0.14515485623891158 5.150994392235832 5.914164190407504 0.6962789044459363 0.018425810805355363 -0.43250660291613896
Ni 7.677252021129351 6.30829590808734 2.873409625967458 -0.37667972575450615 -0.4687835829703023 -1.9123950160048804
P 8.842931817596448 1.7851964192970775 3.6954233394921503 -0.6514360370996329 0.3173206670698987 0.4460668580990769
P 2.0070972416338564 3.2363512482802155 1.7477825891382892 0.9419652950083004 0.486258342716298 -1.9095644885346208
P 5.217626903754556 1.2301971355025398 8.394692889003421 -0.4957138317022431 0.11217748803721969 -1.1517621707629069
P 8.946016717236104 1.99387512446565 12.636967977763607 -0.274292741445147 -0.683065748189772 -0.2586972009997351
P 6.496949149096033 8.21931304207162 1.454247009708694 2.2778649890864964 -1.3105951538751364 -0.3953929858932933
P 2.691396744633546 3.9162281179057747 5.778138455232791 -0.48301309630612294 -0.06377158593000629 0.7988751765526241
P 6.8056727657464755 4.448198575745993 6.193694764152355 0.46350407973891783 0.7266742289083421 -0.7693478565174685
P 2.6753910238509806 8.976920211309993 10.364084205230798 -1.1807102212558247 -1.2639003209217585 -0.1521637986221702
