# total energy = -381164.3726332514 ev
CRYSTAL
PRIMVEC
9.35221459136300 0.00000000000000 0.00000000000000
0.00000000000000 9.35221459136300 0.00000000000000
0.00000000000000 0.00000000000000 13.68791139080266
PRIMCOORD
 96 1
Ni 1.8737255115030376 8.014464318182249 4.617616591169879 1.0476628317481311 0.27377235016530266 -0.28350294718950525
Ni 4.378790961938426 2.569492855583077 10.083966280714485 -0.2147732459232753 0.7530249509877289 1.4066366555824419
Ni 7.733860476688384 7.697695463521581 3.1474260388416897 0.23848010262191183 1.42863064335503 0.07188187374196653
Ni 0.27621765293031836 3.9959767690352024 13.224027450699474 0.17156148642249164 -0.23786432341478386 -0.3827634700547408
Ni 1.8393561235051055 5.81595510425957 0.03074540490971463 0.2916749414773364 0.405195830916328 0.3414597262099474
Ni 0.5307746420396816 4.812593427866066 5.326486387654029 0.1000267116072987 0.15931815027876434 1.2739003695572642
Ni 0.5991945075237823 0.424868295491061 3.084255571312212 -0.021597780775433773 -0.5189864290769385 -0.2940010185073517
Ni 2.2375640613456347 8.322638487789828 13.275206508898084 1.5815032951187666 -0.6487335505668053 -0.4212644543434164
Ni 5.209108614896357 5.395853632458998 4.915589365286808 0.7185803961566141 -0.9214134389988776 -1.5614268360838657
Ni 1.38758805367433 0.18062586366684577 6.278836410487064 -0.0944589877115341 0.5693291431955485 0.3250956830296272
Ni 1.8717615464745845 4.931918331666233 8.130797448589071 0.5808507706819029 -1.351539457497982 -1.1495862461575106
Ni 7.8774730813404235 6.326183866437304 5.223662530978638 -0.591366325501246 0.0701450935565179 0.8187953125153188
Ni 1.0763463577365953 0.7016975832445261 0.5808258231790917 -2.0171782684605586 -0.07708192988566724 2.2856909128888185
Ni 2.9563752617595256 9.054009712171398 1.727866504947025 0.7392960314374107 0.04241754573426243 0.6720843094776038
Ni 0.10639640258429187 2.042841604881705 11.454755886845444 1.2184876971149143 -0.8752012021088733 0.9236089039882995
Ni 7.086827521957249 7.848546682135633 12.961931641545178 -1.707376278365208 0.4535305134659738 0.8007546529635241
Ni 6.8877469335730375 9.06122962170457 8.158542663112463 0.34938129504986926 -0.1339884132647241 1.4377891699258463
Ni 2.288701969800789 3.7093594536685033 3.8267568660764595 1.190242586226292 0.9235726514337256 -0.03493306443175919
Ni 7.195883694322932 5.402100911692363 3.012996373529833 -0.4873906565485284 -1.7346767659523736 2.3712978495263615
Ni 3.5762867946691634 8.524347048426398 6.893547176957069 0.5704069496407597 0.8560094596717709 -0.3729220584842868
Ni 7.04526628106941 2.2941356063795095 8.574203703505846 -0.26898315630677544 0.05274078203714142 0.6502841828833767
Ni 5.254083414047936 4.094614574535663 1.400382818223982 1.0287485113421315 -0.8670780587811067 -0.14339710817313367
Ni 1.0426783858202537 6.200901602050829 9.786089834406097 -0.4139748626605387 3.1674476567280223 0.11246262337780631
Ni 5.908542027029509 1.298863595460349 12.295795853637289 1.362638652734937 -1.2283699892256328 -1.8621482040341866
P 4.91591669279155 7.61494707032275 13.09092673505687 -0.9149928801845144 0.3658157864568087 0.8216057853809206
Ni 5.177124041575832 2.9590032340118846 3.9608844548625117 -0.590666214110428 -0.037140356495723136 -0.18438229233624373
P 8.733864708104674 6.346197605298684 1.8562864372718149 0.6055708991364023 0.23369116587370078 -1.5044370489623833
Ni 5.571338583858506 3.043369560305584 6.343210508012551 1.0273701429373663 0.30789988797663104 -1.0101622636995118
P 0.6004692143493927 6.158825989369823 12.069506867837461 0.8274689290299168 0.8218760083231715 -1.0048385374937534
P 7.224071268588447 3.949917113010763 4.677501625773187 -0.4717249249868134 0.05863837846849901 1.055294123041144
P 7.090914439659316 4.33391903714548 9.30516530089577 0.1068041395404483 -1.1976414497935246 -1.3437400160582214
Ni 8.299538518169449 1.8649624865903676 5.06226856104756 -0.6449622564498312 -2.029398464675834 0.7492505715469613
Ni 7.990111151829428 3.518555575047059 6.762786385362652 -0.4148580365964404 -0.21177893918164173 -0.43670315749598987
Ni 7.890061161951366 5.894429535467909 12.122766793744788 1.7213828770569453 -2.4840281247432574 -0.6312335940098289
Ni 5.682050098176743 7.495865324097534 10.923213428001782 -1.0530639481590445 0.6068227692656323 0.3291284583381041
Ni -0.021137875034809735 7.709713059052831 13.642275313601765 -0.2507679188503294 -0.510461679435379 0.36908828656049336
Ni 5.939114415972431 5.7264544122486285 12.814129244832438 -3.259150164740342 -2.166491227897495 0.7618955140044813
Ni 3.316603856835537 6.062498180831401 3.7339118221884955 -1.1323117753477792 0.12843457332603045 -0.4945516930733418
Ni 7.0507747353635 6.333020335179206 9.54410128625739 0.7974566989385427 0.6265102203922307 -1.1934328110288157
Ni 1.705105085488694 7.358462589821177 7.769696291907562 1.2057779628577299 -1.2017022501264594 -0.44576243948478067
Ni 3.3528623921465526 6.355521763076627 11.998125156046164 1.0846070130726482 2.7740074236857253 1.6547062016650018
Ni 1.0873819707536183 4.881014228571608 2.1125371124128587 -0.6618927136565826 -1.1959064693802888 -0.08888406472691789
Ni 7.30226513336415 2.68250501464893 2.8655783528298056 -2.4807252856222695 -0.6558573060957801 -1.6716579990279918
Ni 5.246938322230135 4.803072873585278 10.506593785630225 2.3079080724158056 0.2009232274140604 1.1055540476379606
Ni 2.471678044951684 2.67583688576661 11.416607268999902 -0.02894162273501467 1.599183486007349 -0.9607297200999971
Ni 7.757933076608568 2.291152249979145 13.54704919592216 -0.6516016161432198 2.3070981749200006 0.36358149780965127
Ni 0.3069770861616648 2.744884284838374 9.106608436519144 -0.2752003408610809 -0.08059457102461604 -0.5815691369051662
Ni 3.74105410834197 -0.012032559074323603 10.99816862092342 -3.2501304777402344 -0.4453382074631685 1.9337788809972953
Ni 3.156596820303124 1.6867373363654452 2.8181355042924694 0.3371976084994838 -0.07686749988201601 0.0040592576710381705
Ni 7.61425500645558 3.282084833406866 11.130584754470394 -0.7223763728639366 0.6059845896350532 -0.17082126582235743
Ni 5.663972267700551 8.93366541699932 1.6680085917655383 -0.5972320402534037 -1.5667523620618373 -1.4754357766340267
Ni 5.395320556236989 7.3587805651114975 3.589490250989022 0.5176648820520374 -0.865264916831768 -0.8464868648933163
Ni 8.846615005166734 1.1516316838273033 7.505985355322722 -0.4633814381181246 -0.8184788097161647 -0.1607574538284522
Ni 3.4689327253281403 4.186359798007692 13.200881655228432 1.8639862856841898 -0.2971621898441527 -1.8764646206568585
Ni 2.1350637912892174 2.8622358713956664 0.8085148354777724 -1.069784860458151 -0.2417885981698546 0.8203582861270646
Ni 7.664298705823454 4.564731689060844 0.857190305875823 0.13649806706045522 0.3007910448459917 -0.9085054726879578
P 1.570302266821431 1.7960740751637643 4.364773862963923 0.2336970794109717 -0.9794172692071712 1.9790297824152947
Ni 4.122016562789796 9.066214351991071 4.219011184216448 -0.45787850602202435 0.6782814394272512 0.14686064124170192
P 5.999043405983519 3.351319276767054 12.673609417489493 -0.7439078191778092 1.842086657397621 0.494106120895491
Ni 3.9283789631987256 1.4682415508428102 13.185359784953556 -1.265224181939505 0.45862592571101013 1.4468165702354374
P 7.64286343037005 8.95492300037872 5.439165607886486 0.968007998928965 -1.414906608900718 0.3381111214526886
P 1.9995502043259428 6.293338889390029 5.9972898657795435 -0.08915737299296259 -0.6944724473648168 -1.437150765010899
P 5.283757990406422 1.541375867616641 2.0660940155971494 -0.44191555493486473 1.9707397744923607 1.066485620881589
Ni 6.238282403092389 5.389999146231323 6.868443027786226 2.5539377052502017 1.1350679979366773 0.6988644057849254
Ni 8.659486546812824 5.507818343509675 7.723663757304943 0.415655078576439 -1.0047063827912632 0.8408908588627775
Ni 3.491677310800513 3.8669910277379302 5.971994931434508 -1.2331275585152763 1.9830694997023073 -0.4808312581634558
Ni 6.215079559113376 6.474145250795204 1.3606340364909724 0.2037025899314105 1.4517124648751578 -0.6978112819300628
Ni 6.652744489596974 0.38414968912257225 3.650237559761966 -0.35810119142137037 0.7538826710023339 0.5484502428640103
Ni 3.9150146487908226 6.8798630168159605 1.3927860144496362 -0.49750306239218184 -0.3877087298751581 -0.4618835134163594
Ni 4.8162314392759145 1.274800347754586 8.384502450964662 -0.013504205134021905 -1.2568634686796354 -2.375494404106212
Ni 4.9672790543928125 4.190110035990596 8.151890432994659 -1.3453688099108958 -0.40702979880127327 2.5522939989991915
Ni 0.8436688742656434 2.7347371321913654 6.377430260579744 1.8367086809151594 -0.3116243880160698 0.10632231480802334
Ni 3.094703865263583 5.0435463629977475 10.454539360161792 -2.5421525396898152 -3.882182710996617 -1.7785603547092015
Ni 1.4440099632774657 7.21579455882568 1.900073505191901 0.3592520171963619 1.6017990692533253 0.2714971809778808
Ni 5.365150312514178 7.372715364599094 8.243298041526083 0.20763714909912626 0.03925457462524852 0.35102628685245996
Ni 4.02736280063277 6.159761210811943 6.786630791250958 -1.4406279249262222 0.057808683478352045 0.307408035941877
Ni 8.173414554485065 0.36320914581205 12.899172671450234 1.8530539550424023 -1.3712942715274061 -2.949241730974114
Ni 7.991953538070405 9.773344636592876 1.4157681461683078 0.0792858795155215 -0.10447189186284588 1.5270997806672217
Ni 0.7376437545938734 8.893488303845817 8.85208137449593 -1.2597050518934887 1.6934586398428513 0.670188892227104
Ni 8.385410550984961 7.62045552461684 10.856881911997936 1.1617617051777798 1.7021014031195136 -0.40065603406444544
Ni 3.534351465204476 6.937294965576587 9.470816398831378 -0.6197921849421067 1.270019289335303 -0.14622455031959977
Ni 0.6202126742140007 4.364444665016297 10.810315365951869 -0.2060461504629226 -1.730080404830943 0.7871674011973928
Ni 8.150520333581953 0.534391143356362 10.228469216179423 -0.6805578941662537 0.3870764956077979 -0.25689742878683497
Ni 5.837624185073504 7.647118687931698 5.934722616080233 0.24342279133916786 0.9151332624171208 0.00788891582977351
Ni 6.438793880283045 1.0298003865622531 6.393883611410971 -0.9344602448805067 -0.6294155669644838 -0.20909830702568505
Ni -0.060725798679774616 3.1379017436751337 3.613430984685867 2.6436123841992147 1.6378515920015082 -0.2953007111553817
Ni 1.4041882342719705 8.556537370464188 10.974487878787485 -0.24301321460557507 -0.0890604424037821 0.7740920560706733
Ni 0.42490757479163 6.498601291506657 3.8551183915302087 -0.30466955396479145 -0.22169645540566976 -0.21274773085281426
P 3.2585827185663754 4.65760853047784 1.5700441457034058 -1.0236875518794564 0.7547061953448938 1.6468319411232477
Ni 8.783019947102535 7.679056500180117 7.3900618519075465 -1.3512486657304406 1.6371540517138514 -1.2390526657504597
P 1.9068136461252643 1.082097969605637 12.497966413666264 -0.005090270038713814 -1.6734289748854858 -1.4819789770691834
Ni 3.5666820704585853 1.6037551378060848 5.7997729676465575 -0.4484896086079566 -1.0580932830528358 0.03304150383600116
P 8.998616546154595 2.9053495798774263 1.4898470365986805 1.6807612468808408 -0.4844943088373398 -0.6634500308413736
P 3.1606089202898215 2.9615937974065583 7.856395995699351 -0.7361006644285646 -1.0046148515187214 0.7497853610045087
P 5.450208702675046 0.2716172986565271 10.200696880234208 4.405635146264709 0.7757478465065414 -2.10808167761035
Ni 2.2737477789412806 1.3000326222629996 9.118872930511113 0.4168259589560886 0.5447596813863005 -0.11333808400422415
