# total energy = -340867.3795605582 ev
CRYSTAL
PRIMVEC
9.23358490910568 0.00000000000000 0.00000000000000

0.00000000000000 9.23358490910568 0.00000000000000

0.00000000000000 0.00000000000000 13.51428485954254

PRIMCOORD
 96 1
Ni 0.49271517921940705 8.590244256547344 6.064265022524652 -0.7112887475912072 -1.9099835783499104 1.318094547575975
Ni 8.030199621771613 4.168160333668849 8.289027168007776 0.8834197333639237 0.17956815877705204 -0.605206830928764
Ni 8.261777935130809 1.5225258409010298 2.65562430844658 -0.7200227850300954 0.774627359748853 0.2973740487446427
Ni 6.872585062527499 3.2214870251699828 4.0224996059546285 -0.0007121955756761928 0.37324241793818297 -1.3732688787552736
Ni 4.194300612979849 9.482245507893106 1.4350551662485975 1.4751308437990982 -1.6926870517841495 -0.5826235463116095
Ni 1.1747705602896248 2.5643697106356713 5.046396156403932 -1.3808803725539445 2.1358843016449147 1.745272024969717
Ni 0.9264425236276543 4.29413413467202 3.5132009079635664 -2.3830809582042183 -1.6036420359993349 -0.9356056713388597
Ni 1.0982795416346174 0.8578582238613823 1.7736008691189953 -3.02422178402543 1.2618308399872398 -3.0709826943300533
Ni 1.231640210687523 2.0389694870131985 10.65062181052718 -1.2241551798133368 0.4192029438286974 -2.229974593163121
Ni 7.948390058120797 6.561579450463524 1.2374850700318758 1.305983366134738 -0.40385114396297545 0.7650096341534309
Ni 3.5502949892338176 1.7277330353226714 11.326660587570888 -0.40215524431779126 0.7631301577425308 -0.06123853509550744
Ni 2.748552031870754 4.802452225929479 7.8450154565572845 0.24059689185459854 -1.6568746700712302 0.5103966305253984
Ni 0.5622939360968746 4.858703226128212 10.005084335019333 0.5040732594105318 -0.8567553366988601 0.19849173515443233
Ni 7.968897850543874 4.81079938682568 13.154318557077845 0.46083296066465795 0.14828014729704786 0.22395028443685303
Ni 3.9382994671312166 7.276591343337636 11.918261922655086 -0.0231772094474117 -0.764853825301857 0.19149679189383795
Ni 4.037006491445802 6.242863794872641 5.035571624635551 0.907607900574353 1.3759235427693013 -1.9168054863677506
Ni 2.232690101617502 8.80811992967428 10.751870840809381 -1.622336784195361 -0.34833305629101297 1.6505988643648477
Ni 3.679306639722441 2.952106414566267 6.394513425858184 -2.354953346730067 1.0963281581643183 1.3573789469978947
Ni 2.4323202106615938 0.39047815533555436 6.840674715911148 1.0361527742260026 1.2222127113749852 -0.9940082796474686
Ni 4.421114396446966 7.35660035790133 2.7387238039305815 0.4006182388479746 0.9407805306715796 0.07974405009886266
Ni 7.509314621244541 4.767022960045938 10.764654739327954 -0.8986625184556073 -0.2893563206464888 -0.566155116342941
Ni 6.939833262535274 1.8911397901678744 8.641330912620806 -2.048402516582162 0.4385708068323479 -1.1233463386243752
Ni 5.956576490020095 3.099732972540224 12.426101714206327 -0.24360353989140626 -0.17191501310716845 0.508124289551454
Ni 1.195075213841334 7.194818714027068 0.6447840149667728 -0.8701610685818046 -1.7720359233271223 -0.14022230998957785
P 2.9405644332385563 1.591916232643229 4.943511858207221 0.9715368380178301 -2.478166780866474 -0.3406727115322778
P 8.184335857214398 1.667022213538911 4.877657006185326 0.8284654886152314 -0.8875471252687361 -0.10022674343324675
P 1.8049073392722792 8.917916489648531 13.400021485506642 1.9975584373471018 0.35236274627569636 -0.9412623554040047
P 4.4671068836416294 5.845394892286519 7.096216029223685 1.1563058242695312 0.058645577557350614 0.27969102964258286
P 6.179493700590976 6.528532449526022 10.855647103323099 -1.4088076950918316 -0.6915722429988864 0.3375051124375736
P 6.200897150765083 1.3669861005287947 0.9854063511176525 -0.08021764730117154 0.9278725643606601 -0.832979831545817
P 5.959254229688123 8.60159233258875 4.364235512464006 -0.7712111349784524 0.9509806111330331 -1.0112213010916455
P 5.597233060155667 1.4688417773495797 10.827064540763153 0.789541300746208 -1.071574348258406 -0.5335059628493521
Ni 7.04147656689963 0.5982245856492924 12.320838844497601 -0.15312410565291049 1.7430616475819591 0.3415790253966311
Ni 6.819621218610897 8.875580502138487 2.0534957630330024 -0.8634196360929131 -1.1909887203636973 0.8244568816764705
Ni 1.8088685472639494 2.590842399008909 8.202874125943715 -1.63210080556066 -1.179581249857704 -1.3701814980792015
Ni 6.596870212571135 7.6797758350772405 13.38769649616566 -1.758860305177113 -0.12708962926236178 -0.861324187016465
Ni 0.6906296881589477 6.479852989078268 2.9788321031702094 -1.996679120065942 0.4839924295002568 -0.9535427154332545
Ni 6.809722815424252 6.577673589226886 8.718660340799456 0.7644470767817415 -0.12496718360272026 -0.3774957938978983
Ni 8.197650686874047 7.829322978744128 4.030337996313904 -0.056173976088406484 1.1545860133649473 -0.07361274039014419
Ni 2.171240593028768 5.0902261379770355 5.304221858660849 1.1396121656639342 -4.352349290357375 1.0014279691503074
Ni 7.5397762183646355 2.4138807412924423 10.708597644415526 1.776509899938076 0.15716896514624545 1.2292585624781733
Ni 0.8666107391418123 4.913366049696252 1.0085863430577213 -3.0227750242765747 -1.9137952387865167 0.747558528556519
Ni 2.0530784049881925 8.311805498997641 2.569673481895381 1.8240899637098842 -1.3692312183507904 0.719747676991838
Ni 2.4396516772009553 6.964948613904374 6.847904613014826 -0.18190349177844803 1.1392830644592895 0.18482400785935268
Ni 8.900141838403856 1.5611222264608957 7.04048303314694 1.2814288167238255 0.2797295961900021 -0.7716029711002323
Ni 2.3437054948199587 6.451967562190518 9.318059438468659 -1.719888809009922 2.0996047504875905 1.5569253486690864
Ni 1.1993688308952426 9.195681195488696 8.710997388556363 -0.5644345341074085 0.3079952759039147 0.018051972405704397
Ni 2.906187796052101 5.385894765252746 0.6906149144228482 3.3237133933337084 0.2322150955488065 -1.0686885420701788
Ni 2.1528934595102385 5.109995243595138 11.934735561764503 -0.014426716948291283 -0.2631148704514565 -0.32617220392325763
Ni 8.12529631432689 6.836370941913671 11.758036137863803 1.4437443590680168 0.7259545771334981 1.2463723393403243
Ni 3.2357806148462207 8.551176958149307 4.705079454656378 -0.2526288833184681 1.2227367021992555 -0.8819480339144036
Ni 4.5212064585208775 5.015941946151887 11.13845981011675 0.12843817287045622 -1.503616867053933 0.8288349561395082
Ni 5.9423013675139815 9.039402768311486 8.337097211841428 -0.48994941841464007 -0.39329933658905813 -0.8238989522904715
Ni 4.88819529681678 0.0545981884726047 12.619031010570803 -1.199759524577792 0.3777469906767559 0.032457092087440874
Ni 4.641123027723265 8.008186754983402 6.490897280171128 1.2682498561397062 0.5185267158317005 0.5974269298730293
Ni 6.983388083273525 8.431629732349405 10.435420183634246 -1.5000394341153198 0.7610339373351345 -0.9663478376177229
P 8.983022497921883 8.432737762556865 2.0823082418609946 -0.004106051748573574 -0.6352141759241319 0.45440803097492066
P 4.580366038014193 6.954773203165863 0.6012476613986465 -0.08495387643457626 0.7573243496940312 -0.8273480871813363
P 9.219309939662786 3.591245938984536 11.843121777494675 0.349488767162011 -0.18580925459075742 0.3872988960312491
P 5.07956134723023 5.331785956788436 3.19089800457603 0.6198058117888616 -1.2755227356520356 0.7138210270947578
P 5.163042189777299 2.0931613977430676 7.445884508659972 1.2659744298419682 -0.6878184323834089 1.302204101597964
P 1.8129590254464902 6.943729835431509 4.673807148767824 0.48210575400050515 3.3500954828716627 -0.9003689596237526
P 2.6948679683193038 3.3454386710445383 9.8554411620678 1.2828051282460617 1.9826162142149724 1.1174909082848625
P 8.014714899622355 3.848170443339386 2.1909496803439676 1.2048706205521122 -0.19542440908301825 -1.3918191309536352
Ni 4.503348705010643 6.284904307660696 9.265393839349565 1.5269560560005058 1.3618493240644225 -0.8194902816998145
Ni 8.744509762181 9.012089823697591 -0.06973018767248709 0.3235008277386816 -1.1791670451384209 1.4634667771976084
Ni 8.242932188018921 2.497721693656936 0.23349612897660846 -0.5472030007204705 -0.4017420680397726 0.3947291270570492
Ni 5.308831264323884 4.472693202604241 5.6574849727618375 1.589397610265179 0.03885759629714598 0.4173296380653845
Ni 5.688848691142507 4.289480407800687 8.26002540068601 -0.9349834643738284 -0.5538585583637751 -0.2722489715422408
Ni 4.104070019752335 3.2983381536424146 4.134046853656667 -0.8532504088693951 0.9296407120046764 -2.380480030246262
Ni 5.812929607207933 5.1509000254205475 0.35418924268272434 -0.9146655787520828 0.19929751888517935 0.5296251397377072
Ni 9.175293439671426 7.304956916648619 9.48182537977278 -1.5933234276821462 0.3985662414149523 -0.4614947626183729
Ni 2.835800177123188 1.371713696080625 2.7944300226106464 1.936047622426814 1.8832579894296082 2.1069323944972553
Ni 4.289812816862924 3.1768518749794588 1.3189899253756407 1.616642047803429 0.08546989683904635 -0.11849880226955722
Ni 5.351037981643058 1.6215283399376046 3.0646213419828205 0.955802715112025 -1.1644292247076138 -0.7851123184405768
Ni 2.8048307328246733 5.451739460331072 3.012036998412275 1.856296630349416 0.6242227099096346 -0.10977684901552706
Ni 6.924957957000119 2.7697892775137425 6.252816676211153 -0.25702032751794446 -0.88871903408965 1.9830543301936556
Ni 1.02549119058954 1.3921476198232048 12.68148051642177 -3.4958968296109147 1.3781755720282716 -0.7863888711601553
Ni 0.8169192777712442 0.5716752585200382 4.2287815896775065 -0.16549059763806337 -0.8891052137844752 -1.779075346672407
Ni 2.8056709890653306 1.6532734053813412 13.68280833826212 2.651778722060091 0.8482041046947393 1.4599546502792922
Ni 5.056680523446176 1.2211231573017125 5.444959238819922 0.6233991855670749 -1.2248218668630584 -0.11903487727868534
Ni 7.4897763552529915 5.538045779907165 3.4210875867418755 -0.2121185819092476 -0.09577230720631892 0.2230023187012869
Ni 4.272407509020736 9.024795236743136 10.068223589674446 2.454617532791624 -0.2656636050152393 0.4842737081861015
Ni 6.503324762306302 6.783416331582133 5.361954849262061 0.36124410792572625 -0.838648085575188 1.3275952879775585
Ni 9.294249716027348 5.9750067258041835 5.47262305966618 -2.3439145724174018 0.2902695764893775 -0.8045264613011306
Ni 7.290053910358278 -0.06270896959121386 6.098753386090359 -0.28796149718149117 -0.01935397904657957 0.03236864613869264
Ni 9.02178508801287 -0.011027670639748315 11.025400101181528 1.0268757197994507 0.330273884796457 -0.5496452916133759
Ni 0.481296927931529 6.020722205446982 7.736644562116633 0.2984253728272925 -1.5894809140076045 0.6064466168731363
P 8.171953619646029 7.306231151387199 7.132893675807632 -0.7730471597459266 1.2463026624446536 -0.6237601684509193
P 1.0954817653607802 6.8921694964443585 11.126189298927635 0.755860363553995 -0.27561428847004793 1.2593705513722053
P 0.9533584240838766 4.0720110124164846 6.661421282382251 -0.8656505823059608 -0.868711994840104 1.4674378460302147
P 3.479473391806982 8.344667828233899 8.272215579685085 -0.719897829416457 0.23579072871520682 0.5475292737116376
P 8.857704281458128 1.419488265192287 9.118520741916681 2.007018554318737 -0.6413495993979084 1.7210841148696037
P 3.7862961898377923 3.4615879375415606 12.706387188768463 -0.24997756173855012 1.448307295848351 0.3863504160750508
P 7.4824079543733815 4.717189301465412 5.684743439223867 0.015180821505496437 0.6307121742887202 -0.2733905413458518
P 2.408285188744768 3.450332197350777 2.169232288277746 -1.2344758450130549 0.25109393473118047 -0.34124066822060584
