# total energy = -340873.10596717277 ev
CRYSTAL
PRIMVEC
9.24223781309581 0.00000000000000 0.00000000000000

0.00000000000000 9.24223781309581 0.00000000000000

0.00000000000000 0.00000000000000 13.52694925918228

PRIMCOORD
 96 1
Ni 6.497875320979228 6.228149857731329 5.961245125410762 1.623924697507771 -0.32220936262076766 -1.7133934310935655
Ni 4.741498964595446 6.913424809690579 3.8306561123784912 0.15386304070146403 0.5731775704073613 0.757559862743605
Ni 2.729103383381962 5.51964916258602 1.4915492790843947 -0.35213854608003226 -0.774531200490621 -1.2442429517021474
Ni 6.531036469626894 2.695249066911394 3.876444930311916 -0.7390216947301015 -0.9451688895472625 0.9231394205510488
Ni 2.087738302444189 5.5813410988243595 6.93055899404897 -0.29290675700190844 0.20718592049432058 0.393920772223141
Ni 4.426384872303879 7.232716393394841 1.396779374337137 -0.07003762144437616 -0.8133564008879348 -0.37647763704602905
Ni 4.430127978547553 6.185644806830935 6.538277762816817 -2.214760604426844 0.08947284735085236 1.167486266366383
Ni 2.5124653331307707 3.920815988991564 12.691159761442314 0.16121870973558686 -1.4691990516956954 -0.14004284698892008
Ni 5.871186913411715 1.3365846805962667 11.544588092907667 -0.6785634894440442 -1.0059389696467838 -0.9773776130693231
Ni -0.21036534356580353 0.5024930666261542 10.267698100996014 1.046606622569475 -0.8971895334545065 -0.412813752472902
Ni 1.0023946098184162 4.019060975090974 0.8704515010645327 -0.9135396926777557 -1.0703649013313372 1.3348005474767461
Ni 0.5746379736338674 1.4951629940011275 2.9697333583194614 -0.5905363734007829 0.27841370559205597 0.4908436480941354
Ni 2.863199009281899 8.20338240139959 5.243573357856568 0.7217891329018989 -0.23803118800995135 0.6373080823386831
Ni 3.428694561443562 1.697050432980949 3.65545471035666 -0.5361104903517347 1.502992860316689 0.16054636625891058
Ni 6.930532191559817 1.0160823637613348 2.26627800070112 0.6904209030032625 0.10709673108020264 -1.657631345731597
Ni 2.4051075007196006 4.882581722150244 9.81934791090491 -0.08515416537084045 0.31325960962664756 0.06483885085225607
Ni 8.11895456057004 4.254248196283041 6.318532472271494 0.8584121555759926 1.6095555732702924 0.9366335983827418
Ni 6.02289824425102 8.375602257559176 13.376677784251463 0.081326306984318 1.1595937509921834 0.26601070394201287
Ni 5.20675320732774 3.5933635094523275 -0.3024115608809352 -0.8289509128920821 0.8545758125490378 0.44758380896423555
Ni 3.1122218602191047 5.324277501141483 4.60848283205171 0.7658902369861713 -1.5813626557758442 -0.19594274348033353
Ni 9.36312610701692 5.806518976653712 2.209803307609827 0.14295950641508284 -0.11098603883227982 1.387211714088611
Ni 0.08853786390748014 8.361082702228774 5.295070181755655 -0.42800100173630157 1.759386609994228 0.8729741125505673
Ni 5.218952961010827 6.420175829150655 12.45069060143973 -0.6501330020174932 -1.4767172144496117 0.0811365595710151
Ni 8.093732494054022 5.208638623806035 13.379667648127583 0.7966385739126216 -1.152170719055235 -0.4575722876355152
P 2.545820568768849 2.456078441297046 8.476689231732488 1.0507849223168808 1.5639115501789325 -0.45201124860796993
P 8.518468766978241 7.139138737302975 11.461965261088956 -0.1207451751015727 0.22252820727834577 -0.2912219131003178
P 7.629513381937263 2.0256674344626617 10.389765878832943 -0.7117924267005031 -0.4187789689174013 0.5661474030334571
P 3.6397318156856993 8.464346223365999 13.054912977755084 0.8332958201243391 -0.46487704882704456 -0.7845057952048294
P 2.973246332845932 6.619909826760658 8.600610078215976 -0.6775574167770332 -0.2045363986866155 -0.2904276993337966
P 7.731954343924643 7.177484781265952 4.115357697496145 0.6242828737236087 -0.6113260564526246 0.9953876764934987
P 5.365525607723013 4.375349236062962 4.488012112878748 -2.5348768319640085 0.6209286125393951 1.9723269164738229
P 0.21102154243815138 3.3035546638155275 12.60576333410823 0.6242139681588863 -0.1357681308729662 -1.5785892067957652
Ni 1.694961687274602 3.6468390964298614 3.1322460922871174 0.14807985836078366 0.23315303398204362 0.9908651060327966
Ni 3.5680305360846436 2.8646777673040917 10.681771604356465 0.8255755686619458 -0.4227189274017559 -0.5656923177739096
Ni 8.157263635582463 -0.06419750686219275 12.340933484137553 -0.7138580509802803 -0.05698387358421154 0.8370547729461391
Ni 7.018398144790964 0.5596295039323781 8.776122019422468 -1.0948286908006564 -0.18883390034969413 0.24194646390395752
Ni 7.1549059947146025 4.933155246509224 3.6196086916749515 1.3141057381315562 2.3863159202017483 -0.08385755804660397
Ni 6.825531129746516 3.431180723368373 1.4990428853618547 -0.021031109638686363 0.5003191916847383 -0.1576196795304189
Ni 3.5881508874240997 3.145318313203299 6.083447839917216 -0.608573690518468 0.3519017474788778 -0.23096965317747964
Ni 3.132637963162999 0.7102465538352603 6.857892824838433 -1.520664052344207 0.3196475154308624 -0.20239955484927077
Ni 7.688173864230109 0.459870639307749 4.51602625938542 -1.593202842943882 0.8200507821889746 -0.06889836563361038
Ni 0.44119947083004185 5.231272863783219 11.131258589677131 1.5333714726085463 1.08240332055311 2.1634660679179256
Ni 0.95598933463449 7.41474226368909 9.576741945560254 -0.2773677808260449 -0.4242700739389596 0.6989379393353382
Ni 1.172507235796378 8.337514996250082 11.95128906330372 0.5737421846615797 -1.6326649055942462 -0.43201655065359795
Ni 6.02289824425102 3.7547976742875475 6.673033284484158 -2.1415039618245375 0.5347876577752532 0.018574677678393815
Ni 8.137050861866621 7.311515711502419 0.8612203541109965 0.08401413822912628 0.2077104255392229 -0.9610847894465705
Ni 6.612922695105799 7.958555526350356 2.481532487977797 -1.004154109832219 -0.2331736028073339 0.4471225530571009
Ni 3.2169456549032445 7.705530786515592 10.541145413341019 0.14603788823009042 0.9119996018841454 0.48679827438016804
Ni 0.4401245985926607 3.1203642715788016 10.204959943456972 0.10536200777728305 -1.010668256801653 0.12459283098243704
Ni 4.671572194621022 1.58576464957333 8.426531608067247 0.5460791715286725 0.6820915572019608 -0.16245900990059117
Ni -0.25948044282539734 5.223241359275185 8.863857657102908 -0.8891491796485332 -0.22885389238605747 -0.6194263169622558
Ni 4.863505743663961 4.905123539751039 2.3470607030059645 0.7144807721659436 -0.4962882161484743 0.017439278522369966
Ni 7.18234619826391 8.387570955301296 6.654988739718355 -0.3055640407546028 1.0643330933149604 -0.7524420819010654
Ni 2.6961732906752642 6.254000396406781 12.343286557840365 -0.03123761785804298 0.7111676486323106 0.20833828893120895
Ni 7.362357260752923 3.0672768585820935 12.137934203969794 0.17402048948594548 0.8436470814516761 1.2950698045460276
Ni 4.342622472584316 8.25260655906332 8.275611412769816 0.373048556759822 0.23892413213786595 -0.40215267321462994
P 1.3034512586615175 1.0151396555221872 5.16480546335696 0.6109959268067154 -0.34114013808699956 -0.5611939156829239
P 8.616159218819329 3.606783238503724 2.7458484695357637 1.4290980699097517 -0.8828155241210216 -0.26657506108591505
P 3.4735656251794635 3.358998847410105 1.575889318656376 -0.7391934444212753 -0.1839431479162961 -0.3380653558164177
P 4.223462302708522 4.601229523952856 11.565757438219114 0.7296605652301755 2.0295316478195886 -1.0088160340842627
P 5.239692542272077 0.656148040040878 3.5538677311270956 1.245147722904604 -0.6801642582722608 -1.459042679987984
P 8.68354437344311 8.455584582084509 8.382190124548043 0.221800842194018 -0.5178206909036115 -0.5630543659304303
P 1.1114252872421917 4.336735167208462 5.497040800874225 0.023785018234739684 -0.1574636135685288 -0.8454802780056729
P 6.236338480279219 5.717775010846889 0.7866188603389161 -0.5011555715431046 0.8009729396219173 0.1746205849637896
Ni 5.7254922792752065 3.543557090817359 9.846536725590443 1.67554859233165 0.13949365935366945 0.9009240607962742
Ni 2.436549593166467 1.4601441555880827 1.3925316419183895 -0.5305677061566346 1.4601791075852721 -0.10491129339310963
Ni 4.156409868639734 4.098886181576448 8.285067146097973 -1.198964282370006 0.25470530623152265 -0.6455623519276752
Ni 8.776789308979982 2.710267703074286 4.915949896921016 1.2770725966376586 -0.5734822461319737 -1.2165591126336337
Ni 6.620732385910503 7.334057529103216 8.659899032668255 0.8369236466849135 -1.0956432162821519 0.1430844620287213
Ni 1.364089579809046 8.063491892500187 7.260914460430522 0.9093853041897499 -1.320039330007172 -0.22698444327748651
Ni 4.935317930116681 1.1320354771764987 5.578500034974223 2.185236112605166 0.978904848347127 0.27393073012003794
Ni 0.6974081615313384 3.331660308474823 7.47810334804498 1.6721688772261396 -0.22725132378562798 0.1055296437033989
Ni 4.812322231620826 6.121679280133474 9.730962543918467 0.7776512341768413 -1.174376308617997 0.5270576361208471
Ni 1.2086721116766215 6.642155892757017 4.754749560698055 -0.18145971937281008 -2.6524060712314452 -1.0118172828044316
Ni 9.270241618747958 8.42044559458216 3.0159685763308355 -0.8494207507106597 -0.906406166956768 -1.9153265878293788
Ni 8.925968266706283 1.0707686838695387 6.750136651985035 -1.090327203385877 -0.2281095580208652 -0.5456153445183765
Ni 4.632061628715568 0.3453315882513066 1.3835907012267086 0.0039700403913415505 0.8021903569687863 1.0393172879969133
Ni 2.1585061160437355 1.2764546825188672 10.314461050776558 -0.09464590691135959 -2.1978059788503765 1.2704939149788765
Ni 2.323868231875404 8.991560427228155 3.1355335562152042 0.05838666746900911 -0.26772357286806153 0.0945165804223469
Ni 8.795088939504614 6.523420865812602 6.623835929309579 0.2851116864375219 -0.3150071884453736 0.6897629577042894
Ni 6.481202324279008 7.813387699759253 11.055439893208034 0.2415093763665389 0.7400149118813062 -1.0629516395864018
Ni 7.875393872077309 2.7593347426981585 8.543742590025039 0.05730500436905614 2.430124946966899 -1.8455270505377377
Ni 3.7707867454025035 1.4905788441323309 12.920292392757268 -0.0011719088209141107 -0.23121930729444048 -0.9057147973166982
Ni 1.2529331877283685 0.7996744452273475 8.294211416017705 -0.41359099695855867 0.2191991429051128 0.7844636291129845
Ni 7.448051288138974 5.208426052340345 11.018605879322747 -2.071483823881658 0.7841175586274755 -1.121723201198655
Ni 2.0096598788724287 8.473828759183307 0.8938214231577564 -1.1123618145884133 -1.216729833883543 -0.6740388621008134
Ni 8.702546414028284 1.9938648947478859 0.7546037491584501 -0.5330812166071077 1.4397928306194363 -0.11229730144453563
Ni 1.1184216611346898 1.2495690132278807 12.54149743468751 0.1597146143862346 1.5256702473095465 0.7335527011957302
P 1.0149732952446906 6.072843296450569 0.14674270388473806 -0.668987672830151 0.721453346829035 0.14728281638078505
P 6.174905326694763 1.671865335415484 0.12801793042872642 -0.00535329389211336 -0.8531089981955243 1.2997733806692842
P -0.17146753801579548 -0.024164754530152047 0.8269723183170198 1.187786925596948 -0.3405220448870264 0.6902049303377145
P 6.865087906840163 1.8423106819484392 6.842228156264596 -0.38466582928377624 -1.6221902313151675 -0.7979554929518321
P 2.5743143874089696 6.8517606001651545 3.0166987131042933 0.3357896724083636 1.1593862629670677 1.3964229482742336
P 6.701306213644713 5.1253568204436855 8.437298814916335 0.1454719884242914 -0.3695318018558152 0.1298679633384473
P 4.9523513740848095 8.278179830609611 6.0382135562421135 0.052493441913025726 -1.0826588882073418 0.4894799349773893
P 4.377308590442367 0.27680686572667323 10.144548981355356 0.16683374192951914 0.5882581188895676 0.5641324294859574
