# total energy = -340862.5832693847 ev
CRYSTAL
PRIMVEC
9.39354483685023 0.00000000000000 0.00000000000000
0.00000000000000 9.39354483685023 0.00000000000000
0.00000000000000 0.00000000000000 13.74840238279391
PRIMCOORD
 96 1
Ni 6.925926298037131 3.693119085679083 5.386472731730589 -1.968818903320564 -0.3109206770808258 -2.2698930266246133
Ni 3.784452521270791 8.36125054209527 5.661083618914377 -0.1622255537335464 0.695352535976925 4.331710531061101
Ni 7.935985984231671 4.963539651673619 13.255329627124553 -0.09845525335512076 0.8343648848188018 -0.333633031076677
Ni 9.273880382156191 3.514087516313419 11.84973407348713 0.16936396455054056 -0.2549490468112125 0.06919969892411307
Ni 0.41761351566577515 8.094248426157936 5.388466041926265 -0.4190512487421815 -0.5336913393872809 -0.47875972034640774
Ni 8.561727574122239 9.215978572325144 0.07901755907167371 -1.2372570073026175 -0.8470401662936251 0.6378505851057145
Ni 4.269535172094176 2.4861331273725855 10.755361687046069 -0.4993817674721335 -0.5551374250761987 0.9898068399716116
Ni 2.708262280045331 5.042736627449994 4.9270560632241045 -0.6353303897870219 2.1771242821313086 -1.2123885261957121
Ni 1.7454239433025553 3.2338874700041482 2.1981223486047625 -0.48602565788020163 -0.5905623415427119 -0.6291458582428648
Ni 1.998551793646044 7.643283129861867 1.6562839004096717 0.3394604363917315 -0.4497782455123931 -0.009509996372964267
Ni 8.910754122805308 7.623425176263094 12.150466529908131 -0.5324667229515604 0.12296557979165919 -0.2567950988810158
Ni 4.204268823180138 0.03952240017572249 8.828797323581764 1.3732691358655897 1.5773386222181158 1.1490743395180987
Ni 1.3336766963323494 7.445285993648557 10.472391484390403 -1.303109901241685 3.5525850263315784 1.4969816211256026
Ni 6.328618968100907 1.4838137220509815 7.034562643055961 -1.9419202791575074 0.13508601720427701 -3.066373991913448
Ni 7.802400384360267 1.4219196557017315 1.736752762145021 -0.24999247413688558 0.3185900207006255 -1.44688547580016
Ni 0.3878416149392137 5.559672788516254 2.402849959630523 1.537867560706687 0.9422781982630288 -1.039278721449494
Ni 8.062498244907298 6.041815259833292 10.670300321283074 -0.15478632384668178 -0.5825654393801645 -0.6123652963504164
Ni 0.8645912522160178 0.500453308095699 12.357325536237376 1.4629916373334029 -0.0744815161483427 -1.4324587588518685
Ni 1.8637450329573066 6.198358683070545 8.891834584326931 1.056720313964709 -3.0603660951564713 -3.2233606658455587
Ni 6.842135878878636 8.140859195201037 9.322104022832644 -1.3080888425135149 -0.5762011877250334 -0.22398679410174327
Ni 0.8764383908530909 5.632726386026972 12.53315390684373 0.4526877058497043 0.601065812177197 0.129309519731816
Ni 3.2939404015826517 1.1615399888122386 2.221164713873348 2.146517355878729 -0.6292469025971034 0.7177149628325252
Ni 3.011166524012234 5.992856104603016 11.338004754275081 1.3267589081191926 -0.37878314525075407 -0.202923802783857
Ni 5.005059119462918 8.969125609873792 3.981881348026803 -0.0458283711880243 0.716636899276998 -3.8070987853775855
P 4.611788975013424 1.8469775555808592 12.774781240351372 0.7934954002979495 -0.20915409996428494 0.6476997099856523
P 2.7025416112933667 4.175646692330819 0.47608645301754526 0.15748032573907716 2.847593424602993 0.4370011483523829
P 7.464833960270623 2.514201039081731 3.7493131490748164 1.2424254388774345 -0.3380129053119275 -0.5791841816127574
P 8.21364977345879 0.5382632650637317 6.276187019377032 -1.3607663754128887 -0.6470929296395889 -1.7001437651725104
P 1.5176116960568402 9.230500992506649 3.2296237400427086 0.37145138747603124 -0.20428751590060298 0.2742521180151986
P 8.60621540205213 6.461537626295153 3.873062768239847 -0.3356688305597832 0.7369236745504922 1.023578794215734
P 4.703742384558547 5.6301713418553225 4.095965009645411 -0.35147622990568506 0.6644573890599653 -0.16783930037589803
P 5.357138570189318 5.346946574136967 10.49757839592512 -0.6521364056007672 -0.05682189408505053 1.671907910255269
Ni 3.11401644546586 5.342005569599146 2.3297766356758327 0.4014386778667409 0.27078421407125625 -0.0691297649181261
Ni 2.049925089876739 7.692589846247846 12.846603344145533 0.24812276791799845 0.6437075581071238 0.2587108278464899
Ni 0.7922440492704032 1.0975417684392774 5.31561346627317 0.8859952074005838 -0.030324104904838098 0.2820209633273401
Ni 5.477554420323032 4.253678868558353 7.068026206868765 -0.5663595190442633 -1.482928485466646 0.3432916372123636
Ni 4.625259318183075 4.759079756673198 13.314296664930106 -0.2524314225956814 -0.24228559241093112 -1.390878364306921
Ni 8.156743679371104 3.985493165982682 2.220257297450623 -0.7257918263033888 -0.6334064332914318 -0.7079308868625679
Ni 7.937658035196941 1.4513402378546911 12.196990878339545 -0.6985034229010809 0.38568655723880674 0.4226176259372012
Ni 8.46175207736172 0.05874441079500778 10.540033460771388 0.7009176887695283 -0.18012505972178655 -0.28559479672152754
Ni 0.514456265252601 4.049773192698105 0.32706913783295943 0.3153920825886181 -1.640220349344001 1.0406447485590853
Ni 5.6960294840885295 1.7956136528949127 2.936095193089493 -0.7921013481639003 -1.798424183512664 0.45207681173858266
Ni 2.2711336751641107 3.832284451131222 11.403255134163043 -0.22872790833115447 -0.4260379644726598 -0.6263263865161988
Ni 2.4800461103754214 8.226988607001958 8.099541688623836 -0.9610112558961579 0.0068820718318139545 -1.3501065817061975
Ni 2.770597842997771 1.1453173370312164 7.087205007182207 -0.11311156981571487 -0.5009894782788855 -0.45949033059383454
Ni 6.526475201142986 3.1981356386905584 12.04071329241868 -1.01859213963442 0.9959808299928073 0.29857552525191156
Ni 0.2956674570924967 0.30651700127725684 7.6632631995423734 0.5953415080989102 -0.7625899689683447 0.23193278842169732
Ni 0.16770013633529515 5.577304472009582 6.170571638349386 0.06630515098513742 1.6400280308275368 1.3360950979184538
Ni 6.533060076011831 5.549781385895862 8.779276434375515 0.5536523558902401 3.3403450883531183 -1.3951883045361841
Ni 5.832855856898239 0.8247269270114423 0.7035088681561888 -0.39789775459301796 -0.02306562357021189 -0.9589124643856002
Ni 0.020597225570496435 1.6559128553920976 3.211090276253504 1.7530560397905102 0.5205234345467551 0.10903868529792189
Ni 4.241561195832517 8.0122427805017 11.535116079218586 -0.04634439159249438 0.362461268162279 0.21326863635329077
Ni 3.1181214245210462 3.44519525912638 6.293345268215026 -0.15619503126875037 -1.5437975530378767 1.2835065251884605
Ni 4.569348939838753 6.988797293040246 0.247131950730387 -0.9889506626189032 0.17240223715623212 -0.2594158243333145
Ni 9.376767877788813 4.1686954692167735 4.594509549448173 -1.2723433094827894 -0.5951499609133943 -2.7379803548588395
Ni 3.822637280674297 5.702802229852349 7.3395569507294525 -1.2084809636111897 1.744904871438285 -0.5846740010827349
P 8.458116775543969 2.6706693139609934 10.1474621960512 -0.07919511957392812 -0.9081902554403842 -0.25152562295196035
P 1.674878422239743 3.055992519553078 4.276825502173649 0.5809605567868897 -1.3231017709825794 1.6386879718598746
P 6.401155920650445 4.403233494502564 0.7629277354641539 -0.6380408467396494 -0.11403922383630682 1.0181172568805306
P 2.0035585529971063 6.752108146007 6.209301223348318 0.849253629005176 0.26291098197076657 0.5466152465378006
P 4.846251851941226 8.507019569505752 1.645023858319393 0.20289886308319247 0.5519266314483849 1.285284957245122
P 2.067378296019842 2.9290011880952673 8.26192319992241 0.6551854768397362 2.1352075872928644 -0.7395284591631909
P 2.5165212446346623 9.350381410589685 10.903486615479526 0.4449862234403885 -0.6248528872944658 0.5534672364626274
P 4.924490686153232 7.849217811387837 7.502227783206288 0.9049054140415254 -0.09438365438890842 -0.6154501059233272
Ni 3.614701774116852 9.327310864686854 13.647475364267626 0.5601569897779772 0.31248030825846185 -0.21804137515158578
Ni 6.743475478382935 6.103944164801261 5.227156334083518 -0.43223020932630074 -1.1451960875096148 -0.12047572349026991
Ni 2.5446079434333053 2.3880833072855507 13.305483641246866 -0.5393577936444388 -1.9408941518858378 -0.5205139214650584
Ni 4.42722460779077 3.0210203524536308 1.2293905018866458 0.5498977739438142 -0.26688667878906297 -0.7603474527910712
Ni 5.732673702153246 4.111094252817684 2.991899424378155 1.5508626874147742 1.5228368916258095 -0.7108516600537886
Ni 4.328085136512885 6.9807376316458525 9.346782743596455 -0.018163044062271944 -0.778774292037691 0.49323837357855704
Ni 7.826194233208749 7.177090897528138 6.979664888835551 0.7595655803197242 0.23834897636068628 1.6774735772685045
Ni 8.706284834260138 2.725133086414014 6.281658759193156 0.6633165905873029 -0.8472610240551794 2.02510780772028
Ni 6.569497636092077 3.5135896584417377 9.495086149380139 0.40402520764699446 -0.2581176743471813 1.2175538724467352
Ni 6.221748609494833 6.396280670925864 12.20694521770975 -0.6858273700953093 -0.06782081629871545 -0.7034255427930466
Ni 1.6851643537395806 1.2009177283988308 9.233963453101023 0.24018422979721216 -1.304503696265418 2.0585372910233195
Ni 7.03056099299301 7.237322306456866 0.5011925800674225 0.479758079703935 0.589334896893514 0.2783782243684303
Ni 1.657847925610332 0.54661318699086 0.99109881611927 -3.2090308794864475 0.08070538557086746 -0.2978139644955387
Ni 2.9309550454029996 7.361176193968608 4.018218397178239 -1.23638617466189 -1.0894437723396593 -2.0705805953410987
Ni 7.4500485208361535 1.3366262693834445 8.787524906019357 1.868301368119776 -0.7854087666350732 2.1824464656751705
Ni 5.632745173116469 0.5036997171608532 11.161915243124712 0.3898106067095093 0.8658143615773347 -0.4128047536118374
Ni 7.588584518790128 0.10889184943599615 3.789541004461167 -0.7992911810441202 0.6909726617416745 1.1981533564329367
Ni 8.896288063892296 8.474743349749184 2.262532945592192 0.9645724908848547 -1.465153163761096 0.37849363903479327
Ni 3.109423002083741 1.0222525072783666 4.581434674512443 0.06992963511160215 -0.062335624814428135 0.5868717800650022
Ni 3.9165821217061456 4.147738470882402 9.287293424702874 -0.41528124017678797 0.8320552628490187 -1.4039549949852208
Ni 6.6544810354336565 6.823752711805412 2.95370715013885 -0.6011910249011517 0.45089410428439114 -0.3605761353244242
Ni 9.235047468165025 4.499122799297397 8.52440796019009 0.15012568514621885 -0.760259263952639 0.6022791157590078
Ni 3.7275746078173513 3.129590942659221 3.6636881706268998 0.5444889442234171 0.29435274541981565 0.8540003996615422
Ni 6.438636164197798 8.359616065308995 5.468523466401622 0.48336945120427716 0.7587731663254158 2.1819451005587194
P 4.959547395155418 2.4933191891053488 5.613898904287133 -0.9364957872532969 -0.20016526620211333 -0.4840615921752954
P 0.7244066871586441 5.377315904309547 10.457391872135663 -0.20046659949261603 -2.0052678901762175 -0.3230549984505146
P 0.23728469777031427 7.084292068955632 0.3517807360033909 -0.2902914308662484 -0.0753664898564573 1.591967427874884
P 6.883664740212684 8.558383472191698 12.174018025302097 0.8262939348852093 -0.34723519524114393 0.440244594990345
P 9.30615660191276 1.8393875714239014 0.049403469896890546 0.737077426519537 1.5639974250245194 0.8654839748211094
P 8.968965919613064 8.100213327073368 8.97919173242651 0.4874289659856315 -0.7749505474162266 -0.5267879273992283
P 7.639084215359194 4.668666888466864 7.038646016958225 0.9174716807423103 1.6680258015920433 1.035153643537527
P 5.285803991367614 2.030583781239145 8.921970954589742 -0.9846607769942977 -1.4266591214509559 -0.5199212821863819
