# total energy = -340894.97493949987 ev
CRYSTAL
PRIMVEC
9.05354270778864 0.00000000000000 0.00000000000000

0.00000000000000 9.05354270778864 0.00000000000000

0.00000000000000 0.00000000000000 13.25077489897505

PRIMCOORD
 96 1
Ni 6.316303563901007 1.9684302794149608 11.416867554624801 0.9579917523435436 0.44211018744417413 0.41704398850416563
Ni 4.645010551679183 0.5147482164391526 6.044116049326117 -0.4968533446233249 -0.3874534193312424 -0.7821457796130852
Ni 2.560432374615815 1.6785086856512246 4.7937991863602365 0.4497972716757866 -1.137278889545067 0.10551858795980536
Ni 3.3841417848463444 4.061075162909441 4.772677271541176 -1.199102093499451 1.137597963447383 0.2870721525980024
Ni 5.126595641679322 4.697973775721836 2.862723823594846 0.5102768171180825 0.516452349801175 -0.8472795359979407
Ni 7.2002733534867325 6.250764969226689 2.7446194553967596 0.7156477958908514 -0.444055484096003 -0.5394177003480968
Ni 4.712432283208352 4.431002912376583 11.746268931479614 1.516729236066175 -0.5488801313125773 -0.5367044151819919
Ni 5.808399825645829 7.776413642102505 12.32466445754992 -0.22449047321103915 -0.0678760950166831 0.8227980059168089
Ni 1.953826915247303 6.427245674570864 0.4522353156921944 -0.5014309366916783 0.5661743996166507 -0.24321761730689725
Ni 2.8259818317773595 1.547214211280875 0.2539084121232469 0.16092714663709706 -0.5474966207014894 0.34612139335167486
Ni 0.6816774343705072 8.98001875217128 4.410176143045349 -0.45854313618921677 -0.30212904693112486 0.14988091612526447
Ni 8.500787583239704 2.192052780928382 1.318796953621644 0.05303645890068931 -0.3723471598174232 0.23372716131795873
Ni 6.894870201925913 0.870260915424121 4.87000466489217 -0.5355934415060002 -0.5891904008958498 -0.02045569675119058
Ni 0.5272647390441043 7.5318502966214504 2.3166729837151 0.74323367592892 -0.9190238557207785 0.40673617882025437
Ni 7.678191758745457 3.8968348471217906 3.677646770759838 -0.0158711627043017 0.03172664167931956 -0.13246529175197833
Ni 7.716669314673879 3.9582721870112674 12.629287193741083 -0.2609785408347441 -0.3651940937124098 -0.5000980768128678
Ni 7.995645175468801 8.973301023583307 7.088819717661592 -0.9992139922181243 -1.128748997697185 -0.6512689153941494
Ni 6.910858758106994 0.5482526614331088 0.3341807419782508 -0.491934824275785 -0.4791302163119491 0.5860328291034747
Ni 1.9507668178581719 6.586153453783964 9.096007307470433 0.5708149837124555 -0.3829915269051469 -0.6162846860094805
Ni 0.001911202836821182 4.468774291984436 1.3957040817028608 0.49203741129192036 1.6778790402370392 0.3446190977745355
Ni 6.413601985915775 1.9836311773923305 6.992394057150708 0.9785052989158634 1.2737219349978708 -0.19132504220266405
Ni 3.732712227387568 4.507577775445429 0.8730539333073959 -0.8761473680722267 -0.7220932944058789 -0.6777808456417489
Ni 6.070961613758813 5.806987473004691 4.847080189747145 -0.7550630644636802 -0.1667568659449967 0.14655725106867015
Ni 5.361535071406985 2.9954369880861327 9.333779590668684 -0.28964608397276564 -0.04392498351772436 -0.5748737271628616
P 0.3209761501378733 5.549350812050545 12.485012655386127 -0.36960687806812476 -0.32744978508410055 0.004921605671333459
P 3.8822043223264187 6.171501204014139 12.698097738700705 0.9915127669191248 0.3921197144586602 0.5800755830787752
P 2.3479728910929216 8.527124338579888 1.399414223448618 0.6104277130080712 -0.6088272012901709 -0.056215113738987056
P 6.266907435631484 7.887428181112933 5.818958066992588 0.20177811921518796 0.5298503683746358 0.5933866983653846
P 4.8497383098461055 0.7679006577576881 12.707705358077469 0.3427802447935838 0.9461749622142739 -0.3993427145696606
P 4.046200192464642 6.123463107130324 8.235436398660474 -0.3746629524347935 0.7537662000291276 0.3349172971057393
P 4.6596863441874135 1.2697140779250908 3.86189813169304 -0.0018766481974225745 -0.709482547620404 0.7133273752877909
P 0.25122584745934295 5.528799270413481 3.406853501740942 -0.8699867477874695 0.48946527968936987 0.8725619647138133
Ni 1.453817866114379 1.2080866136416148 2.392202162616951 0.19660223144120334 0.12997209301647938 0.46072137478745817
Ni 1.7254513038839003 6.457131418599034 4.809474489968348 0.7692756085186364 0.12138512267841674 -1.0139669821575827
Ni 6.006898746523633 5.573876858876449 9.094470015941809 0.16718829705546046 0.24672125958478153 1.4003371957269752
Ni 8.6496006624857 2.1575587837313726 10.366518097141805 0.5198816871976982 1.2051040767191568 -0.2924377877852899
Ni 2.4894888150263745 5.335958813642797 6.938013048341376 -0.7536841818382827 -0.7396778402568616 0.01602542889397885
Ni 0.6174869121850697 9.056258634164985 9.104196236726256 0.23911619354401398 -0.4457966351568258 0.8118883009828404
Ni 1.6156318324928962 0.9354301255615262 11.438426755550061 -0.3667349558369684 0.5266727419776026 -1.0080557588794703
Ni 3.9771397697300515 6.837814776640991 1.850602949619559 0.6286270096249175 0.6115474284348114 0.017266500389931553
Ni 5.423669534074459 7.894788711223476 8.078997520506592 1.1642986126670205 0.7045737974648769 0.6648214572676033
Ni 5.498098707553885 3.28036102635046 4.644197543556273 0.5412161870094162 -1.6365043339449945 1.1053162205955416
Ni 0.800239911822706 7.326579325900244 6.743770197826383 -1.094156090213664 0.30503285084148113 1.2201792258847244
Ni 5.079010221924077 4.615151968278728 7.066956317705934 -0.5783084638760234 -0.658132475283202 -0.453061030028723
Ni 8.125536350740584 7.060531923897273 9.098790366456878 0.6441603293738261 1.0836338505261016 0.1193567793944783
Ni 4.748365793674213 0.338301009202492 10.455629400609261 -0.7124861103334181 -1.206866053715586 -0.961947394557182
Ni 8.071794522036791 7.3470041179413075 4.804055039385112 0.5108411742619847 -0.4445025989357506 -0.05063633409962892
Ni 7.099987262423406 6.2109112748274145 7.023348119202303 0.7564172644987295 -0.035435715099790585 -0.2294017944697275
Ni 2.236913084369637 5.220815859219814 2.6236532623918563 -0.009409723349674116 -0.48615884102395623 0.48937683374062163
Ni 2.4132579865752413 5.238877676649745 11.425983566639937 -0.917055162030182 -1.0077438840660065 0.46918827460788876
Ni 0.9794665566287846 3.2617016751108174 3.9115885000961335 0.11540576516653027 0.8266353773850279 -0.7838162253369727
Ni 3.6371611390890806 2.792456563635489 2.6994739653645055 0.09662257102175617 -0.3269736167786304 -0.31003673181397573
Ni 1.181496359109432 3.2588226485731147 8.261619243776943 -1.420788778713108 0.8323799931782891 -1.1217519975540617
Ni 3.605681971568345 2.6941441448527264 6.852903410690476 0.38712843189165586 -0.20108263581006017 0.7047517178036379
Ni 4.1870461542478115 7.111602957542504 6.170064406808058 -0.5682919601802857 -0.7252770914504993 -1.5264904292179968
Ni 1.0967008793857598 7.1348977225787 11.164162358309293 -1.0935631938246715 1.5733323292722001 0.816240150193633
P 0.21200137426878032 5.635323252308497 8.007801367079411 0.19222055743373992 -0.7669701003139113 -0.638855629331461
P 8.49309207205402 1.7292085240510287 8.145728466737562 -0.5152968960404932 0.3261326089345738 -0.03136925833990081
P 1.8093052151801474 3.1471653080401176 10.304425280770161 -0.14993876594639338 -0.4030394466949575 2.3438477237352084
P 3.847040362979126 6.121471327764618 4.114616908322406 0.22203301280948212 0.3525077564939929 -0.809030005598439
P 6.745649713264204 4.072835714709682 10.6225631453119 0.31700853514611854 0.23870635970010504 -0.2373274770747074
P 6.4375304989319675 7.838068267013695 10.175004889712088 -0.5048862422301305 -0.39582313145217635 0.3283129044153443
P 2.2137631760145835 8.602848168647025 5.762192355069949 2.3046198885828373 -0.20572656233997472 0.22541889856257952
P 6.851612375519795 3.7981693401787435 1.503724614184929 -0.4955343687015853 0.3801679414134227 0.4788345394484011
Ni 5.258505756944526 2.695701354175006 0.34647092601891755 0.04973696221381112 0.43283827522394486 0.38382919231509377
Ni 1.1249388786659364 0.9535372107043133 6.981250051599579 1.3071797004356842 1.0197594204696439 -0.5294456767370495
Ni 6.835442748487286 0.7313333993118295 9.274455347615369 0.09761578817296092 0.14241546098615473 -0.45883238529486137
Ni 2.7328751999731478 1.643507690070217 9.057381273443838 1.024508762229171 -1.3297503866473486 0.15082991030209508
Ni 6.337244407868641 1.8865681474844203 2.6222490579390327 0.15341361186887129 0.5426614040963751 -0.4094412364562433
Ni 4.407391273350388 6.682591789254448 10.612625071631282 -0.4269553340806066 0.6313490365417707 -1.1001537025579957
Ni 8.042062688232335 7.032375406500239 0.37751280743345467 0.11956298186801345 0.05136986983154379 -0.16569859988381141
Ni 7.621715760185103 3.8768717857518675 8.29547496622267 0.4222283609185825 -0.29225549657115474 0.06360754954831627
Ni 3.3671935531526955 8.334039436159777 12.323432270405954 -1.3444339568014523 -0.47540751604472314 0.3283255028208345
Ni 0.30050246896692384 4.915421761201566 10.014657597230135 -0.3513543596158401 -0.6427014854401124 1.2101457529081223
Ni 8.586099114889945 2.430559306429174 5.788931993054561 0.07316408288849979 0.5071647538516622 0.3319687560003767
Ni 3.787422785146499 2.309649245388213 11.274170143385783 -0.7621909337577132 0.6911531531835967 0.46602710327108776
Ni 1.2412497400806295 3.275761826724192 12.722174729815068 -0.8815590260061011 0.1188297032464147 -1.5922206815362707
Ni 3.086289287790067 8.45605402939445 7.91279258598095 -0.304298800888934 0.5694785242892192 -0.23668804371849564
Ni 5.427807003029586 8.091667047981002 3.6627527878756383 0.31303978030635765 -0.22414003185015594 0.5134068781066319
Ni 3.030121109677142 8.49198753986031 3.576675326523857 -0.31805523124307805 -0.18088559203689494 0.6972911477605347
Ni 3.3203686309734484 4.384594453155619 9.422837478234968 0.9411469128720629 0.008478726894972496 -0.9773385323012715
Ni 7.415512274579044 6.205171328837152 11.331240959693075 0.2972722330594558 -1.0701638410641245 0.16367796990935682
Ni 0.6455755280128184 -0.20796439963619595 0.11434443196818647 -0.32989207597700604 0.1926260204022747 0.22968127338335928
Ni 4.442609553953109 0.377833302840482 1.7320350400418179 0.3135858826178148 -0.31600143403784287 -0.5449959657668227
Ni 5.871349107144728 5.599009493054638 0.5478932357930245 0.5419258114819312 0.4505308074077016 -0.26077285258184124
Ni 8.238243902211861 8.765911523900394 11.319116455481463 -0.5224854433691324 -0.4128551472337987 -0.29024309412681626
Ni 0.014970937996056404 4.928938700260658 5.926501477781144 -0.06467224336740475 -0.07046545301041414 -0.410428540070177
Ni 7.730150039562684 8.848162958161504 2.777693857118575 -0.37456936427972265 -0.35497318731534994 -0.93366705955525
P 8.604414431511875 1.545602680703167 3.6413791845730925 -0.5814778627429406 1.663126307407897 -0.30636339672744656
P 1.915177342010024 3.1894091376782403 1.469259588324148 -0.12114601008441718 0.44149158002356864 0.7206118247643462
P 4.8442065953349855 1.2277509081066817 8.125295526508186 -1.3540287995787392 -1.0038630609543615 1.274569884820463
P 8.47093805338182 1.561292469979392 12.445883244392565 0.63720600954318 0.021451227895240475 0.21802646275325033
P 6.166404059546445 7.726410926480698 1.4933619293577118 -0.017584031630350362 -0.003540151942774548 -0.11061322887389337
P 1.698598496617147 3.3172723194140317 6.095104695733949 -0.15311742078469112 -0.12038753465183782 -0.8714905860265056
P 6.911755058821562 4.088054719772194 6.101995346985036 0.9879592452399114 -0.08190300542339443 -0.6931449868026449
P 2.637315058132089 8.463025257174422 10.076445309217126 -0.5387489564158464 0.8090665152633292 0.7594182561085825
