# total energy = -340865.84237751056 ev
CRYSTAL
PRIMVEC
9.30777283546368 0.00000000000000 0.00000000000000

0.00000000000000 9.30777283546368 0.00000000000000

0.00000000000000 0.00000000000000 13.62286638879717

PRIMCOORD
 96 1
Ni 8.426996632585517 0.6644437191718835 -0.02919755165474248 -1.0970606654549686 -0.40229099856470724 0.2725017109829952
Ni 3.108004864928221 3.3300231631272617 10.102349149431886 1.7973126956160401 0.3338952835991282 0.5875083852077366
Ni 4.634200326953827 4.848241864093187 7.49677226110222 -0.33777302138697957 0.786976111122193 0.6991881076729314
Ni 1.0065704448974517 2.39859436587836 3.549628886686082 0.006103284684260457 -0.5257510014942817 -2.134350124388576
Ni 6.709312366264902 0.8636877595403201 1.725744797333083 -1.3040470683439733 0.2566917405339321 -0.4464450673741021
Ni 6.959598369642767 3.321404165762892 2.3477236658835148 1.4929750710693708 0.22788484360456882 1.489472714343067
Ni 1.3265809723104076 3.342653810452802 5.417732341782761 -1.5784567949829589 0.6105164160671357 2.0987205481104243
Ni 4.13402855441696 4.850289574050165 2.502520300081244 0.9551995343103872 -0.27022988422968297 -0.35563396082780047
Ni 1.4029326303880805 1.436840845721125 13.225445636743032 0.8123716683771622 0.057743891678687646 -0.6851881938494134
Ni 6.357599565608918 7.002041812387395 12.968014987169822 0.7212497154586611 1.8083036474099052 -0.49235134298791333
Ni 2.2698678717647165 7.354964623472501 10.22074587758983 0.8254125607215204 1.6301691357555863 0.6832742646561523
Ni 3.4521132154257916 8.000365570821746 5.451244046005955 0.10699337273311897 -1.0028212499534084 0.16472595155789696
Ni 5.714739640160833 1.4756356416333207 13.209412067779896 1.9798576776332288 0.7536127051703989 1.6196846912844942
Ni 0.15964505290950048 4.534737469679901 2.071452223151603 -2.2791312573934297 -1.9814764441835746 0.4040714875038977
Ni 4.153574876733566 2.584014502482691 7.396399103674692 1.0321125427183577 -1.0174986494599252 -2.2029618120197028
Ni 6.087897548729892 2.7280336668659455 10.897325070588565 -1.8707675702720812 -0.18938617330873833 0.1250350607261782
Ni 2.0416878281496786 0.3300610601927037 9.065649444849267 1.46249772841612 0.6645574049729392 0.6209630653217563
Ni 2.1788564719495893 5.925644457957004 12.122144165809713 -1.0236250740726371 -0.2606106159723641 0.02655281078786395
Ni 8.989148862411087 4.821658865742603 11.041454997464948 -0.8895713547876164 1.0519848561622527 1.3508789410958475
Ni 4.189130567804725 6.87564226140668 11.674455199470184 1.597359545424733 0.43791183309211035 0.1853431135876163
Ni 7.494264747182176 8.538969136142072 9.881209504959838 -0.20012747098564243 -1.3051953230158038 0.8473134745596697
Ni 0.9725970751566853 0.2064361562036941 1.7478135260057839 0.12264753433060814 0.736661679138357 -0.17692403628598563
Ni 0.24957675111094835 0.6673095823343991 11.253209614893265 -0.5030245064310434 -0.7864194672877746 -0.05285211080402511
Ni 5.263964216449787 9.259455884504675 11.63132577388997 0.2977208905611001 -0.7704392898094344 -0.6417689463235141
P 1.4101554618726928 7.609569433305083 5.696932940530405 -2.068425753781625 -1.3068246310891105 0.0873624858760689
P 0.16483599765043896 3.8843010173909986 8.42361698037925 -0.6088526552114675 2.0886793618243384 -0.35061439612602197
P 6.901192097006243 6.616253256492796 10.772431517203485 -0.16510904592892853 -0.8296152859489584 0.5439376997056374
P 9.051222397425105 1.6872664656869658 6.0828136433730675 -0.06239321752524093 -0.21427368057903742 -1.2687805318321956
P 4.547712504589114 8.415520149053911 0.10490604265047389 1.6350182363177712 -1.691371161186203 -1.8229501936784864
P 2.8605484243999975 1.0261539983041839 2.8809231384719256 -0.8958790421731989 -3.339376039571629 -0.14603814534040654
P 5.9455165523122195 2.8611348140694957 8.548974991613667 0.3733066955172151 -0.16094874390365183 -0.5637999858472031
P 6.293943709264506 3.5484207378114654 0.33942561013686395 -0.6414318746990696 -1.3492308639694635 0.3748056486602448
Ni 5.530352666307523 3.893627405467779 4.381004713882548 0.2709343664958754 -1.060107485269387 0.21809871075208245
Ni 6.781103215802033 6.044672253092599 8.63283709134718 -0.18650499510620136 1.028603501123835 -0.41817707366734436
Ni 6.141203162019033 4.696273861967846 12.266450940364198 0.4744397528148152 0.8241300944646711 -1.2195199950341709
Ni 2.951569131987656 4.392710168618435 0.17559764425160992 0.5273003482592725 -0.08126357206718263 -0.3455943172036112
Ni 6.079743939992108 6.603920457888271 2.6522628137942514 0.5051163559630656 0.35127491252815635 0.3979229514039985
Ni 4.993592039948477 5.265593076642837 9.932377122898444 0.29480345980398903 -0.25726355387700206 -0.02353176457335302
Ni 1.7338332516631452 5.236850675064896 9.655765015691873 1.0051385852326753 -1.6637271742166895 -0.5040061536180223
Ni 4.866056940718893 8.27510309264043 9.499156158182219 -0.18612447183833106 -0.7175290720739642 0.6191784626175078
Ni 8.334523912482911 2.6432119357844095 12.407583764485366 0.13285764209439055 2.1910545190591555 0.22150542244078625
Ni 0.2282088977098861 7.3615731419700206 11.376455692540233 -1.0607358628820054 -1.1292130818177972 2.1586275088787015
Ni 8.457833282983096 7.635016883406797 1.1583290221408284 -0.2172965265657613 -0.03035135859834773 0.4081292025130391
Ni 6.77306130033463 4.284767930568115 6.833638145525549 0.8128457798001032 0.6965308725557423 0.13302167847608057
Ni 9.20386055917273 0.4807948516803385 7.847247128011484 -0.9755328465511007 -0.6817519144743549 0.8511696150809663
Ni 7.593048137061286 7.10155120852398 4.67844668523785 -0.7771994913514034 -0.7994241070775586 -2.141452796871628
Ni 4.717272196799399 5.860713436775748 0.43398234050932194 0.9316693123989309 -0.10020874571111774 0.23427712028415784
Ni 7.7834107008799585 1.4303812515841134 9.50866497860062 -0.19734142360007303 1.6113311771134764 -0.10493417621124507
Ni 9.087904328972602 6.229003380310718 9.204384586766265 -1.4101441545150681 0.39575396877713775 -0.7847631626312742
Ni 3.8732806147134458 2.458173417853879 12.449405448024876 -1.785099698489616 0.35052312196379637 -0.6903450554600047
Ni 2.211368521402876 3.368054721691857 7.880433060196069 -1.52414918267933 1.3011939151658947 -0.8199188845968007
Ni 2.8792477394162166 8.805394817089933 12.225759220410037 -1.0312152277150692 0.6885892491111625 -0.03931088178448069
Ni 7.546434812222448 3.856182236572682 9.56340212730514 0.6952898010597897 1.0200185876683014 -1.41856117493417
Ni 1.3292336874819468 7.571584413603147 7.978135817684246 0.5650035192370012 -0.4372777990525372 -2.1014022087076456
Ni 3.668956392097198 0.8339447724152189 0.8123097859424963 -1.5839044483610913 0.5321844158244513 -1.1142258643803455
Ni 3.7424319484625705 0.9281375688816867 5.37495661155875 -0.8284022394774636 2.1596176407061134 -1.3288936950740082
P 3.2327569401708214 3.971384537197741 5.532109973761511 2.9822153576866577 0.9587065190223811 1.5279191912447234
P 0.5899014920743761 8.412327583075532 13.269434169727926 1.3182832665480135 0.2696616704310388 0.3160358868202041
P 0.3638194203879874 8.434470773928485 9.651868782110096 -0.9645956308133065 0.6353887538287831 -1.3795133170030887
P 0.12011587374455235 2.2718038884513136 1.2461739177406657 -0.3876164272716679 0.3344061617972757 0.4335216744442147
P 8.941111448374896 4.987774682116154 13.412406209701361 1.122808463843034 -0.6023343944769755 -1.5965054249545536
P 3.684602757723014 0.15741211827914164 7.442784388086503 0.8633077931053972 0.4444738025803442 0.5410572928340488
P 7.472279788462259 8.69672657278214 2.905334633490859 0.7325810813110802 -2.4261371659637443 0.5946457675834662
P 2.4071761321526033 1.474937558693442 11.029290669543245 0.7253735078190475 -0.7119536348687158 1.1603095461122857
Ni 0.23555831490092966 5.6295269826329655 4.419461637651842 0.6717271832485012 0.7067767186534667 0.5710988335014616
Ni 1.802924847166079 1.1005882552403232 6.785358729403534 0.24859739356157187 0.4916671724366952 -0.6151971093722566
Ni 6.7901131396127345 2.059921754539312 6.160015101082886 -0.2313630319611564 -1.0111971327219293 0.9431554586616595
Ni 1.026051612806335 2.4359278415030765 9.732284213675117 -2.1671466020933066 0.11161724465837551 -0.00853066317883047
Ni 2.251270942246346 5.419013091283126 3.5765879190469465 1.2985323091733314 -0.6998925899391236 1.6812227598982918
Ni 5.017522323127521 7.642649256882804 7.2241103725581075 -0.667351936998941 -1.5197309990069763 0.9765774857655312
Ni 8.120789531837097 8.900343404685977 5.797401037237757 0.7961559778492482 1.3960838197672603 0.9370249202838894
Ni 3.307526276918102 2.7690157893230944 3.7173940403522527 1.849663955524247 2.822736770570629 1.3308780724938885
Ni 5.137480895516287 5.965984344109464 5.3942460393534795 0.029087661394575713 0.8616751425979805 -0.5094730902698644
Ni 2.7951892456822818 7.137106899595137 0.6086724769390894 -0.7047085232705282 1.4642419648007363 -0.9201993640861185
Ni 1.1716251752023858 0.03319151684810217 4.373634819591934 0.029962864910677428 0.20942869378191029 0.41576949266711616
Ni 4.499498242874822 8.671148813864981 2.3501213480876855 0.5707041691662043 0.8548529774698245 -0.572471288368956
Ni 8.403513122487997 1.3009287512129961 3.2315888147180907 -0.3860848211184899 -0.3714166775833539 0.43465167428359974
Ni 7.277691495914188 5.372716230710366 0.99107207285489 -0.19061978860552334 0.34309469071020915 0.39198113199826684
Ni 4.934943765226129 2.489773305599058 1.77123095091833 -0.9308766412943066 0.857503270608478 0.17262052381462528
Ni 6.389199453354096 0.18518744229103778 7.953983078741694 0.04268339780113939 0.6762443543925645 -0.31062294333474894
Ni 9.492159505570127 5.455359943019479 6.64519298284841 -0.9628583364072256 -0.04511463295045134 1.961850185312215
Ni 2.532728675832931 5.7715263603768365 6.711441053842905 0.3506701890646219 0.3944643034314368 -0.3959313748952665
Ni 1.240381690894178 3.778415797070188 12.146855371104168 0.9293131534619287 -1.3155676673890633 0.6283051075091244
Ni 2.350566259614701 2.6585604526892106 1.4875356288151205 -0.7214893422732929 0.7793137094809288 -0.00831546184423084
Ni 5.647081441627782 -0.12498290800138706 5.67320184368354 1.7969951643756212 -0.30484773141386856 -0.8483442298170292
Ni 1.5868635233873365 7.542655856574571 2.6886636506112893 0.2651298439989563 -0.9972761517654632 0.6458433735032038
Ni 4.485154965403446 1.3449545152880165 9.284678086511121 -0.14071364780369958 -0.8664638222358755 1.2320847190730586
Ni 8.252317665482789 3.2365545113637615 4.745498017001831 -0.17891432724313702 1.3373323127596646 -0.4985852397127672
P 3.5943639030280194 6.613656387956447 8.796052605799849 0.2539424599235691 -1.3429931105898678 -1.6214430687364978
P 7.028019805523416 6.858683499853893 6.671703380573246 0.05093689605918324 -0.02510142305331806 -0.1279694607641538
P 5.915303522674265 1.5823213303918588 4.261913625893737 -0.15572117695612536 0.892873679687972 -0.9734880482069298
P 4.028180565186277 4.551882386683324 11.678419379791443 -1.03928232099392 0.12128742075828787 1.2670779473187919
P 4.232681635480628 7.185563163395256 3.6505055946075755 -0.850519125981161 -3.128129061634058 1.1844807440418503
P 1.7627431931466575 5.556116580675314 1.5538516465490964 1.974793118626128 1.24709919020402 -0.5377444264107321
P 7.773805079627227 5.1848016110675355 3.5456916989051663 -2.3717843022444765 -0.9172317968173622 -1.3068824809102395
P 7.208934980222396 1.090405552090625 11.589734923109244 0.003970554611973807 -2.160057813567325 -0.14486932184328596
