# total energy = -340866.17220737465 ev
CRYSTAL
PRIMVEC
9.32780639608828 0.00000000000000 0.00000000000000
0.00000000000000 9.32780639608828 0.00000000000000
0.00000000000000 0.00000000000000 13.65218752979553
PRIMCOORD
 96 1
Ni 8.279360714304962 2.4757769732200416 2.0019841201577155 0.2690903713086011 -0.9225632363326046 0.7558675626428465
Ni 6.256569989810464 5.741339290829675 1.0943456765331565 -0.18524026946116484 -0.999047127622957 -1.2283895296096587
Ni 6.747492426036095 7.534190266599149 5.728048099885766 -0.004016320248244696 0.8432855843471994 0.3434613300210085
Ni 6.9732626454243745 0.7509788725782766 5.990648228968008 -0.6752585934405273 -0.3892215669752587 -0.644026117788807
Ni 7.925071982161282 7.3617098035885435 1.12459202066588 0.2687293884247566 1.3039912754053737 1.2717118465463777
Ni 7.344957063792585 3.4129509821507917 8.63190887782619 0.741222301925846 -0.7514666053616735 -1.1046845005488137
Ni 4.579952806133097 2.1470277742396853 11.727665947221144 0.8846451211305926 -0.585301864474721 -1.4469983472289403
Ni 0.518362043496103 3.8671778290906236 13.314977782301364 -0.2651429566250788 -0.7673796770475042 1.0024474115537574
Ni 6.073054732156977 8.505634635223856 13.542000726051892 -1.346407021367423 0.4091267905396179 0.8780260731521782
Ni 6.012834415830306 1.7240677334223755 13.593550846587727 -0.05854401898247982 -0.5413079753922742 0.2295216078770434
Ni 0.23449265089340232 6.536310895423359 13.215562957428682 0.4124764237381412 -0.1156029687790009 -0.6920507252972018
Ni 9.301333808695093 7.080411154353196 5.551880355114948 -0.7048080249628701 0.10878543163653523 -0.05693630817572775
Ni 4.349826501285623 7.261697066343412 9.547629865455871 0.5435983140883477 -0.19856141205010322 0.26687536593515326
Ni 4.616760329092366 6.730627752566669 12.559820985360833 0.8288061597841017 1.957795555626867 0.7713324910476651
Ni 6.393707395423028 6.554845246188709 3.4100705556201727 1.0879988123630167 -0.08258280509923842 -0.48051629802619816
Ni 1.3097452410744737 3.7194347079168106 2.214753243372496 -1.9394242522085308 0.462138823960275 -1.191251744217097
Ni 2.409195093117846 7.481795979609231 5.542241933048599 1.170065597057785 0.3136553024031695 0.8246602559365281
Ni 8.987788933694365 1.5382764910750049 13.451690772735356 -0.25122506099240605 0.15786650543390232 -0.05647042428290275
Ni 5.010542992358588 8.914547000020725 3.975339337764344 -0.5417784872707895 -0.19324488493319622 0.04972359247737243
Ni 5.162567576542614 3.179494650517596 9.579384515838598 -1.045451168808793 -0.8727002900638907 1.0182221578895108
Ni 7.738916955375134 5.987322866085348 10.539187782422461 0.14731161273619145 0.6034101440396576 1.4542396021723858
Ni 1.4463043227074441 1.2368670918396103 6.6962202741227115 0.9580380322004468 -0.1623116856894495 -0.04309246031409998
Ni 2.9952704795988003 6.59400337629084 3.254572296436138 -0.07865493079974195 1.5438939694064249 0.25341127001044744
Ni 5.331494145420558 3.9750725625092413 7.342296773486457 -1.4112520428672664 -0.6846824578575885 -1.6199705979560293
P 4.887014855878709 6.933069128842648 4.7243938839395545 -2.700859538747142 -0.5762333265145496 1.134401310886956
P 3.172993169650234 -0.027112201275573237 7.426339373869306 -1.6790350082183538 0.6937144861528698 0.13783349804242714
P 8.994029235990297 1.4840166428605928 8.705207711117177 1.0621358285533256 -0.16253177212005557 -0.711192074112343
P 8.632511454101701 1.5624634923505711 4.761964421439642 -0.2643376871149641 -0.761172776905844 -2.17953494845533
P 7.3104628367516895 6.683093252566558 12.806611415846099 -1.1324706695231463 -0.8843972667858445 -0.8570489566798789
P 4.797691784449929 3.476930404344818 4.132981126795323 1.0161912435024112 -1.152178432364719 -1.0880106394375586
P 5.706919686237757 1.8282500000042505 7.682973438155617 0.15483028971073978 0.3111646747708318 -0.7988764621042048
P 3.078399887762259 7.684638451548477 0.23480233405666834 -0.5873458914879433 -0.8275476047866522 0.3060530645758794
Ni 8.229009216855866 8.624564163285356 12.656451460105956 1.5182544144614496 1.273694424194045 -0.966368149332697
Ni 2.2656401568930224 8.437886779356353 9.343584106526825 -0.23261721608323166 -0.45610418773042094 0.04176294286939904
Ni 4.817158915827525 2.415873802301535 2.0415620015353584 -2.493988578390079 1.6527120540531086 -2.6654595619812933
Ni 3.791492010212896 0.5152652118634429 13.32072557643403 -0.38857287764766624 -0.33879477778327455 0.10827275366617484
Ni 6.039745136493634 1.6172270420955965 3.5679446070236014 2.676936195162325 -0.47947885790061945 2.2968055347447414
Ni 7.0370275280775845 3.784216321437369 11.078667978979839 -0.7128288383848175 -0.7182199274934018 0.5734562779900447
Ni 1.3447898086765957 9.114684408184456 13.596540408449977 -0.028707909457653783 -0.6544599115276213 1.3809371939338089
Ni 9.21674926277653 4.793914022970329 6.782665717362708 -0.833683542481061 0.45464200136259764 -0.6984548290513326
Ni 2.280116911995097 5.102505832920025 0.5698720544656106 0.33159363204914505 2.4223136784525963 -0.2597729505624171
Ni 1.2840378074009444 0.6381497297208714 11.386989282551983 -1.1603681672643629 -3.627023862167444 2.293560802555198
Ni 2.417179695158681 2.882777137761804 3.922518770034629 1.3685038532664626 -1.0772480016044157 0.9715856889778945
Ni 8.654068014050733 8.712292179867193 7.412140587389681 -0.38706081187851404 0.882072732417726 -0.14964051797968422
Ni 0.9740095153083869 7.016095931138761 1.810265989800127 2.3678674836885736 1.2222543632461982 -1.0966842559521566
Ni 5.197854667103922 8.98305040818415 7.191958656649374 0.9929950078916061 -0.840031853296592 0.5776284070898633
Ni 6.800539659454586 3.1922924005176254 5.235654668634621 -0.2920904317482002 0.820101175810936 0.7768883878688878
Ni 1.7628061122489964 5.945403705370965 9.404213913542272 0.7683117019434703 -0.149714051530097 1.2331370715969732
Ni 1.8630707002594333 1.3655814885235829 9.531669989180322 0.28922468016463093 2.2847624875372783 -3.253796613737913
Ni 2.7091120433736453 3.740618155620941 10.115669938799028 0.4376729776084269 -0.037004602248807236 0.1455087551994978
Ni 9.05523829976595 2.4809539056180125 11.017041962270511 -0.8034697379018421 -0.2279964294817686 -0.5860030043068036
Ni 0.8941924110990177 1.1740816288292604 2.7382194623788148 0.2096482659918841 -0.44281235571752126 0.6403872354846392
Ni 9.0249975523169 6.871608214301689 8.817387638668459 -1.0027137778412665 -0.4224199081040983 -0.5808901085602706
Ni 8.72866247961213 6.377019950269927 3.116521698604184 -0.8520553601200292 -1.8370830335354427 1.9667759047486062
Ni 3.5407139426102727 2.4070123864851882 7.854198378462137 -0.5078072725316674 -0.782181260836711 -0.1333780333742348
Ni 4.604055857153561 1.8244629107185273 5.632046319273298 -0.2784394166236689 -0.1578176544738379 -0.34236835406714583
P 0.5261834089297948 7.7152243278240595 10.734701397091284 1.7619980794751462 -2.2417715857980487 1.6435769245210596
P 5.69330108929895 0.40103689808766707 1.8376253779379457 -0.7067029279927377 -1.2712112527608752 -0.6696080800229692
P 8.634852733438441 4.619651948990332 1.5032692346973724 0.1667111003087258 0.7525675517353362 0.6115201747413017
P 7.523547239813409 5.426497850777922 5.093207875777146 1.6703120265230589 -0.33546159964498357 -1.5542051215244461
P 1.1524877576557406 8.042471750018697 3.840114132406887 -0.025531825722517318 -0.4107206173892991 -0.6101433489984331
P 8.965943211755539 4.254468339295605 9.643427367114258 0.3822492494224836 1.3411540004985998 -0.8834870962667494
P 2.0930943992395603 3.3988753227119837 5.912693887641297 -0.49592903303684266 0.5149235718614745 1.22521293165389
P 1.7231256250040061 2.5772448482202774 11.631171658445407 1.2151228944077395 1.690478988389237 0.8740951135288882
Ni 6.881225182413957 0.9473599732164882 9.260524656909285 -0.3160726535954105 0.895780826032438 0.12883695097077166
Ni 1.391046399237928 3.4670988966917338 7.9376682515490655 -1.098048997510167 -0.7407098810658017 1.501774928749188
Ni 7.4228349171090935 8.786401599510222 3.7504879072791275 1.4277965774895087 0.7666883074074344 -0.8534830937054915
Ni 1.5042486543402318 5.471728382665782 4.484483643250222 -1.9128925244665893 -1.4049476979157933 0.20455748173253802
Ni 3.5094657920999954 4.5021402474594465 2.4434822428628236 1.4813516278978294 0.010055584463789133 0.1115424255563821
Ni 4.528659200265631 6.432165940065974 6.870626929097606 0.10395072925205324 0.36856532417748783 0.3873428618953071
Ni 6.8433916007812154 4.188977812509739 3.0299120859764317 -0.48322315543440003 0.1403351814183583 -0.2086319089122278
Ni 9.01397208548014 3.6630481199064753 4.243659277560886 0.35163589541200085 0.03967829242622844 0.10808043514971064
Ni 2.4133552946484675 6.300112188790157 11.921854080639962 -0.12334867416269077 0.7767955710447654 -0.08550023585634953
Ni 5.960113655626102 5.270229114808171 9.200919043006085 0.4593615183254541 2.185151266200843 1.2837847185505116
Ni 2.2231146887806785 5.550529688788415 7.2116039491239095 0.6186254183275153 -0.2192384807834805 -1.8647982400625238
Ni 4.685552899245588 7.21974059440454 1.9847957718158389 0.8718821650379694 0.496067615497236 -1.5440775461721408
Ni 0.5494581507665836 5.005823122460618 11.385473514057082 0.18403673607136695 -0.38804451594802203 -0.8084029135374012
Ni 8.616290399254726 2.273979215566511 6.677052565321645 0.8754889085526213 1.2933481938692306 1.8244931126855741
Ni 3.3420689834261372 9.071487338031293 2.006693729468951 -0.9395952521142269 1.4423683046560964 0.08634021525914164
Ni 3.647685223222766 4.928738132664519 5.059363796822987 0.5070683374831139 0.3826261731459281 1.084825042620725
Ni 4.636693850776085 0.7996728188794101 9.586852357420247 -1.9778637871316518 -0.8460477204733687 -0.3405914646723812
Ni 2.6605514847000626 0.29795811097008046 4.382420654219372 -0.35422576762636415 0.22234463051263 0.01352863061405412
Ni 8.537824894152502 9.100785977061975 10.056391730890727 0.4441544715677125 0.08967107940458752 0.5578265418725876
Ni 7.289661829098581 3.5983038176104065 0.1537007909442349 -0.4098022193400878 0.9681069864006745 -0.981560026581787
Ni 6.338440144147389 7.995235739814507 10.971402872474487 0.21471925275688825 0.11334554020339188 -0.4391117669374825
Ni 6.845005311240404 5.593857348227291 7.045088618128624 1.3691381444163517 0.33692121490964555 0.8743843626345328
Ni 4.7241233775620035 4.754942448990646 11.691104678343507 -0.20387048296784244 -1.8482963857527588 -0.7113198579394587
Ni 3.1637306581706204 3.2848428928647797 13.080638107428369 -1.0529605898119607 -0.1467580542255666 0.10554635587394727
P 4.406185105877591 8.957025829102458 11.36614163586826 -0.109188837722541 -0.2723585005369116 0.47488583921329824
P 2.3153480357196687 2.090361352045676 1.1193264741097453 0.26868336567816953 -0.9907612334650809 0.40741212184135633
P 6.561477316341785 7.434709214302999 8.5341460074178 0.3123862058827587 0.05041444789680995 -0.03704548278907168
P 8.734212524255 0.09293573074001198 1.5477348864831901 0.10023239986020158 -0.1746504097604605 -0.930771740285326
P 4.828846656898982 4.1742118954178675 0.38532047755191623 1.4070007237900801 0.3719018447498886 0.4889862831704224
P 7.346477496190548 1.3717378405644136 11.89414023586949 -0.2061867898058449 -0.3297591499435676 0.04498042136543221
P 3.9026421479682565 5.073673584195469 8.812978384714366 -1.2260881351699917 0.41250419165228314 -0.48819155518326884
P 1.2849705880131914 7.515945077823596 7.441875767746893 -0.2128660015982334 0.11598812003256154 0.19476697800467746
