# total energy = -340866.7254923611 ev
CRYSTAL
PRIMVEC
9.25096726239915 0.00000000000000 0.00000000000000
0.00000000000000 9.25096726239915 0.00000000000000
0.00000000000000 0.00000000000000 13.53972569062153
PRIMCOORD
 96 1
Ni 3.8941300018747644 5.88665888246857 11.048836572994713 -0.7973957637936203 -1.7467226413733146 -0.13858811682026456
Ni 0.04388196421817906 2.294526713818735 8.771332564426926 0.12125708174098469 -0.07248582587455259 1.241354574410759
Ni 3.040746754230919 0.6389263945391236 13.207014202294564 1.2372318104916369 -0.35104531301585346 -0.5549525627589024
Ni 5.246704705442961 5.712194886855491 13.478959342579856 0.6271769074419521 -1.5816683599417212 -1.4868288489623167
Ni 0.9035688210995638 6.605523812056856 4.556618610572991 -0.5599610717170872 0.05769889737336514 1.5207183026209101
Ni 4.947768942452293 7.427000472879051 9.670180616823941 -1.8673009518797195 0.9603833925041718 0.10885433720125769
Ni 8.71987868333037 8.992402934179603 8.89098272755649 1.3531577098276955 1.3949288802272106 -1.486557340468485
Ni 1.703593413443729 6.700290722871872 9.266303728989133 -0.29552979644705235 0.8576454526132972 0.12773034817015422
Ni 6.508869703876918 3.528467010486135 7.981100121155165 -0.2536745509741631 -0.09574093974775125 -0.6390366349940156
Ni 3.875803835306574 0.8357277762176003 6.156323659271246 -1.131710137208038 -2.0011890921211535 1.5804568561321233
Ni 6.943563414564811 5.9535803811835075 6.378822378402081 1.2321181434141555 -0.06915907549416477 -0.830854300562382
Ni 1.348097235310244 3.603797638635947 7.180536197407201 0.5545982647432771 1.432760092142371 -0.396100296372963
Ni 5.2288780911184265 1.1121698117925418 2.226228671143501 0.041588364964747736 -1.9889876649589553 -0.7472001167758358
Ni 1.2552545257300511 5.296336145946921 11.210595289877476 1.4351735866798703 -1.5807535614369357 -0.011415698036109373
Ni 1.7503755559653544 0.4147106958449092 1.5170855832748058 -1.3204401649900162 -1.4351884990782058 0.8836711872530975
Ni 7.299152102373046 4.412887254008972 13.047002068071102 -1.1533917359465298 0.48173037293895743 -1.350779953624138
Ni 5.187498513602264 7.2505475192588245 2.6387977680179224 -1.1035966668012736 0.5841273845506456 0.18674745013431063
Ni 7.334814581989591 8.191629938566702 3.1651001092248277 -0.04441606422152996 0.6346909564308101 -0.5947678949836274
Ni 6.387247234481662 5.211069978728842 9.949925247787498 -0.02144814257144693 0.9765196359444022 0.8963814357309143
Ni 1.0333423179371388 2.6448238482312085 5.012000259825468 0.8555867703120554 0.08701410139771466 -0.4418098825949359
Ni 5.173252023690597 5.819385846989578 7.870575112343048 -0.5773787529729024 0.07023816749095646 0.10224300253232714
Ni 0.08678795136773411 6.482837481401963 2.1279436173977015 0.9503087818769891 0.2827341873442808 2.9283831423575504
Ni 1.8606933431060282 0.9021441721083971 10.19083709258079 -1.7891517570718025 -0.12938022506875138 -0.41683727180999824
Ni 4.851013073630129 7.31469372773123 5.508841044914394 0.16599710496083672 -0.9579498433620146 1.2818545914073343
P 6.580499945036688 2.195828141826798 0.5432325367831021 3.1931028954022813 -0.24552209707035783 1.4635652504486858
P 4.672922698766807 3.8623436776302906 11.805097613504381 0.6796649500383392 1.260181991529907 -1.3598104392575228
P 6.6520931823265546 6.52035015451353 11.892415645308438 -1.3777533968891886 -0.17212532934576164 0.3428131549140483
P 8.802795104809771 8.765883744584087 1.5938427106092794 0.07431053778811718 -0.024871309320382975 -0.443389825487546
P 0.5954061431492214 2.9773221212215724 10.759194331929539 -0.28750821169415647 0.5896691403044813 0.5148919472925907
P 4.860393554649889 2.488177215975189 6.956602653220977 1.0923750870538411 2.1737993315231336 -0.6578933626892025
P 6.094361604219714 0.14163693752765477 4.647849801619019 0.7912487703556179 -0.08409229976522936 0.0678077036725929
P 2.593471727776879 1.0911053588517188 4.292241686779086 -1.1194182072145624 0.7155279824835354 -1.415766128687536
Ni 3.747705688678741 1.9635826033641892 11.258539353913978 0.040198169485440444 1.51594787781546 0.741896188064419
Ni 9.04856555772099 7.391856047441112 7.320185102024454 0.6293888274916064 -1.791940375560533 0.33338414829066454
Ni 2.2114715278272072 8.079508212768381 11.868734093668905 -0.017477587959473125 -1.6680533123958692 -1.8759064341605434
Ni 2.47166423903212 6.294793065535424 6.693011136565709 -0.7760316962955474 0.6966344880131422 0.5565667013235576
Ni 4.704015200450648 2.6635015515634533 0.05223096236446483 -3.5966627333770833 2.6181605197850137 1.3619100020990287
Ni 6.424510131471401 8.24536880862961 0.893309498169668 -0.011861270213960218 -0.36948063690290556 0.5233277367647697
Ni 4.063182181514905 4.754201699003113 5.94258560633934 0.6905983091213912 -1.139647903997876 0.25695245039448655
Ni 8.925694207716594 2.5478182032872168 12.8344148354931 -0.11028515611051327 0.44518702659728493 -0.37180568549165643
Ni 3.125050820831586 6.403427176595628 -0.030644754858045735 -1.9699424754020458 -0.38958460674163226 -0.29449492742463473
Ni 7.569641140377756 1.4988324993496684 2.3392310890454513 1.353646476538656 -0.6361235751122787 0.21534377371476462
Ni 6.6611313775497365 5.583717450561178 1.6481912194287966 0.37377000830687884 -0.0889300874735049 1.9424470981952549
Ni 4.224879842012333 8.94149486016408 4.067699428933 -1.8813468884498241 -0.2893054128038953 -1.8235271492278788
Ni 5.4610496218412345 0.6770514816975424 13.034937881386814 -0.35084091031453124 -2.4037001771164666 -0.4219074872440541
Ni 2.0740484059844646 8.061626092638997 3.1560693147756265 0.6650428292497901 0.1984158876111744 0.15762970683274788
Ni 7.054630530070968 1.6099921245305768 5.955394495905376 -2.0500822182774305 -1.4219547739967509 0.9358157304671368
Ni 8.711608318407624 6.4569717763415575 11.55962226645562 -0.2883325073676647 0.4898835981737112 -0.5949255036074141
Ni 7.73017317897332 8.318136918788817 5.5576787524089895 -0.03414116465808314 -0.26432020361346736 -0.17710144240411435
Ni 5.850681869957871 3.3307183297382075 2.4372589658954427 -0.7370216335809371 0.29772217611268076 0.13433654063276218
Ni 6.522468626065328 2.4189614773264245 11.982752267799624 -0.8691169435880065 -0.23797642351261594 -0.019325954022121557
Ni 2.829991213212988 6.040594981254381 2.192040795742489 0.16168305096651509 -0.7546609439292551 0.593395697226449
Ni 2.9557396141021433 4.149798989984349 3.850968688022897 2.9121821071176557 -1.4724463549883997 0.006711607692220699
Ni 2.4041691803337253 3.3784440709422943 9.390151981158901 -1.1725423407330517 -0.17083257867626708 0.47415101792980274
Ni 8.891687651278094 4.3352161310879564 1.0037632745322258 0.684105759418512 -1.2225672665009266 1.505044343529079
Ni 8.243204082240434 6.55571660317087 13.839630511918918 -1.9348854837979126 0.45181044545107346 -2.1201874597349484
P 4.059518798394762 7.941095237405803 7.662388564992955 -0.706237558320545 0.14696168559594044 -0.7471756912958035
P 4.396735064797431 4.568840063704357 1.49176661039218 -0.620564287221441 -0.07862073512769686 1.2634817453271014
P 3.0790272576429194 6.203819051385203 4.401209757765141 0.9791406185070168 0.9207724629807691 0.7590981537650023
P 7.321613451402611 6.599242405141258 8.558786036105815 0.18759385729500594 -1.681495039723072 -1.7568679573374324
P 2.115622253817604 1.7199028691023457 7.418808741179842 0.14419415015313233 1.028427637667603 0.5796768049784597
P 8.227912233004078 2.38119902809303 4.346224782383336 0.5487343497633324 -0.021868517938317178 0.0495569849925211
P 0.16403723017188343 5.339963708559534 6.801965331100552 0.27353375179193534 0.8282528583837928 -0.7201012036765146
P 3.20223164247642 5.28655787332573 8.63619258135704 0.030856323259224282 -0.7665250423566927 0.2348679597906213
Ni 5.542430382719767 5.412287772279935 4.001760382963919 0.1261313791141505 0.22509262557141235 -0.33831552415401095
Ni -0.10076986360961371 1.4401813655574782 6.724058308508922 0.7627329223041122 -1.7261306761545754 -0.5249053656645347
Ni 0.7256024092004089 2.2865801327576163 2.564641087640702 -0.4727834481583148 0.21872143193774587 -0.7318485740204299
Ni 3.9641875785637644 1.3209641477057497 8.631642955552783 -1.341367916281619 -0.7541662636810238 -0.6806846495521051
Ni 7.403956312898556 3.174996794229699 10.202548817404278 1.6083723515954689 -0.041696351297521736 -1.5144514957755917
Ni 7.070976989599485 8.003419005285613 10.006656805828603 0.4050335943068509 0.1761532195582321 2.3486268902914067
Ni 5.680075527781913 0.8112774691808874 10.01647300741644 0.8604050176363054 -0.13507701834321253 1.165596505542838
Ni 1.8824978734448599 8.969405029036484 7.6479145012814 0.6730556722519377 -1.7272416498305672 0.5571937933845952
Ni 7.221138693655453 8.595295904343079 12.318537409533894 0.8625770855869597 -0.5159219312190018 -0.12712459626535527
Ni 6.174798766415786 3.6148155408988014 5.154763040094844 -0.2602223793950099 0.3524825596830123 0.3097335987512601
Ni 6.222598515359674 8.360154813060761 7.712403920647132 0.3536740088879522 0.7868272442491547 -0.5947385844075886
Ni 0.3062579037472176 0.31470126176174945 4.030722386838242 -0.2933731551153657 0.6802519328900607 -0.8687554464835296
Ni 1.010760706330398 7.664278537648119 0.2401662168147971 0.568246451654331 -0.7879533874337978 0.8691285135522323
Ni 8.134680982789932 3.7003314842387085 6.348886247652628 1.738896460460676 0.230682460954364 -0.2383836862533636
Ni 8.289921467989734 0.8855655132962544 10.941046150168239 -0.023143270885682722 1.4266550076858977 -0.4208885590612364
Ni -0.019587998531795582 4.742378962569925 8.934364214434265 -0.5950869688859429 0.8892769634756491 0.6915637583584541
Ni 2.608236271867153 3.7727850615037615 12.646550813492325 -0.47360311584613274 0.6787084996623408 0.006034122009221866
Ni 0.9726189674305241 4.453517503159649 3.3287284466343117 -2.3359904324743184 1.0936626955170132 -0.8104839644361461
Ni 4.581227109153527 2.082494539289239 4.397608356127082 0.2468531571769555 0.9482984363151797 -0.909359336047821
Ni 0.6393944934933641 0.36790450080784826 12.66306934101588 -0.49935528510957233 0.6940986089651658 -0.09100059684928843
Ni 3.121766727377923 2.1597586196413485 2.1130504848595235 0.32884512276973044 1.04281347407563 0.6369625260738062
Ni 7.859335186860791 4.131981626627289 3.2320410349714632 0.15176964850754507 1.165230894673303 0.5323422815585541
Ni 4.695097267804643 3.3227439957746636 9.604310028014178 1.5675769148456618 1.3368998532079364 0.27125909682514576
Ni 4.627481946529072 7.586006101841223 12.520671973961772 1.7960443704265776 4.026485618813472 -1.871680311894338
P 3.6516991482220607 9.253372726652424 10.866226175423053 1.9573355852713128 -2.41492304241548 -0.3594775029436067
P 1.6362186173225106 2.214848130955622 0.3257811455066874 -0.6211936932753237 0.5133274310189481 0.35630501875289605
P 0.22777362078514124 8.255156332218275 10.72904172854117 0.909762999244143 0.4448334999126081 0.5634791121726748
P 8.044188018948416 6.387219481579237 3.999350505936653 -0.9595652674782505 -1.6009778589036106 0.6200320688670548
P 1.3401506542491255 5.355940129389047 13.931159584117646 -0.19253628890194582 0.383847704257855 -0.33729145376487074
P 0.6781255190214025 8.75592970358087 5.906231154355657 -0.14447182929455119 -0.8818475037807973 -0.060354589828657344
P 3.9082192253393555 8.261372982361548 1.1466546432495053 -0.3178019775816914 0.3343979342671596 -0.22642522833990683
P 7.244034838156348 1.419792233242338 8.634581062822877 0.3610646449250685 0.1462759723828255 -0.19924018328468268
