# total energy = -340893.0065534347 ev
CRYSTAL
PRIMVEC
9.04809415485131 0.00000000000000 0.00000000000000
0.00000000000000 9.04809415485131 0.00000000000000
0.00000000000000 0.00000000000000 13.24280039099512
PRIMCOORD
 96 1
Ni 6.582398022536372 1.9680057208920723 11.281660542618848 -0.8689413372420906 0.0037455830853612916 0.36595925401320845
Ni 4.447129232949737 0.3586945017075309 6.084537498938197 0.333545099348561 -0.0845602405405834 -0.2404901910734052
Ni 2.8716750773131885 1.5720520722313152 4.669742208066741 -0.6856502210874966 0.21622334810624053 0.5790147459144287
Ni 3.215366934089287 4.328870642241204 4.647720051683765 0.43550528053314674 -0.2162238623268728 1.2639581707428875
Ni 5.097859117048204 4.57543120817904 2.8281989848606637 1.2816746141860442 1.4225101322795888 0.0014112785252298275
Ni 7.365103408094262 6.092154184604489 2.4906127820256603 0.7801436615813919 -0.6051780345733577 0.4739417301324741
Ni 5.193144596677245 4.888612891437988 11.652512063643593 0.7466645559873399 -1.501125468090647 -1.06789150009018
Ni 5.4822583494629935 7.772321933987775 12.22854721599943 1.051049745942493 0.480027788425554 0.9094192427514789
Ni 1.9034113766634406 6.727963761428405 0.21822374463860222 0.5265650127551448 -0.8639765370376477 0.6868529831463461
Ni 2.68751016872241 1.4688676063981014 0.2269262016044375 0.13494229253756115 0.3289371682629045 0.8443981006850877
Ni 0.5269076202891935 -0.010145627984810834 4.656380887416451 0.6448270164235476 0.3442833117016716 0.1255395111664225
Ni 8.475431235195018 2.8022309546132655 1.6115560513463458 0.6582664297579051 -1.6532411870837012 0.09897101664927471
Ni 6.808238452841267 0.6732361135191554 4.89954479880555 -1.598575162999389 -0.8332207439120295 -1.5029697203882373
Ni 1.0310122336691563 7.178531706456164 2.5025580759394632 -0.2604283247582289 0.48821752332519797 0.00022111487187058694
Ni 7.612351629188474 3.923687937534334 3.7899172941930006 0.12090355505630788 -0.8396837259285539 -1.1374580954354088
Ni 7.7073566178984665 3.9673811842467677 12.582474276892553 -0.39002786492663793 0.045199736465089894 -0.19472481191283236
Ni 7.942806124204314 8.799524920014369 6.811619725629926 -0.1438290535042297 0.3107324723294197 0.45635358473706567
Ni 6.937309516074413 0.6802610538271969 0.39752620742626155 -1.349869268884411 -0.6274383886334549 -0.17983349662329676
Ni 1.9984797020325726 6.381249841201912 9.210486642463055 -0.40921677915026294 0.9317101929391953 0.4568456938821358
Ni 0.2777312503288759 4.971810117265451 1.3720339978577962 0.1344069888593814 0.20615207991316756 -0.49068346836718724
Ni 6.4854386454872035 2.0026418253474865 6.929228663177566 -1.5220447347418173 -0.15154596253251318 1.1414944702883114
Ni 3.6179256914889293 4.289013787453823 0.6744838457042132 -0.15055891602889554 0.6473407839843368 -0.8916166673524192
Ni 6.3701206853815995 5.722973846571624 4.619671864588327 -1.8182782421241137 0.4730477575632949 1.8508816299814317
Ni 4.934206237924621 2.9623188846366832 9.522288491362167 1.6135060732776083 -1.192673821375604 -0.251704828842302
P 0.29389295612257 5.6113113165078135 12.407418084695523 0.6616060356540993 -0.5770187985303223 0.35930241081832315
P 4.043358030932272 6.190796507167949 12.894647097652342 -0.7841301570329656 0.4774044918700939 -0.6583435628527436
P 2.4335301655710317 8.598014814913395 1.2402865083712773 -0.7122572821520636 0.025514085110704444 0.8655392535390771
P 6.142217289607573 7.767055943184992 5.904381800870979 0.7636034978345236 -0.22292904226119029 -1.303882260631335
P 4.955315441606565 0.9242085301707998 12.339919302240615 -0.9168769845811048 -0.6657673661206405 0.27530087099468714
P 4.18618219729296 6.185069063562861 8.216587881431103 -0.9139613535962066 0.13874341145120622 -0.103236476793848
P 4.6847050413838565 0.8813142301729467 3.6099081752512223 0.0059775577396735755 1.036361547802699 0.7913151048171791
P 0.22384261111373602 5.451947234017425 3.7377667938665455 -0.30174415278788036 0.42572377566635067 -1.053301003870515
Ni 1.4871990451720483 1.0847307687140346 2.6686231769668636 -0.3649403258303908 1.0096387870958738 -0.9334112347907022
Ni 1.82880984029069 6.421984361123092 4.801786475041801 0.2684514521730216 0.6558380228220705 -0.013405731882944654
Ni 6.095764374175468 5.591387413161204 9.235740778081004 -0.25458266461072926 0.9583990150842915 0.4960958976320102
Ni 8.78514749838959 2.216891647029762 10.060568661204655 -0.470776445030615 0.49297226440136394 0.39255911598892396
Ni 2.271723097656672 5.242031449439157 6.972877574228602 0.34292756900472554 -0.5532492069145505 0.016090992024591643
Ni 0.3457692991958906 -0.08221279318254544 8.791153623294894 1.1964919095701136 0.6963182423243041 1.1643220097057883
Ni 1.3065176528339695 1.2033060427182671 11.532651960268234 0.18569124095565442 -0.7420864496983542 -0.5790481702555252
Ni 3.9929510983509995 6.800013735247231 1.8117478491277919 -0.17211581626406486 0.2424048915976148 -0.912838295735357
Ni 5.516948742483384 8.013951288606854 7.969689821580993 -0.06046797547807006 -0.2689687581290723 0.6257509736287029
Ni 5.03230567483831 2.873638513746528 4.975784040221779 1.5342554178753962 -0.36090137987432686 -0.7806373133883588
Ni 0.8074899250887854 7.340465447688803 7.0413562652813475 -1.2767108424228657 -0.7499622529020051 0.22120486048123195
Ni 5.22585345707597 4.387475148134025 7.2867315308838485 1.1050102593193485 0.8321989875157346 -0.778950155493923
Ni 8.330028361997915 7.030568222610973 9.255062078356367 -0.509732000358206 0.041126851947296914 0.3456709360778176
Ni 4.658628434006506 0.0784171176812272 10.213324015718493 -0.6356201531132989 0.8929963213087652 0.1165293372480122
Ni 8.211787867477709 7.221908269872897 4.8511691633638385 -0.06994609017183438 -0.7716623635832581 -0.06697389491738788
Ni 7.36304044262513 6.271804094208002 7.050255065890517 -0.1550660598706297 -0.7780875503833116 0.005396745535539093
Ni 2.371614057214606 4.890684905001282 2.5936551927805174 -0.8595737799842615 0.9615699566131052 0.08760854044860396
Ni 2.6720922162689025 5.043733417765997 11.541736246807742 -0.9424612608081123 0.2673222236645848 -0.1985138466416194
Ni 0.925963860438394 3.236539474430371 4.095137559398051 0.6171812296818209 0.20955904871218745 -1.5154933067765448
Ni 3.7673640146826646 2.887382568779907 2.6768334176102395 -1.4227911538551175 -2.791946267552334 -0.3410732894048062
Ni 1.087734735976103 3.370206969498248 8.361477727689172 -0.06383509217809005 0.38363867357084247 -1.3796907231212174
Ni 3.7540361719807773 2.7274122639806064 6.937876831578424 -1.2068670821568506 -0.8703467022300495 0.7338789741868974
Ni 3.884012044630209 6.92770044007346 6.115419549125441 0.8558816758446549 -0.3335834087856642 -0.9194768840977972
Ni 0.8702737456754294 7.516360398214731 11.402581082630094 -0.614002060622891 -0.30315080332741984 -0.04726407519328635
P 0.2556638534750855 5.527209281264064 8.095217651139965 0.11661289810075401 -1.194607548063207 -0.5874687902190527
P 8.498657692911069 1.6794529499444202 7.9464877937191805 -0.2498955435477051 0.06560761069748056 0.15251603975526637
P 2.0517096399926564 3.2945015656376286 10.329556738143962 -1.0964801103611503 -0.6996737890600983 1.4942205134406976
P 4.022402644851097 6.242153489636322 3.9026927398388422 -0.0658652352342414 -0.0971787006355423 0.6012571022523967
P 6.908355614753273 3.882220521985963 10.358359536292582 0.03722057491435525 0.6456268866170235 0.26931277173205237
P 6.399364125715951 7.721697847146594 10.047471544903921 -0.24417329635194723 -0.21485732099664934 0.601141659720455
P 2.1451764526949626 8.451707132300008 5.938959092714335 1.6923818618389046 0.6673226264229024 -2.253449279246293
P 6.629800987855576 3.911355385190361 1.4002278592692565 0.36545120402853837 -0.23938950181005866 0.6054641983552088
Ni 5.096710009089521 2.5784263454950134 0.4489374784596114 0.920684274142337 0.03707145093100067 0.1632956468692736
Ni 1.475128887558798 1.2277087526754906 6.945451896011567 0.14707044325966287 0.550517152695368 -0.16112049359482575
Ni 6.804528734234496 0.780018101591521 9.193880675245964 0.19370125574432448 -0.12821397267479206 -0.8059382540469927
Ni 2.5419444298303766 1.5070415156711923 9.167593247274619 0.8030385639016945 -0.4519210028870088 0.2869004029068285
Ni 6.290986053833257 1.9397575709156347 2.614247750285762 0.6918064704968795 0.17480853260487958 0.16194093261359208
Ni 3.9710275661943983 6.831709209099717 10.622169388942487 0.014707481413503701 -0.23229839929123217 -1.3148112488390131
Ni 8.415134735693742 7.243098906402306 0.3847620609907201 -0.2694387557869553 0.12586424149569292 0.32838875195860223
Ni 7.661727079035182 3.8204220388536547 8.2984812768897 0.0039047343710448875 0.28749329929582096 -0.7594359967203952
Ni 2.9994522630810456 8.47870664528197 12.230626468038055 1.1355994449601152 0.3113536508531864 -0.22255340408932642
Ni 0.13078024822050952 4.863160602557873 10.226090876582285 0.11192937658215561 -0.8026135605491339 0.7943104400000772
Ni 8.463379173770091 2.0679509690149835 5.742872415254578 1.516101372674189 1.5432105701861552 0.6789694666332113
Ni 3.7658620310516304 2.670698809767823 11.620213081910444 -0.26924926548396855 0.15098803314651416 -0.2923043475312192
Ni 1.138675506112984 3.4423655204470274 12.553380130111888 -0.5075573613043903 0.1297682045357894 -0.1420058842525619
Ni 2.93183585540202 8.300884450699355 7.8931728036739655 0.8067273256071913 0.4490467666630073 1.7345389548229289
Ni 5.636003565478248 7.903682165044124 3.4559467097854744 -0.37668075419577063 -0.005083585170494471 0.6980498803034301
Ni 3.0196295130642152 8.403182203304608 3.5497193480704854 0.3239327730697776 -0.5567911586295379 0.2706399751839081
Ni 3.31585506786197 4.386778444883485 9.025259487617557 0.1641878196662398 0.30174003902282226 -0.1429944734180763
Ni 7.5254808771308905 6.291311785223121 11.501398938220312 -1.1497443690019293 -0.31265591460437764 -0.5702259439782051
Ni 0.1797566771146347 0.43531285826918226 0.6495807761397836 1.7205614095969144 -0.15087387616615305 -0.1498228091938194
Ni 4.636614420908275 0.2697942621292183 1.3853826511762581 -0.013353024268138294 -0.7025207715905901 0.002759565023008151
Ni 6.136806529298186 5.762278767615072 0.4290180991600831 -0.4611358366170574 0.1637471325843954 -0.25850668225548384
Ni 7.907690470758269 8.798764880104688 11.246924909127644 0.154880683332701 0.5869877368175762 0.38450127868145395
Ni 0.07041407839418076 4.754284885496221 5.873896962017484 -0.6029141782398455 0.09377378871905141 0.61234447041481
Ni 7.952831412536759 8.540043675611974 2.784722892408139 0.37050445018172967 1.184142129755509 -0.6488441080027406
P 8.46894375168025 1.6572217825862818 3.6863455699296166 -0.7305961896705676 -0.8802127963908518 -2.5059262103679294
P 1.828230762264267 3.0696835699731366 1.3780057400052814 -0.36485110855069425 0.39089689779515263 1.189085075583081
P 4.661071419430477 1.1130784477262636 8.200538372005028 0.24596895479978928 0.3532796016630109 -0.07291262899932603
P 8.373956859158582 1.8192641009488766 12.41398609624834 1.5488158321880745 -0.47658919505765013 0.356079018785019
P 6.412999603619375 7.673960102343364 1.3716232143828024 -0.07234852896573993 1.4067220162073968 -0.27114673961699753
P 1.8399118518285147 3.251921234507227 6.021223460033609 0.07063411737779447 -0.39485973909764255 0.6198927150757131
P 7.009214720386632 3.8598445851212198 5.84625955839704 -1.4487258714430082 0.7089071347329081 1.0895165345591236
P 2.2074725810062286 8.53233469938522 10.09972790793208 0.6733858018978467 0.12413517461972816 -0.14457467342100264
