# total energy = -340871.8492341713 ev
CRYSTAL
PRIMVEC
9.26681851259855 0.00000000000000 0.00000000000000

0.00000000000000 9.26681851259855 0.00000000000000

0.00000000000000 0.00000000000000 13.56292559755823

PRIMCOORD
 96 1
Ni 6.6339392582374135 5.2342697328506 9.647349228642502 0.37078547175725823 -1.1933703332219963 1.0609063270215986
Ni 7.368964763991687 0.16723549250732053 10.254955054038323 0.11826380344061568 0.24202513966069286 -0.6888011080116525
Ni 5.563566126443203 6.700484281521176 3.0759628483009314 -1.1810663190436628 -1.651463526357988 1.4666845128039578
Ni 2.39625098186998 3.678630386145169 5.1616966441656285 -0.37942823503392076 0.05668202607307657 1.1523321843337637
Ni 7.349763916164928 8.517373773946677 3.810449951903306 -0.2578145412844657 0.48540370802548655 -0.39552334082357044
Ni 5.943459348768482 0.5374884435998881 5.68879235087473 1.2630060912422636 -2.2686776661602734 2.146329151127323
Ni 6.281021744417779 2.2739753124326816 9.71992509737301 0.18204593089358326 0.13886271063788988 -0.002579844912034267
Ni 8.709132048116135 6.759921655054395 -0.00894155312164072 1.311362113948148 -0.42762202113032804 -0.4574108223569864
Ni 3.447404732200533 3.7271885148190185 7.467584099291848 -0.8071212186115002 1.0042502690904511 0.19999917293789427
Ni 4.877237751639518 6.240803752348216 11.31539971654605 -1.0873470377116305 -0.8282580005901155 -0.4886983196163584
Ni 4.700028382435314 2.2476204807631346 2.492865904339577 0.015117315257412677 -0.9387866401700026 -0.567582592818087
Ni 2.074395843492091 8.433722203805676 4.635916825676315 0.8178432330146946 0.43489232953949614 -0.19074500132947794
Ni 7.4825852249974245 8.602165162756929 12.428739378761858 -0.8892540806575138 0.15303720236605903 1.7327219562188483
Ni 3.889283703132563 2.42807323642456 10.502207670490861 0.30776079129560546 0.379108904021289 1.2605686854453644
Ni 7.2608302595078795 3.5215670802495436 7.864245629600967 -0.22075183210421337 0.28408993004122685 -1.2250823196132965
Ni 0.12196059761002541 4.5194458913156 5.449814076615486 0.22163834847422476 0.0774637387051182 -0.4132225578755464
Ni 2.3789868990991057 1.6379472281712963 8.900927389559392 -0.11960489084954239 -1.7026102244351322 -1.336131607583344
Ni 6.006974122419353 7.496281582665355 9.563639277545272 0.19480374477988385 2.00692470905335 1.1463371430925935
Ni 7.644541411034233 6.651657415112299 5.170879134566949 -0.19383135356428555 -1.037979028801464 -0.3943002670497467
Ni 2.7835391253177266 1.5636273442086488 4.0113842297011715 5.759271081280404e-05 -0.4972852899544209 -1.1398659335459531
Ni 8.200606118897403 5.648116577973777 7.182775847710201 -0.3293729702487424 -0.6166040170221122 0.7944873318975737
Ni 8.40044505875457 8.818387837632297 5.79777106251926 1.3645114442776176 -1.1918125018165733 -0.8864225247459896
Ni 5.197276593601362 2.1788884883253594 7.604515242106569 0.3334659093711934 -0.9251865328880646 -1.2536477899558152
Ni 6.535599780854419 5.721250309174926 0.5536293879747185 -0.07244417400333975 0.03605843628545403 1.9561950439089668
P 1.171288784706084 4.2230189027623375 3.4500828427323538 -0.5028689546897855 -0.3484808947227869 -1.1334304623332545
P 7.378852459276992 3.7370391428305263 5.4929983772706406 -0.2399515449611158 -0.7610377939898765 1.1487128424136217
P 5.305494499451212 4.311415083949331 1.9983745716621686 -0.3484739527442514 0.6278327958583961 -1.4079330057963624
P 8.471030414882188 1.4515637087023774 0.29392865429935644 -0.5051883468515816 -0.6679404625125593 -0.5832858624859567
P 4.878460971674813 3.899301133876157 9.196287767309151 0.2858472790519658 0.7455913775278191 -1.1962039460160494
P 1.1312839294608534 1.837471096201192 10.733726155898493 0.8670562044042358 0.8348482522131235 0.7434049113994616
P 5.644604453781527 1.5165611733051216 11.716903159494882 0.9004882588104363 0.8191861201958343 0.6909029848460037
P 8.364091329978327 7.518243942389978 10.662480075615449 -0.10425154832192368 -0.0234425472936564 -0.4160327736308319
Ni 4.673942288500794 8.936558306496597 11.415290459337442 2.3591907818501823 -0.7558302816470079 1.247181465505181
Ni 0.29651038991930573 5.994343448873083 9.32487784683774 -0.21642697947661435 0.6593367800039484 -1.750375150524237
Ni 3.2635232537129 7.478044483957313 12.552121506321992 -1.8588888165566244 0.29665671096264395 0.49882126698297324
Ni 1.7686742360342724 5.289064430340766 13.077250794156171 0.9171819174160333 0.08480963754722813 0.34028447495492364
Ni 5.41853115089465 5.009076777716398 5.386461472287477 0.8656914628462251 0.4438827059635646 1.388807597820821
Ni 0.6368824849224024 0.1415432383568916 11.994996674428231 -1.793616220601059 0.2217671607426052 0.8472635951583408
Ni 0.2464297229742514 7.452190060484023 3.3832718617590998 0.43801904809393594 -0.04863987249489042 3.050679978216959
Ni 8.91662538001235 1.7357862973580336 9.279821648855846 -0.5850344697459472 0.788125651345604 -1.0663125856388347
Ni 4.234936031288019 5.7085362342626125 0.26731805844061096 -0.7795265968226832 -1.3780971533818525 0.47487118392527894
Ni 4.108731230828256 4.306902143364567 3.7402751158329894 -0.24581314594821538 0.3439076735298077 -0.547605892585844
Ni 7.988414510047439 7.901241548895741 7.911675059787704 -0.026279502521819254 -0.16253871409859103 0.8582033819992962
Ni 5.657744802342504 6.206488723630799 7.8623876325019015 -0.62167011869111 -1.5648538594875439 -2.8163655769369624
Ni 2.826092355636489 0.5171663107407751 6.6276322616008825 -1.3519199807658524 -2.070968060587504 0.7501753973540758
Ni 7.035739239376619 4.567327542242658 3.4960064149210934 -0.3398607571539437 -0.5293114651520304 0.1674747179476277
Ni 1.5791121978372753 6.56460492260044 1.764536601596701 1.2961293561587937 -0.5405682690127722 -1.4655987359389469
Ni 9.17822766483349 4.90798505525399 1.4651618380947453 -0.1261807442948472 -0.8661421772303985 0.5720637685178922
Ni 0.7427012114757525 4.605655103348581 11.089129030426207 -0.7549321953127709 -0.8685785545860332 1.7044493345264002
Ni 0.7679922123873308 2.687673888460671 7.323654655184285 0.1646606455376003 0.47837508331347933 -0.5076612338721064
Ni 5.937500784505642 3.8063086107383555 11.90529201847621 -1.5416231710943773 0.4803820864411792 -0.09936285277105468
Ni 2.8933045898485945 0.6762775835136751 13.155495175732057 -0.026865456932276315 -0.6557994562746512 -1.0714463073209741
Ni 8.043922752558196 1.4259780229641144 6.792815153821704 -1.5396354512403871 1.7086638868283799 1.336281502897647
Ni 1.6467692393349422 3.7134272894219444 9.206662897244884 -0.8079149181573893 1.0867824234574122 -0.15053757587265687
Ni 7.374636056882602 3.3148521611030626 1.4702344945138417 -0.38105728599691147 -0.513475012340406 -0.6653097097579316
Ni 2.3300673645057373 7.860096874981258 8.149080754956117 0.14068279456576419 -0.5993493437067225 -0.6709774495666703
P 2.6522375747108997 1.492902985804294 1.4355812269230286 1.6881919921272734 3.827929091859376 0.6108380610726124
P 3.322098813130343 4.017953477299815 11.947418048464463 -0.26237156452752874 1.6565031456644244 0.8366092007682883
P 6.458935391824121 0.1747304952690399 8.15598360801893 0.2863746123103455 1.030179330251387 -0.5925917132679149
P 5.581126747404452 7.199344919097386 5.755304940293919 -0.2199488765869438 -0.15292201694443341 -0.644615928854006
P 7.847494001890334 6.391611955790626 2.7744316961458453 -0.39507802575603573 0.7371213923835951 -1.077928572611208
P 0.628158702034318 0.4736771317586424 3.446326074533045 -1.3091854180118032 0.19707145776813803 0.46882574906214747
P 5.400358919915754 7.541346120783853 13.134296401847651 0.8305280275712149 -0.014236198204039997 0.5104747920615015
P 0.7009782880900388 0.20611813603835205 7.234789572983761 -0.31605337032170083 0.5021066226024642 -0.08507086162841479
Ni 2.1949942187900824 8.878918695742524 2.094888485810669 -1.2229261925022423 -0.2062767784164899 0.046425381342074884
Ni 4.616710417758486 8.288761362804717 7.331805748692208 0.3965345556969042 0.44965663233286424 0.14264326072624467
Ni 7.069155386704463 6.195600211952981 11.884052470590623 0.7807733247455908 0.310677193611452 -0.5767084663787553
Ni 0.604866553862234 1.6850689999855186 5.286597603269588 0.5373939850498487 -0.5405746967706755 -0.907117848311812
Ni 3.244581876802719 6.702624916582942 6.210720879616553 1.2590823307078252 -0.7680157679696064 -0.4683963748342127
Ni 5.611494111462506 2.4146548833101074 4.778381185787057 -0.24304561050540724 2.315834526351734 -0.9145848461128185
Ni 0.8241120649157339 2.9544377911580195 13.023731210884614 -0.3861912647893671 -0.7135297211065841 -0.7587669956778287
Ni 0.607979278179323 8.712421768665605 9.259395727630102 -1.2010373628489508 0.524265932308323 1.649789738199991
Ni 4.7263554136495145 8.920832515588291 3.9847467600689233 -0.9279527827792922 -0.4629528352211382 -0.10735949782328606
Ni 4.608045942508477 0.4417992762933672 9.232229122664405 -0.5725545921113817 -0.17389321987946182 -0.03300088040605284
Ni 1.1166052890373082 7.012905798717771 11.310353933900457 0.649318476535998 0.6203940801921638 0.5679397190471897
Ni 8.994614924080885 8.517345973491329 1.5348622130604626 -0.08447616546720936 2.2345028200507775 -1.379253635583799
Ni 7.880150270105343 2.030434056769048 3.7115628055499634 -0.1343131435939945 -0.41049564586268655 0.10182828359241172
Ni 4.37437384849325 2.890033402936024 0.1422085959215447 -1.1664061459283266 0.7032589353081953 -0.4684647661783029
Ni 4.506518679578955 8.891688371565532 1.2422753940725513 -1.0920750393149192 0.2418230509522158 0.015148425605664236
Ni 6.127943170455314 1.4023754363739818 0.44457005500968033 1.2752265445678552 -1.1672214427407703 -0.4139689491232677
Ni 0.5631658708407984 2.218633872654012 1.8021876849558327 0.19784715959189797 0.2688330038821564 1.3048891046292947
Ni 3.0691239362854166 5.5179363123993035 9.772508731981194 -0.24277435912189155 -0.4066011959042868 0.0015586027363715094
Ni 2.6140397490632648 0.13891146191731654 10.765165690851122 -0.7304421805912066 -0.751579476790454 -0.8508546549437088
Ni 2.654962019334967 4.129386969151541 1.799800552523317 -0.5228181441182028 -0.8176493718363338 -0.4049307501803994
Ni 6.5945738134651775 7.987969702761878 1.5667891826635185 1.7692588748026175 -0.008835596013758976 -2.5697481899198973
Ni 0.9047389455149123 6.922192912918474 6.18491093687182 -1.0607320062272636 -0.13075833636320064 0.3134691545342924
Ni 2.1182649620306413 6.029612959890768 4.1425375112128116 0.5510678829925155 -0.031849026189796764 -0.11389472783864256
Ni 7.929106871972508 2.725408373185845 11.32706386092807 1.5765140694342914 -0.013203643174467584 1.0243272423459844
P 3.453159426457491 7.403335393619798 2.8732243209510058 0.1966629094758097 -1.3817159810813624 0.9396998960128913
P 3.7273645843695533 7.57449353037667 9.698563227483893 1.329223053388969 0.699975379460917 1.0824300600259873
P 3.7346853709444274 2.083458791935416 5.87206870611763 1.6264801169397731 2.8328581752753474 -0.42984705380610483
P 1.3876689954950887 8.035286077763534 0.013031000103276175 0.003887765090180402 -0.7237524272758568 -0.01798126706876903
P 7.720927795511053 4.3984768432796395 13.013884289600487 2.1006704727479435 -1.063488228816162 -0.6191638073294885
P 6.18940071041046 0.5330338839713539 2.624805938737554 -0.02509936617078903 2.0366775148357505 -0.3842644800802995
P 8.476720241410002 4.045939269016423 9.508410892951682 0.9413052928267983 -0.5723882417368464 0.24043722634828268
P 1.9284712533724138 5.436694115055098 7.52768127029865 -0.38045076276116413 0.03803355773395385 0.21349412210053553
