# total energy = -340869.5035413162 ev
CRYSTAL
PRIMVEC
9.26012242156763 0.00000000000000 0.00000000000000

0.00000000000000 9.26012242156763 0.00000000000000

0.00000000000000 0.00000000000000 13.55312519148321

PRIMCOORD
 96 1
Ni 7.342823190975236 5.51101358966425 10.404218677775926 0.06251200249129235 1.0431654580984098 -0.126272275567389
Ni 3.7055305158838956 1.9288649425169524 5.461163573605278 -1.0793051412437606 1.1541005890880964 1.8444255899434425
Ni 7.7115982990933905 6.205504237480773 5.303472951966467 -0.44349884026158454 -1.2996142293836004 -0.9954090166497374
Ni 3.2852506078623374 5.549989444175833 10.443807552379853 1.3614338337935585 -0.15315752999400722 0.38054537935749944
Ni 6.6834654469403585 3.9505163098868548 12.129152578244565 1.2229043381253712 0.7252400675649767 -1.013941528236286
Ni 1.9874537359345787 0.237271186164138 8.839524710598996 1.079681807856889 1.1209310443146632 0.8017722955947612
Ni 4.657961868718278 5.333376664718726 13.434074188224407 0.6595648368543544 1.1382852193223945 0.34202022669910775
Ni 0.9891384773969663 3.584009931717701 0.21709430581362965 0.06363608879340653 0.172018114343936 1.852325818627126
Ni 8.890587802671513 4.252933382027339 2.213822054172383 -0.1693678212052825 0.6096206437257436 0.17640518766803814
Ni 8.745916912903285 4.138487531253126 6.384281083474142 -0.6182860327102254 -0.5464676652163426 0.6136140811558529
Ni 8.462853496246101 9.030211925818497 0.16893518807583133 -0.4684902200995996 -1.272900724648156 -0.06934445203209348
Ni 9.217423817161022 4.810624243980327 8.903494561050758 -0.8059508524524829 1.2215012871302575 -0.7492595704080257
Ni 1.0699423040703042 6.302281775019515 11.511671885019318 -0.8241074687568517 0.9734188855318912 -0.5898640299241067
Ni 8.730109884238217 0.618281693799078 9.149484152304623 -0.9943391806243262 -0.015376482456070293 0.13382951908935659
Ni 5.3238387388106885 4.036172440614378 10.139906082644167 -0.30064706306895966 0.5227453818987384 -0.48996021704791753
Ni 1.5825363707105307 3.0499694219677504 3.0626807917677152 0.007247939811664938 -0.008740465196791398 1.2941475498420745
Ni 6.931886746294659 6.453851455857149 12.692758806284985 -2.334131267778393 -0.6531807877048815 1.2918430700786139
Ni 6.887012193915678 3.768490086999186 3.965440848902374 0.5578980185404714 0.2997332930054386 1.1257642040372484
Ni 1.5664793187449602 3.301474342028243 5.518087397044007 0.08398534187371987 0.3385795764486749 0.2772317694688129
Ni 6.1420168393977566 2.339866208053215 6.151709409347217 -0.007016283416833078 1.04179403167218 0.6568479521438236
Ni 3.3222818367033504 9.167030231926516 1.4559041990674073 -1.2587424308699031 1.5056236130713168 -1.44698574882345
Ni 0.13109740258764366 8.446546420980027 4.784306976571935 0.6203953657437444 0.8158146326204401 0.7472319984550357
Ni 4.3567208321023765 0.5657332781191342 9.815227676636765 -0.3206615585176736 -1.5184824713118557 0.702424612332358
Ni 5.171398606482418 7.267492096546219 10.906728471295908 1.1027980821593781 -0.5406551722996238 -1.8411482047437517
P 9.093903046590812 4.671787231223812 4.298129260648077 0.6495560464681007 0.19343411812586683 0.1714828106657563
P 0.9825452703615072 1.4811750726625872 4.5635132519231005 -0.02752648755504292 -1.2026486732001287 -0.0009178838285790644
P 1.525790341618826 5.742322183117528 0.8666696567133125 -0.6477963834645166 1.0422321476508631 0.2471231230088905
P 7.785207010785616 2.115984232637069 7.450450813743538 -0.03751728021916764 0.6354802851013248 1.4434556241830043
P 4.314689137251324 3.763119216099514 11.967165259886016 -0.9477178812213614 1.8405216269033466 -1.4217539708398546
P 1.0776745061413833 8.354389684439454 7.407148630121047 -1.5406579789676305 -1.3801620063306812 0.04633822094490729
P 1.04894960695038 1.6202898890863269 10.601552808739884 -0.8616172927768515 0.734403993452432 -0.1550308357573201
P 6.922506242464716 2.7902137329906935 2.153754419232899 0.5784231350770167 -1.4356721235828436 -1.6546254690257376
Ni 3.4019003677298643 6.346026592485117 6.406359066920689 -2.030840853549315 1.3297845823193937 -0.2666573363870762
Ni 0.6173992041495285 8.624572271059666 10.964315319487078 -0.09078025330836624 0.28367752509415656 0.14805209044664178
Ni 6.851777428789383 8.170446616247936 4.267919963861871 -0.21691574618757484 0.5356278942883614 0.23843639386816998
Ni 1.8752858752316057 6.24633211644052 8.835905854827285 -0.5188943835837645 0.8606400164652468 -1.0264723137134453
Ni 5.73279351733173 9.102931665775605 12.101124040246072 1.1841989511353737 -1.6480030786132132 1.0123726410872693
Ni 5.288418771239577 2.175730541334797 8.560655203304675 1.159224797688539 1.3682644835621467 -0.5994107930722774
Ni 3.9073085795112195 7.779039769373234 8.330875456033356 -0.5209998599625414 -0.6732431056723953 1.0310535053262244
Ni 3.0840281515694623 2.4367548670588457 13.075187964647217 -0.5078939187082028 -1.0932466910255172 -0.1374311203976859
Ni 7.987985167614948 1.341171284503729 4.517784916273516 0.22067984121569734 -0.11936346426269766 -0.15788013228065712
Ni 3.071730709233662 2.8753698171172135 9.503126368656838 0.7011765988578699 -0.9729859117595308 0.2653476164367172
Ni 3.9693236181579468 4.60106767767072 8.052182817073835 0.4496224366608192 0.5512041514600636 0.23887708095001442
Ni 5.268722491233366 3.07614778754253 0.20986029831910621 -0.25689254369082853 0.7037644141897041 -0.2649282695111115
Ni 7.940925226387134 2.9557106376785107 9.839853119711762 -0.6981889769844556 0.11619483672672891 -0.18894882866100363
Ni 1.0877402590171474 8.230683711424426 2.532333218767401 0.5761322821603111 -0.21994116327745994 -0.09565943577753848
Ni 0.2782648213119949 1.0748501688579353 6.871447780453319 1.2832147049796545 -0.08102008859780885 -1.8850377070378503
Ni 5.177945512906673 0.14824529695318192 7.354657627198995 -1.6412752729710767 1.3896321506046454 -0.7726054442228178
Ni 7.351546226126082 1.8730634458938107 13.5692534526958 -0.5683541808767889 1.3499921676155202 1.8764828754893037
Ni 6.670640177636831 8.197560254169037 8.949318275959424 -0.604682582994178 -0.8165592240959485 -0.13927254448179885
Ni 0.8331017135903639 2.7452558395115445 8.628108711743433 0.2765144316868141 -1.001698963423507 -1.421562423654339
Ni 2.5290968060442367 5.264166511090886 3.728600258422434 -0.33736652997718025 0.5659157466386254 -0.062863215183124
Ni 4.813318939552404 8.229044669787802 2.9102351033661003 0.953653529979506 -0.5085549493309693 0.45345235192987066
Ni 7.347342130628753 9.135758799119287 6.822534888765118 1.1592921605913646 0.3050696176166875 -0.9989021174046604
Ni 6.448480584957477 0.27628222914023676 1.4451828295369933 0.5886252724209992 -1.5181744531531336 0.5776813718149858
Ni 5.5516377459346975 7.277891213822653 6.416211836984914 1.682606784730012 0.500244629693061 1.4735380453906817
P 1.8754247770652182 4.694817155236715 7.206928119054628 -0.2780174985949018 0.09413091494815401 0.6817819963813418
P 4.718865692696107 0.9628860308442603 13.554615977469748 -0.3480808310708909 -1.1468909587135345 -0.622535809125515
P 8.766613286111504 3.741320888344639 12.458438821078994 -1.7219176665144924 -0.4030096218982866 -2.017509940768364
P 2.4673410508202522 7.440295237682038 4.389220157118735 -0.9007142587783132 0.11173114452842049 -0.6963593799748845
P 4.2585450161052725 3.304993188479752 3.4805512159822127 -1.0610256262082822 0.6581265617459311 0.6467270616597378
P 6.606597172219367 0.6632636635960534 10.210951592500136 0.2341123125715194 0.26798788227304166 -0.636200451096801
P 5.3265982552384505 6.227922993425783 9.065644857560747 0.5848143833153412 -1.4901674264172466 -0.350924471167273
P 5.954277121087506 4.695465363793572 5.751376730644596 0.9564578321975205 -1.46013411327995 2.5182891028086565
Ni 8.12802599626277 1.4347355596249076 11.661352500919826 1.4717917521235362 -0.8970121273363777 -2.2276593147663823
Ni 2.74497803584432 8.887244898542578 6.195634799196515 0.5909161253377049 0.20233296327739347 -0.1722034908818647
Ni 8.859455271697898 7.279835839493224 9.186524641267876 0.42410243801284375 -0.23394210554224226 -0.499326745864482
Ni 3.7983910217147723 4.340311895491655 5.564547282350616 0.2018267130649363 -1.6711959717899092 -0.26721038067706887
Ni 5.503975896761231 1.9982510384673673 11.518015068754275 -0.5585572493910252 0.346361534386939 -0.41709335368486233
Ni 5.1207457378251675 6.076390353077112 4.572593727792443 -0.7846947712871841 1.6036476924262897 -1.4119956059015102
Ni 6.733146002762322 4.473194649647327 8.341880185304339 -0.1140605639925455 0.21780329099885068 -2.1672988114004546
Ni 4.7524428959412965 5.257239939654759 2.544613066870944 1.3174399447111118 -1.1724340972899614 -0.6045895090597394
Ni 3.0576923639165887 4.167508754355835 1.392285307248571 0.0024230076191958274 -0.679962683784416 0.4003148486749428
Ni 3.1152069831542812 0.5389872670509929 3.8038063412012 -1.3978393690057862 -1.3581266237971965 -0.8976178792411769
Ni 2.424225921667025 4.866564642437081 12.546601666897105 1.023393160567489 0.024548121653009333 0.4958701547744492
Ni 3.683195101039053 7.265019643907922 12.479229647534067 -1.7958337970776685 0.6940870390009402 1.5441143129473471
Ni 8.602903585016163 6.615190565658841 1.2124426211852855 1.0289354305419571 0.2942730412218158 -0.6028840963328586
Ni 5.429098548322014 1.4940281223328362 4.13625121173197 1.943747305063917 -0.6981545242020943 -1.473004798595031
Ni 7.093605521108225 6.067611757192821 2.980874093855697 -0.16189490986700503 0.04054475419158179 -0.7664857044783251
Ni 9.055575400636085 1.7742394213398498 1.7876841928212868 -0.7389561315994887 -0.8148550969206481 0.6428038153459317
Ni 1.5012417575584298 8.101588347265245 0.09707756549934334 -0.1346432732399036 -1.096453370888273 -0.4443601598206154
Ni 3.308410173586612 6.836757510514783 1.707883237386629 -1.3997579261847375 -0.36709825271365815 -0.7274159921703731
Ni 1.3044548998189038 3.9085401757692475 10.58536981911184 -0.6792312049350302 0.37063583355327134 1.67788829620842
Ni 0.9146167176517962 1.2021953699136012 13.153294317711806 -0.28436658074138127 0.4958182184905913 0.024185081886635765
Ni 0.5508485576292508 6.531543881457574 6.425400656284474 1.3006879220637537 -0.7540893876965012 0.09326676717564583
Ni 4.858906521343928 1.8359951765638345 1.9164656388365031 -1.308982557972378 -0.28369526570596953 2.5787650487065266
Ni 2.5250316123805194 0.49690093747872 11.662016451684492 2.204083327218656 -0.3774438576140403 -0.1312059654235805
Ni 6.98699373374974 4.4715370877662215 0.7715496810556771 0.6431550280377633 1.646180680692494 1.2187062408836236
P 8.238971520829955 8.88723563842034 2.8229667853564506 0.8342126755116537 -0.049758559480365915 -0.8576094571690392
P 2.00807602816487 1.9169008645818213 1.3839910157574744 0.3755235006628758 -1.5610699669650794 -0.23307924332131472
P 5.708189372537889 6.7916329348353 1.2520861305104316 0.4385057579223674 0.3565186774255989 0.052929501009179813
P 4.890437237573898 8.893615862644259 5.076390678303897 -0.17111848534780208 0.14919905956689142 0.5812163815514377
P 2.9480154760963946 7.902477198843277 10.490375781116677 -0.34303015602086084 -0.5794886002270535 -0.3167028309802417
P 3.248673125011125 1.7377637998332858 7.567468200464026 0.7034628237888852 -0.18600285865880223 0.8215273667345012
P 8.413747068003067 7.555815262636186 12.032613025847414 2.000559686067271 0.388588304266634 -0.3954528925969512
P 7.846740523075821 6.960833888419443 7.20329629911178 -0.7019443302618298 1.0096629554655903 2.0663614150534286
