# total energy = -340897.69812064496 ev
CRYSTAL
PRIMVEC
9.02308473911226 0.00000000000000 0.00000000000000

0.00000000000000 9.02308473911226 0.00000000000000

0.00000000000000 0.00000000000000 13.20619658307696

PRIMCOORD
 96 1
Ni 6.33538749670444 1.9413798388455108 11.301136601611613 0.23578610072951653 0.3857981431160065 1.4052238343953156
Ni 4.599309904466068 0.26605016447654184 6.113452095726645 -0.33056467656399846 0.696907796279187 -0.6769426660111697
Ni 2.6981188849581472 1.5995673435274609 4.919585198868785 0.514790645828036 -0.4738813092081839 -0.44236009867145104
Ni 3.4831272554948223 4.331387449910372 4.721663835561635 -0.7036785393441172 0.017659364952976035 0.46442941976666463
Ni 5.098891036092551 4.476388421341687 2.6399452531590204 -0.4276341053151861 0.13039786769998835 -0.1975450549704469
Ni 7.4081600850934795 6.102321218417518 2.537623472447688 -0.43520471857359244 -0.25134924527509617 -0.15220133672832498
Ni 5.172474291974466 4.635501497273224 11.685991917963815 -0.0541497465695261 -0.7930752820413955 -1.0682866786460699
Ni 5.489238704113093 7.893078704051894 12.418420066918554 0.7055449031288946 -0.23723466025058496 -0.10904537016614121
Ni 1.844480932050185 6.323504094129765 0.4611021868431086 0.5282364869202968 0.47595978900376734 -1.1114269614789698
Ni 2.7114730503419895 1.4723418489922067 0.4031279652162673 0.24457644532763687 0.8031763750311393 0.597576568077016
Ni 0.6410802438784274 0.03404951249491032 4.677925334695663 0.033283187533162034 -0.49719067335808564 0.22831113250871002
Ni 8.607725059951271 2.3584087683795807 1.3689806089212673 0.17138073787025324 -0.17713178142141753 0.25354779558831175
Ni 6.849152917508898 0.6953378569095899 4.708748192095127 -0.1806415943468889 0.3112708613313929 0.2887317996886124
Ni 0.6404071217584041 7.3488333030672885 2.382199935857673 0.4098703535738619 0.027012266922785737 0.44016283390981614
Ni 7.534032116920912 3.858550741390448 3.8614390308089397 0.9248898275832524 -0.35308471204338543 -0.24153740139099691
Ni 7.622647831944369 3.8418129192370514 12.56821861249486 0.4138447648405776 -0.10437984636967186 -0.03672023823916901
Ni 7.901497242094545 8.930715400545877 6.85838714241013 0.6248881114077754 -0.14050076046194512 0.5733655180484513
Ni 6.889883121929617 0.6659866646277652 0.35019042947946705 -0.9238382463902864 0.13562209221340513 -0.35341535590992684
Ni 1.7878159600160435 6.673076442305994 9.24676789130019 -0.12487539521986236 -0.5845115073629418 -0.8946587966128526
Ni 0.12951374881994507 4.737164592800084 1.3814081035044878 -0.5496355214213631 0.7079535125703872 0.2460949388546923
Ni 6.369594010873459 1.9478042751653053 7.105224452594905 -0.49523817761740513 0.02690299503843109 -0.16199209756650165
Ni 3.464828439685071 4.251316596115632 0.3516187837904551 0.07834794108228442 0.7130679509788171 0.06193890359664171
Ni 5.949334817010054 5.653233268877508 4.6481978797810655 0.014111242590401503 0.06846924851599176 1.1149475730377185
Ni 5.371731071819999 2.7912641885104468 9.28698017065805 -0.25925693015794704 0.23217472922917437 -0.3813627330524722
P 0.23093773260175543 5.546499199738677 12.27868587003761 0.03616796528012481 -0.4692219560593016 0.8227041606514218
P 3.8997140538776702 6.208459763964908 12.414683607536494 -0.31995219115547474 -0.013790626026189152 1.200525713319855
P 2.3153054926778136 8.411599290503165 1.357901163195038 0.27091842565627533 0.11801697753713224 0.14542622278802053
P 6.307208403127589 7.83020584973121 5.87309967652928 0.008489268417933767 -0.5751246668314031 -1.264238420987468
P 4.746900501211681 1.086722277364323 12.627580584551454 0.1605183412344526 -0.245740383728751 0.9256416181476124
P 3.8483005171498776 6.143457461650583 8.275359734333817 0.42796089252698555 -0.4952142663580052 -0.24309883234084587
P 4.7732208393364575 1.056955120876961 3.7946285023169657 0.06213199344405428 -0.6171380351487114 1.219905146287731
P 0.28664806227264666 5.515198118849116 3.5892594848829087 -0.44486383892991127 0.12835846867245637 0.061672023088500234
Ni 1.5687715553821544 1.1057700092057359 2.6263952868367793 -0.6653014822278156 0.1584393472182368 -0.4092761716332887
Ni 1.8917258036378866 6.4686584580013 4.680830767975122 0.9675871093414625 0.25926490057774704 -0.2618354895184007
Ni 5.901052290679689 5.4856384933102875 9.132784675898264 -0.7634500029757949 0.7372090670013949 0.4932751403537634
Ni 8.546936538200631 2.2987752014729494 10.31291663319715 0.289604689211869 1.176210276502942 -1.01690061086461
Ni 2.361305178574319 5.205525851299476 6.912282027435597 -0.5004150938326543 -0.11395206343913925 0.3938924900883668
Ni 0.4056336758426815 8.903032576628561 9.039139493452542 0.8926847036056174 0.8488088281582736 0.659278158851871
Ni 1.4012940799162783 1.3489782347166042 11.516965178851716 0.4055694122056628 -1.0445178583612462 -0.32967018977418705
Ni 4.15142202519366 6.927247715750219 1.4184117739363373 -0.665636496969731 0.30067945896879184 0.4276163647033733
Ni 5.610490916564494 7.847900118864801 7.916018994641002 -0.6409842456386896 0.47850569535407267 1.8730154857659935
Ni 5.330260974452338 2.927296213731262 4.762801883411645 0.15425847636766982 -0.4015484639717278 0.3637877002831864
Ni 0.6973996317678386 7.292240515710898 6.568629725143381 -0.8372319219539516 0.01281052150110697 1.1564341223172794
Ni 4.970727140746541 4.279910751589548 7.064324614181472 0.34580694743504964 0.804911355444375 -0.31231755742835243
Ni 8.250934243999993 7.011478211600332 9.175216634096952 -1.1084069437057236 -0.07583494485244358 0.4927259527185127
Ni 4.524698016926208 0.5078453749204441 10.548211613409618 0.11378519884397179 -0.4776191789840613 -0.7838195677710823
Ni 8.0683882170537 7.275168839422904 4.5596372055743934 -0.03760881149170942 -0.18283654511567865 0.5393343966056712
Ni 7.109631327171574 6.219386719559389 7.096006469246166 0.8944016862967241 -1.3686002696350108 -1.049562105653373
Ni 2.3658347671031628 5.096635264912849 2.5244966887987594 0.5325471984805087 1.1495319958808075 0.7084391939575541
Ni 2.2645235718803383 5.33168662183791 11.138515350341402 0.390935721452888 -0.37037409525145243 1.2612299731784473
Ni 1.0835912669668952 3.3480877695930764 3.7315165362512324 -0.4777197091176676 0.1672219785068733 0.29844825564542793
Ni 3.6337676548753945 2.4785421183258483 2.6499292964003858 0.03832126417770174 1.1060700680424307 -0.22171882400317297
Ni 1.2973571670402786 3.2437989564130434 8.25327844140994 -1.2504693922278336 0.6049893156013194 -0.48989773924109825
Ni 3.4811151076025273 2.4488561696009556 7.194181240220733 0.3602028111454055 0.09530128110717134 -0.2772356261235548
Ni 4.130416283968264 6.855775861692506 6.106479055855946 -0.025038688136182683 -0.5087912337114915 -0.6219287716691354
Ni 0.8094185216264784 7.4301042271296325 11.447805039098965 0.15024087056784446 0.5944418791027762 -0.16609994908728812
P 0.217128803748085 5.616500290987222 7.90709155462021 0.42130507777336473 -0.6160967383683906 0.24635024939860797
P 8.606109927786603 1.6954195724954049 8.117320405483818 -0.7687845278148308 -0.31256026956677785 -0.044214232623369015
P 1.8039853278321551 3.2972065948636935 10.447144943782673 -0.15074583522872104 -0.6023889018639949 -0.3146834865573677
P 3.986227390161643 6.223456130767573 3.7027139475203117 0.09908954450501 -0.07461469929209731 -0.1228946173444077
P 6.86090999689751 3.957831742551541 10.411170807317239 0.6303563336111984 0.10060032472258158 -0.1245036137027404
P 6.337255275241235 7.517880795274238 10.162089455962898 -0.612414661531113 1.5474503192991156 -0.22794475030822675
P 2.377970816049966 8.414486677613185 5.870021902331693 1.1527916404686858 0.3741338194042008 -0.9454211147673847
P 6.965180763908106 4.071784279465422 1.621496146319591 0.27904491141815174 -0.6934141813036316 -0.37772179386577526
Ni 5.424498071255615 2.9345688200146247 0.40124665205239496 0.026350722079386876 -0.2710007009574365 0.23408248777484847
Ni 1.465457235351753 0.9680326209730652 7.084622945564913 -0.7515661070540153 0.7121768066231154 -0.792068695153752
Ni 6.920715002413799 0.653361564489203 9.327233053897142 -0.5051464378700526 -0.7960397639863581 -0.9624600725275425
Ni 2.5250922123902013 1.4238698378827468 9.277009662043762 0.725720349635505 0.556205718439713 0.02556396451203339
Ni 6.404729902768514 1.9390248137339008 2.526781333849563 0.5742278660487464 1.2185797426080884 0.5310775559135176
Ni 4.0156336232602525 7.1644104744994825 10.386461992123245 1.0268512943194186 -1.3823114485735162 -0.7132121898661652
Ni 8.146753707836584 7.139019514100744 0.2701998811387236 -0.10969765903815946 0.05711859938986292 0.2302389456590422
Ni 7.615303040983255 3.829460316256997 8.213184364461897 0.6048962416668808 -0.09156032600750037 -0.19272063699861003
Ni 3.1184683096687396 8.450028608320586 12.433040171088445 -0.5241031814782134 -0.7243810619987913 -0.014315131071091476
Ni 0.11295368143550875 4.843673084820944 10.02911625646176 -0.2627312618597927 -0.47679231220739177 0.30534781097873864
Ni 8.459358477919839 2.2626738395129817 5.922860184136587 0.9808789413543624 0.7284444334348874 -0.5001582406268419
Ni 3.6270725260140355 2.643583360917645 11.522961018647369 0.2368111995599212 0.8172513650669667 -0.32883586679834975
Ni 1.2025065004761233 3.490932223776595 12.761676255791613 -0.5664063131217988 0.1524774732078471 -1.3650706592151973
Ni 3.0218220492455403 8.296735422032684 7.996854103711426 0.9223534343146437 0.14734118042254626 0.1376110976189759
Ni 5.76733017514689 7.843388576505394 3.540158564768548 -1.0776596352205374 0.19404989733299483 0.4973482819818725
Ni 3.198097032312259 8.408775064986177 3.4386425455226055 -0.15875302180391368 -0.3391753010511449 0.9297502409993471
Ni 3.470007690313669 4.121095437453731 9.15074512603106 -0.28998752647258447 0.789739275689627 0.22825302557726493
Ni 7.293693232350626 6.06871925092466 11.35636509855852 0.05526277712804677 -0.6676550700616566 0.42401347784346327
Ni 0.4918907565206401 9.15003952080605 0.30748236488838443 0.2601773850896874 -0.5583585031166578 0.3490434520944763
Ni 4.7809626460251975 0.4417675209076375 1.7222858072456686 -0.7829207101058968 -0.8619744190059543 -1.3961591530898858
Ni 5.965368838555384 5.666064095347658 0.47192357234638027 0.30580829555492495 0.12054051528993436 -0.11854328235424748
Ni 7.891355294870601 8.804148591195098 11.410259081275514 -0.36143539800092594 -0.7176501710328609 -0.35698147599463037
Ni 0.06417308082866538 4.847363526470938 5.859457674742908 -0.5173627774305865 -0.2773389844706385 -0.640634832719071
Ni 7.900603956707384 8.954915313761733 2.342647243992759 0.7238020495668696 0.07345410332509285 1.1326293065881976
P 8.646082193090942 1.6445023054271466 3.6874080889117904 -0.9534712387653709 0.15113561446797194 -0.6812055550525816
P 1.831839590359129 3.2896362267846104 1.5790118542295348 0.3399841701056855 -1.8569679453848276 -0.10561371877677295
P 4.726643676017948 0.9444011620944955 8.388233110315328 0.03293351750322715 -0.0801392286547523 -1.293119365687876
P 8.40928938081515 1.6236950720655654 12.364948364566398 0.28043459267682674 1.0989378278730235 0.7372494333210271
P 6.281573819441443 7.761350690241952 1.4552566380771355 0.4136375339257779 -0.6974053047408957 -1.317919969671324
P 1.6904839451542144 3.2721043731759574 5.915385460755522 1.0255289759635693 -0.33542843241420295 0.4914383442553408
P 6.887780743190134 3.9565594876061883 6.004012003480641 -0.4056192916069918 0.46027528838897497 0.3478316911745623
P 2.394510130339549 8.575729201538362 10.251138279052856 -1.4993285240912244 0.23284218760984418 0.6459860697286551
