# total energy = -340890.113730536 ev
CRYSTAL
PRIMVEC
9.13872732200659 0.00000000000000 0.00000000000000

0.00000000000000 9.13872732200659 0.00000000000000

0.00000000000000 0.00000000000000 13.37545119247000

PRIMCOORD
 96 1
Ni 6.398562238836708 1.84852694644853 11.487599673376296 0.9770207439505367 0.5438271422697021 0.2845396159841358
Ni 4.907725082890148 0.38343632721073845 6.216843213817893 -0.9025196874181682 0.23181657455880722 -0.3259135509452322
Ni 2.638112993954156 1.538870307169819 4.868972309343301 1.2177307643442317 0.7663777181455511 0.940511079060277
Ni 3.5614534557108506 4.508271308162476 4.816968381064009 -0.07047008099610445 0.5253715066676758 -0.211951460203764
Ni 5.022946157970599 4.889493321723785 2.5949983058184842 -0.36477191857332664 -0.027780255437061835 0.6249829851144268
Ni 7.034672498358429 6.2495370110974235 2.864165813344028 1.0111007163533814 0.25762376542989823 -0.3447743924054772
Ni 5.222179554054744 4.177814925317528 11.879019592845147 -0.455198645197016 -0.03852875220281752 -0.8348263978362525
Ni 5.6732031675101275 7.752528674488224 12.308932746002638 -0.8321961593022571 0.14837065012832512 2.0997525889193644
Ni 1.7753897110528412 6.853003736340323 0.06767044866400068 1.1377275470467116 -0.38835047722421506 1.2968338384249858
Ni 2.701325571391614 1.7308658311518295 0.3742464229356035 -1.919229779538527 0.3123972616263523 0.544660693914591
Ni 0.6637814122212834 9.094102995783055 4.607093850793342 0.5988405223911041 -0.07081769414351029 0.31330666081449915
Ni 9.07232540838484 2.1327779235505555 1.3133502755874655 -0.22795272072802675 0.8454975043968537 -0.021145009508731324
Ni 7.119498166100874 0.7567460305876692 4.757153582474498 -0.40665107530561584 -0.10538103394067656 1.032848649553434
Ni 0.8229990626316684 7.576845778918224 2.3836926508367124 0.33801110553971464 0.21599837657962803 -0.16883843106437374
Ni 7.59472112971592 4.009251098393439 3.9019267976607854 0.6172300806418853 0.34656002355099025 -0.7801212929838888
Ni 7.525138859279487 3.896972693536332 12.91312874169219 -0.26549802597165245 -1.2698292848116841 0.35650016548283764
Ni 8.038579980888382 8.81831448025499 7.284457678937737 -1.0220950105813558 0.37604260639113946 -0.8221737420692485
Ni 7.232626472606337 0.7833050001624475 0.43784282692393284 -1.0451287524723678 -0.7072284614789045 -0.4330349646157833
Ni 1.9044833743290501 6.431653570758211 9.147993157398055 0.21520416281310678 0.22377750630441462 0.923463636659687
Ni 8.710989265649596 4.980780069739223 1.4743088535678717 0.36235379605013723 -0.24070924906274674 0.19617799941959116
Ni 6.559266760195348 1.9760487486116494 7.17337461962477 -0.06030393909638 0.7895474713937951 -0.6560385688686509
Ni 3.367639324975905 4.391953585793822 0.5879994291155467 0.04452585032651687 -0.35419465727811256 0.10404637428965306
Ni 5.82557316947843 5.789511751151379 5.084182942543813 0.10635805314196523 0.4944267374597034 -0.8702520856337143
Ni 5.407174812847064 3.004402326941112 9.426991193989592 0.2211758070155094 -0.1259182346620799 0.014875117339619544
P 0.10604853438737888 5.447394352141881 12.625262484030058 -0.5385679507532919 0.43742512326367894 0.7603284266276776
P 3.972988628063552 5.8917741107762405 12.650956929992638 0.4542403950488048 1.7504147455129209 -0.8141238751815786
P 2.3626991662495604 8.727100842058768 1.1716990869886004 0.2069612060780242 -0.6230243187261593 0.5340813757368479
P 6.413129370314994 8.022175965202356 5.782635772654351 0.8040376945901702 -1.4707242300909704 0.7129594504254109
P 5.129631661657875 0.7844509965786189 12.986961434243149 0.011259632074219319 -0.3361226302677502 -1.3770915949354734
P 4.008730190931543 6.092158986512997 8.267674168757535 0.5201825062675687 0.6410294970543282 -0.5776255788763858
P 4.7250784770400625 1.380806878030267 3.6541996584923364 0.21671134348625262 -2.359897835219536 0.5057902421016386
P 0.25521541240139023 5.759582418910859 3.53553328318145 -1.498036030532046 -0.5452173377490095 0.3942249337271211
Ni 1.717998502970256 1.214079935313917 2.7238168933999027 -0.6932282905450706 -0.3170252473166669 -1.601010769024075
Ni 1.8429523227335018 6.685043065424745 4.683387602633572 0.9128272399917633 0.5495972119842599 0.7835115496123604
Ni 6.117582926144487 5.565585513627879 9.343247551571507 -1.1288266450126558 0.1955308527538955 -0.9467151509884597
Ni 8.659026461643613 2.13177266353637 10.061148507465571 -0.3116058760733085 0.8637862754037123 0.941088805940618
Ni 2.2913622601520034 5.3969668543393805 6.929593582948368 -0.3186342436749996 -0.532687837823431 0.427809968771418
Ni 0.4517145012469512 -0.019100854142262834 9.205921722651858 -0.05282408577956709 1.0322171866170222 1.0423923273778113
Ni 1.4088901873356463 1.236881060181122 11.45915081497485 0.707265228254111 -0.33613959954861466 -0.9318354056631499
Ni 4.204372067146826 7.0163950435550575 1.3732308730142697 -0.6289810505302265 0.8159390740134465 0.1840267087690379
Ni 5.749091159853724 7.911021623815656 8.169632073446772 -0.06522734453992637 -0.7638192133897556 -0.315505725348347
Ni 5.496058075555856 2.951251488372909 4.759694148692167 -0.03823436089085028 0.5756522572000988 0.8990813511605805
Ni 0.9481521066522708 7.845771110167622 7.441632823773846 1.130822592396762 -1.377050971505525 -2.12065488628967
Ni 5.143641330764659 4.426050177729511 7.135267954105221 0.12045798287845708 0.5053135595755361 0.09942301658502878
Ni 8.345056343031306 7.0610285881848895 9.589676991448915 -0.5086927604604142 0.33745883258067044 -1.1692407871636443
Ni 4.8419353843254145 0.1745752818089175 10.465475051643821 -0.413313832037772 -0.6373605328431733 0.33512787045464865
Ni 8.566679621249582 7.326910723209527 5.159299626294707 -1.7312795673453667 -0.5220182739247268 0.03387582681183843
Ni 7.2130970121489355 6.087589622812155 7.160467994915369 0.7924469044287771 0.24440109609203714 -0.21908550014538397
Ni 2.1976263331929156 5.514536582362064 2.467931612279969 0.3698529326406598 -0.8678828140705891 0.08705575326892749
Ni 2.176013242887929 5.32577616788025 11.492883685559951 0.6132788093036212 -0.3960082508797889 0.9969938446383539
Ni 1.1336956890886913 3.25928143417412 3.819640782263269 -0.6102346231606588 1.0619797625914353 0.2442512007777342
Ni 3.5795024423291797 2.9241277454447068 2.76219132363232 0.014756332373568134 0.5457858086579697 -0.10039515069031096
Ni 1.4378599531989893 3.437696809237226 8.719322871167194 -0.07972528104578527 -0.12141366192350703 -1.5563849027845842
Ni 3.707188741585529 2.578162942199099 7.357929391756327 -0.16806092946840087 0.36450580939613353 -0.39678472403449727
Ni 3.9835529969399 6.965209031378216 6.248877194979022 0.325589077726278 0.8349539245530525 -0.7312158255324375
Ni 0.6118423689065441 7.130482916437699 11.460661446614347 -0.2262863887691974 1.856154962565229 -1.0098290487298092
P 0.09713279193429453 5.599846602656799 8.253081448842524 0.7325389152192352 0.4263606379194012 -1.7971172917757823
P 8.632734342908964 1.7837699240801868 7.937809061575477 0.6545655838675501 -1.3504768205614226 -0.22488668020819333
P 2.1293143458653168 3.2758499469533757 10.725038670542936 -0.12644428236887903 -0.8675503704318349 -0.02584112943282001
P 3.8995315372088037 6.601158686604673 3.7546498084734425 0.48285651612360064 -1.0735057609531642 -0.11320361530888891
P 7.201426857256983 3.9429313536394077 10.36503860975382 -1.0927175579949246 -1.9040258181045788 0.5127157655768783
P 6.36322277997439 7.531526829733265 10.384271975443406 -0.32709600128910765 0.04218563222911444 -1.8778998104414883
P 2.457550017951654 8.67158307309353 5.854193835955029 0.1828298602474593 -0.009694858690260722 1.0172608224175061
P 6.620267765601598 3.870753684620896 1.5419354363403444 1.5186292813023652 1.0010633867220373 1.3073720189521483
Ni 5.141219568003213 2.7492033642490448 0.5489779769830899 0.10458219218846505 -0.3693456539869381 -0.05289067735144439
Ni 1.604011156089033 1.288953528915926 7.151706696955373 -0.7349092152236246 -0.08590132794951012 0.09123662411949449
Ni 6.830970264574859 0.5767642776479146 9.257752015110519 1.6694617627076216 0.36220364362551816 0.2871030058359378
Ni 2.884218922881546 1.4618856675380205 9.438346976658925 -0.2519195159562694 0.2769893144407036 0.4175070441835132
Ni 6.7422697764140995 1.9272205281044437 2.61086130884233 -0.3613960601225582 0.03239101473619583 -0.25131710648558003
Ni 4.046820406741769 6.743174510426866 10.471399688618336 0.41718411362645574 1.3271571719988757 0.6122331416479263
Ni 8.231471100155757 7.280111300185496 0.15250434126110687 -0.6456106886671075 -0.2178287449201474 0.422333519037879
Ni 7.9080241212279025 3.860591419750222 8.302303548500742 -0.19668733495584192 -0.22206000939267564 -1.0977641192798966
Ni 3.2431789964923503 8.769751282842433 12.155689995567474 -0.5909690900628275 -0.3319607855805767 1.0643210091301025
Ni 0.1608781571792713 4.775140425746495 10.290831229379393 -0.4944853586117806 -0.24346727142385807 0.44976513288627057
Ni 8.74326725083235 2.5482884423229892 5.776135395853531 0.3802183350353839 -0.12468461936529494 0.19230180429363655
Ni 3.74953760436494 2.1556430195095726 11.855143753635504 0.9381400077249392 0.631209425640113 -1.981237588699891
Ni 0.647996088380352 3.4028691191094023 12.394241852424631 1.5666767716288954 -0.10551293153285055 0.4993946229879399
Ni 3.436042699577521 8.53880650267444 8.199606185451561 -1.0378443029958127 -0.5794891144476858 -0.19826033586991665
Ni 5.647267459144144 8.236095296221011 3.6412254072001633 -0.8206153964431931 0.09281348168831112 -0.2006013252982674
Ni 3.14764274023513 8.7175143170144 3.522224554466376 0.419691967649974 -1.30406789427958 0.42974035302491154
Ni 3.615545583201427 4.566156007524752 9.682462490758228 0.11229010235568403 -1.5954713272630843 -0.27251122406469197
Ni 7.182719882265733 5.681044195620774 11.455325343684505 0.7964889357086348 2.4167600956242183 1.3077327447256768
Ni 0.6537754195891781 9.168702427563014 13.334321721162993 -0.47445389388220216 -0.9299749554156435 0.7031869444196793
Ni 4.254324351124439 0.5995562637877182 1.5970154602630429 1.433879293348479 -0.8345417767162983 0.7143725287228535
Ni 5.952263347447996 5.705810146879341 0.3057534888054511 0.583918096753317 0.04154337065942523 0.8041335967380862
Ni 7.824889118054771 8.73822267330662 11.410918439494234 0.9561120188223275 0.9569049470372681 0.5089110471188074
Ni 0.10505972408251651 5.109389380463142 5.812797228570874 -0.20291531814342476 -0.8550152140793017 0.038774806775352576
Ni 7.959091329948522 8.678427979917391 2.520536868822291 -0.07497593928625798 0.8531781608705629 0.6144841424656321
P 8.737710904572126 1.4297173470840876 3.5490686523360866 0.1621903296202368 1.626342048700012 -0.7264654553316456
P 1.7697145613363943 3.322219849789528 1.624034107826126 -0.7081052076569031 0.40694649505884756 -0.17845281422568623
P 4.903795430107424 1.1046071197691265 8.487606782406496 -0.35900647684445913 -0.4350514808251798 -1.3161965592223137
P 8.628018759569693 1.6162387733524883 12.379943399531955 -1.308218940333476 -0.13409537115623357 -0.19692721888078987
P 6.3491948334128026 7.843751451411849 1.4069098251077012 -0.2292601266855407 -0.9219914229895346 -0.5521960830596877
P 2.022555732358827 3.4488186404850776 5.978144223449569 -0.7798274158925538 -0.7405425022500021 0.18286174192665927
P 7.05593831702215 4.069237705058103 6.032020676973466 -0.08600854295133575 0.20476651241955057 0.19891288185225095
P 2.263882106855135 8.422580167579804 10.205523036830138 0.3270180968633207 0.38279098085856655 0.3091610140772418
