# total energy = -381168.43332085357 ev
CRYSTAL
PRIMVEC
9.23579651661298 0.00000000000000 0.00000000000000

0.00000000000000 9.23579651661298 0.00000000000000

0.00000000000000 0.00000000000000 13.51752177067915

PRIMCOORD
 96 1
Ni 6.256854985247838 4.456595061098439 4.4556188374090535 -1.79654830664619 -0.19758156463533713 -0.0674606047458193
Ni 1.249732566751581 0.7877746505692651 13.279707536512394 -1.3571442052792693 0.6264166322371598 -0.1936313217383375
Ni 8.211897622835535 0.5832544022733234 11.814408708858378 -0.09889902576075871 1.722540644810472 0.05578393973883941
Ni 7.734277642959163 3.4078241902537685 11.458627356327197 -0.2628449046195215 -1.4360212793921463 0.3900402062218122
Ni 2.2938116529774413 2.249876969056803 1.2948051008002464 0.9227295867071399 -0.03184594086600322 0.4292577569615382
Ni 1.4122456418551241 6.035509886479282 1.072771935192908 -0.41254635774412823 -0.2920318105961229 -0.4945303529171031
Ni 4.323728892739746 5.492703654950217 13.380792405556537 -0.38575854812732274 -1.2194652305368352 -0.8026035332468049
Ni 2.5145194817879304 2.5476667554039008 9.630652654059434 -0.3365594606948526 0.3727168844520161 -1.0848278708342027
Ni 1.0254874278839963 3.695713202759596 11.160174439791847 0.05498844042073755 -0.07507004166196103 -1.2507948938880524
Ni 6.922183293062628 4.4903703688759835 6.6805619266717535 1.0550490969098734 -0.9476602885105486 -0.5532178394559827
Ni 3.538316758913575 0.7025679628571283 13.446311145883005 1.8267286868843122 -0.45298749647831016 0.680514185412512
Ni 4.669369340720822 2.878880889261781 0.6125549666496584 -0.8466868967192644 1.0726709237566945 0.4764007331959279
Ni 5.058427268018886 2.67156496536719 10.545397340505799 1.0848836637728025 -1.3098981278081119 -2.6204894250285062
Ni 7.744030644056534 6.461464820769769 5.364063787067051 0.5369540692989527 -0.28290902235924825 -1.0267793034309027
Ni 7.395397798011493 0.9846559715852486 6.362359182914228 1.3758407532475079 -0.35537813606325247 -1.3367831251244138
Ni 1.1374806961668766 7.161667496144855 7.63657492259102 -2.1723188903228654 -1.7910510309770444 2.6899269509950385
Ni 2.408076927197777 6.122520325246643 12.052398560067921 -0.6534240140639391 1.1603913071928145 -0.6117081223823917
Ni 0.9399362449626437 7.3132915671823 9.994233636729565 0.5708131839402428 -0.17922543072565264 1.6169685779049123
Ni 4.659708697588386 3.9900949802005106 6.087696754567062 0.059654221327523065 -1.4721612196478129 0.6754748232163915
Ni 2.559941128944058 5.818902751312006 9.316019545646734 -0.968599352656061 0.4591272908274609 2.2449103885373467
Ni 3.2326211307678507 7.601651605309306 0.5663667483845516 -0.4238353003943862 0.12185871988072564 -0.21170052053522248
Ni 7.498247627765588 4.026733384891108 0.5269631462237334 0.4605714794731552 0.3976373018427797 -0.7023027420425131
Ni 2.8560500003292986 1.1668874722028895 5.514594339799638 2.2599618835538307 -0.20406871502157756 0.9994891002563819
Ni 4.445068787074274 1.2879318210496178 3.296301947592068 -0.60449052158803 -2.452324622992389 0.4474822503893648
P 2.5357618137234925 8.752847459269361 8.548413103880812 -0.8726686654950067 0.5617330760158454 1.6843736468224477
Ni 5.862957500587063 2.4238239602195746 7.820332176789424 -1.3984842016786367 -0.9267500207204427 -0.39050069079799843
P 0.5137698109324507 3.7991725950822772 4.11895096572163 -0.8532977171675628 0.10563197360921807 0.72786182145854
Ni 2.5779601679033113 8.20169206770997 6.532775329077451 1.3620688962743959 0.7397236058931326 -2.715439750554162
P 0.16384487695793787 2.719064666734405 12.912477490647593 -0.2344522124094414 0.29259385374717994 0.6864490628397081
P 3.424245436419607 4.699422622511395 1.728160678821153 -1.155747894883532 0.2043116842703191 0.08682486820504402
P 8.590482156909717 6.670609432370117 1.3848291799635088 0.5769668622464644 -1.8929731598348432 -0.1705916663100546
Ni 4.176547239815783 3.3282300960708673 3.3645378592469894 -1.091191094048069 3.2587783832232198 0.03666290263867234
Ni 0.4123598418517271 4.942296362906818 8.7217486853157 -0.595529198629684 -0.5187745701764485 1.074247524215195
Ni 5.613230799193297 5.007888989605235 1.8327736221258997 -0.2824588221957071 1.052497019911981 1.091457203225262
Ni 5.4106158957140105 8.493940376160836 12.711931405582899 -0.7401455239218995 -1.248109119525773 -0.4322849738236361
Ni 4.089001124851786 4.331117529934724 8.888743892457645 2.3474089587239053 -1.0236482140010887 -2.3114019445016774
Ni 7.014070232378674 7.178393523594987 2.799721801093734 0.5192530524747637 0.43226569054992653 -0.10683756388154503
Ni 0.614727225984982 1.4135294175677517 5.775996935120768 -1.4488834800667951 -0.24842050166407542 -1.4605457468960716
Ni 8.526865990660957 9.10214528266195 4.292070429518564 0.2162688566321953 -0.5079314568143576 0.13257250675380394
Ni 0.133028718376983 6.665446622130127 3.4546053466537727 0.10688178685591915 0.12595165900317665 -1.1800718163408772
Ni 6.197819774059964 6.668503670769549 0.30366190575780694 2.063442441634421 0.5636426343337325 0.5449409441591712
Ni 7.660529807956788 7.60538286709277 11.876237748485604 -0.12474658295148193 1.7686227838805153 -0.5727199140446524
Ni 1.9635026271759457 4.166932775665818 13.140761443321882 0.7244242565319008 -1.1656265874498246 1.9273009865824358
Ni 3.6044542976051233 4.311546877164527 11.009926502431968 -0.5091257342327749 1.2742646948752185 2.1625913786224564
Ni 2.8317967987367836 8.460349784313166 11.84356611838906 1.0886192195558348 -0.051970479530020174 -1.1012284236794132
Ni 3.567631176984651 5.352393434617583 4.566664512971678 1.4846326126419462 1.9496112200438616 -0.27490852065227495
Ni 1.1093761674364788 6.6282540696499055 5.453143967828655 0.7523042707716205 -0.884609897017283 -0.08177265049311723
Ni 0.6077966842960925 3.6316721898721234 1.9601352557743343 0.13516160763721882 2.2803355621141757 -1.054970164042822
Ni 4.1518322483985814 7.291033297632428 8.422470088573812 -0.05184346703385265 0.23096708207431835 0.6921417423491112
Ni 1.3565445532014833 2.7024494688421976 7.504211181561585 0.4278256525007019 1.1265098239540212 0.919286622463862
Ni 7.021357275812221 3.9737845635925964 9.00229062171077 1.8903488348381186 -1.456659524467788 0.9854534480989221
Ni 0.6394098921144555 8.004544755754967 12.44969204709944 0.3590298738832268 -1.203508707207579 -0.12389477647414793
Ni 6.76859199737202 0.011232575695665438 8.15755419626647 -0.8168466734293803 -0.08593243829776168 2.6644660877197723
Ni 5.408639435264354 5.9974768765181325 7.124031625432935 -0.730568935977058 0.22730737383454402 -0.6288586660197493
Ni 8.931209161156133 1.7451037474888873 2.546052338176798 -0.14969759646986477 -1.3372749771591679 2.1019130869057925
Ni 3.0482007463811978 2.0688645935763335 11.813813923564181 -0.436115660423636 0.4547934393387974 0.20516451918891762
P 8.181825869451973 6.369864191145028 9.93059345740992 0.1854726971869451 0.08060279855473215 0.34910670123224385
Ni 1.6421430881768675 8.544995859178133 4.256085919219721 0.7193224165289612 1.0713648033507612 0.22050834863483956
P 5.720052021439693 6.478874297160436 4.3840432617420015 -1.5171074453412001 1.413470904895456 0.5940515856428931
Ni 0.1593110244591694 4.622322193381798 6.425148745376802 0.11948867698665226 0.10275568050268753 -1.4203516911756895
P 7.23320797578523 0.2903799068201845 2.371905853809762 1.939136545764783 -0.6005145676594174 1.732953098393048
P 3.1514846585704976 0.24313603701584519 1.95306525355839 -0.9519090364845735 -1.0298067774033168 0.6128396648836736
P 5.607218295675884 1.7590128570084334 5.565771735330654 -0.9697728041388718 1.221340078962045 0.00940560958461606
Ni 2.7207086385102874 5.2662234533311505 7.168571254023913 0.04878591115445147 0.5250701733771731 -1.1819476932073516
Ni 9.013555522694164 2.2331694131996587 9.739279474520352 -0.8273938528176074 -0.14031461259306802 -1.0520203373858785
Ni 8.251168229526844 2.8099726116221166 7.420592127266719 0.9374028724485985 -0.5398085080286122 0.09084530221834677
Ni 7.868612302960358 6.41998685871646 7.717329032813533 0.16425209724527196 0.892665677442224 0.7160499164252765
Ni 1.2190327792064473 0.6328127626789897 10.674449124912586 0.9337148820740498 -0.3852330146411559 -0.30623252757653713
Ni 2.3749388893783006 3.7629590370303907 5.460051420026311 -1.734500902496142 -1.4943745225200586 0.115269239588666
Ni 6.262082446063285 8.02881642894047 6.326010782233535 -0.5193350706656088 -0.4103534638578675 -0.26088649534157005
Ni 8.535362923435182 8.799968492980334 9.63377527685396 -1.3402667127976402 0.04009403980740837 0.5440302594194437
Ni 7.876361136218592 1.508316396982827 0.6110624619362728 -0.42603873580360824 1.8348942534142398 -1.8967064016250301
Ni 4.856505049276629 7.844349865571349 2.2613866186472795 -0.5357749613891869 0.05644805568539956 0.702876612268112
Ni 5.496536510495113 8.563107256102324 10.158944831398614 1.876595232697452 -2.3054652673022686 1.1505663506825925
Ni 4.337222391417075 0.18682169147502095 7.372929875881215 1.4701483029828424 1.6194211532104625 -0.5308232738108664
Ni 0.5998659058469329 0.5079743486326398 7.87202308260549 0.1784265889734411 -0.3726515784317195 1.1090227229128513
Ni 6.046611313864736 5.750059124247798 9.415995195531982 -1.6519718334529743 2.9091554044761896 1.1902922085173049
Ni 5.63638494100306 0.7725605230051558 1.2739950041405905 -1.4834229086045614 -0.31197560070790137 -0.33923160821037707
Ni 9.196193398357527 5.534920480723023 12.189614788575158 1.7340483883397555 0.5310050508043694 0.5808502564612706
Ni 1.052160408157867 8.500266896759035 1.9866299851758764 0.5229351293120413 0.4148526372798016 -0.5967011074505981
Ni 4.188590718443597 8.256035494279034 4.804194421515833 -0.6265102203922307 -1.0362232224526218 -0.24674311396165244
Ni 7.89831462448417 4.707171455769627 3.0681934750511592 1.7085723555558383 0.3811652723296855 -0.9537682011804992
Ni 2.5983435707649565 6.6745623532694305 3.029209178051156 0.41298807326723713 0.2708865439770754 -0.5290597541525404
Ni 6.343708415474806 2.9832915686233155 2.410620465552148 1.0549876475443185 -2.2798156850549636 0.48226181996239526
Ni 3.936758255449263 0.6768665883743971 9.777399300968542 -2.1007908003758917 0.9228481145628752 -0.14073010286393184
Ni 1.8211328242252116 2.107525637699056 3.7923270227211296 -0.11900016738600794 -0.12357827367499363 -1.6634268693674514
Ni 6.134212843607696 0.1105506368705609 4.342692753680307 1.2078384449311845 -0.22504120350818663 -0.8902562966697828
Ni 5.825109206555787 1.4124395935814926 12.593152597616081 0.8652777723475743 1.0464474712837912 -1.3952194148844357
P 4.169278667975223 6.62218615135353 10.742387643920411 0.15231189416426028 0.35195445509368417 -0.25827116920591
Ni 7.753839059932868 2.6456400846093104 4.654488625410135 0.6732312785978535 -0.006661728290891753 -0.22003346588095007
P 6.703950657712456 1.2373288920605119 10.193698210024843 0.7721328754617734 -0.40841639473615465 -0.17149258085776917
Ni 8.227238280811607 8.52742013845058 0.5737212131325029 -1.0257277222379368 -0.3180557454637103 -0.40280136254222243
P 5.466400106536096 3.5813278631848418 12.295767339155407 0.925329229113516 2.345320194515677 1.3097559458032928
P 8.952322191940782 8.332572539822515 6.485301487940418 -1.2378043951656552 -0.3264794507510313 -1.4463411732609155
P 3.5014844024966094 2.77097907882562 7.497669466905081 -0.13232490951937212 -0.5627589461771985 -0.1009836762039293
Ni 7.093876749880931 5.602101664418361 11.740481699404024 -3.854099322496839 -2.485265339584468 -0.3737576670117047
