# total energy = -340889.4537841359 ev
CRYSTAL
PRIMVEC
9.05219870686827 0.00000000000000 0.00000000000000
0.00000000000000 9.05219870686827 0.00000000000000
0.00000000000000 0.00000000000000 13.24880781776925
PRIMCOORD
 96 1
Ni 6.219521153390021 2.0756872115694236 11.402586403019445 0.6850143872757106 -0.5113283983110484 0.4835566275144188
Ni 4.481680092792652 0.4593691996552584 5.868413531672185 -0.3226423363931282 -1.179317454673356 0.3574077648987716
Ni 2.4601159758232476 1.6785763172713404 5.0006562088757756 1.3716287720486895 -1.3543098211542677 -1.0111418540039618
Ni 3.2722430129758338 4.299794269110065 4.898878720696171 0.8504360793490515 -0.06970363514372512 -1.558869873989967
Ni 4.830063002773642 4.60761427778604 2.127082878773058 1.0205006695110426 0.09359458282870978 0.511281604233513
Ni 7.271522397568182 6.079347860217032 2.6362608952416875 0.3390791417929128 -0.3575566317718101 -0.09501151778089444
Ni 5.185778193508272 4.3842060197615424 11.765205705520495 0.8134044805170508 0.33409634386634074 -0.3713904523311088
Ni 5.767119430890413 8.104342760403265 12.272237445733955 -0.5765683412564651 -0.97136483121634 -0.3048670146875782
Ni 1.5117624040267925 6.659820086546891 0.2816401455060938 1.878264907090391 -1.121848928143242 0.500220718433661
Ni 2.721851242132823 1.5550862258624996 0.4479263155803489 0.2812257211195544 0.2039177912660101 0.3661598000597887
Ni 0.607319236526336 9.186170998511356 4.873586878195343 -1.9353189717909056 -1.0273212919773018 -0.7327631154148992
Ni 8.609093346604478 2.4032410128909976 1.5626701577333635 -0.1752898431166723 -0.09251009151527939 -0.4063047477097905
Ni 6.695603427064349 0.680005674510911 4.701471997531867 0.7602520648637875 -1.0511538756205252 0.2690878002054398
Ni 0.6605262486420731 7.598813685134378 2.3374342457369988 0.4648554515604897 -1.749081114303162 1.6423150270895008
Ni 7.822855597051166 3.8709282626097967 3.753029714190491 -0.3646665033437139 -0.4945046418854903 -0.0028251281536209407
Ni 7.512944530530635 3.8080788486930994 12.598661532687562 0.590324514500293 -0.3378884639189213 0.7911700945988825
Ni 8.049875682261716 8.59979673878474 7.03911806471286 -0.6705596453029613 0.7950216071344889 -0.22056002780838144
Ni 6.663676323091399 0.702228821733364 0.4553074782056802 3.0406369921586602 -0.1531439031472524 -0.08963791217380691
Ni 1.9910310515594924 6.330075653197686 9.123288091460353 -0.09965390164891225 0.06832320985643071 0.22855692997092894
Ni 9.12226247737469 4.8288862169736735 1.254346846822942 0.16700754850322205 0.8250407792043986 1.0629968910020402
Ni 6.467451817046139 1.759738328675216 6.811039777502185 0.2068799592181276 -0.7282135483710039 2.3286697304431896
Ni 3.2250901111910037 4.206692407935756 0.28268295876883376 0.9366104584542901 -0.1198871979766516 -1.0353593317904297
Ni 5.846471002602033 5.053996288308893 4.478878437368884 -0.27195792266438323 0.44670243480054683 0.7476863123836349
Ni 5.426901603921503 3.028168585864224 9.048299679407073 -0.7071125047263306 -0.6129270823911573 0.44139876319944626
P 0.01595268934832141 5.737428219937401 12.387343390927954 -0.4045579402220129 -1.105978793880205 -0.34863927467752215
P 4.112250821389177 5.970404651735476 12.64593392349208 0.47992134475467674 1.289929397995669 0.012423056254701186
P 2.5542316832252205 8.182571859505684 1.5682082927519772 0.0862941925125546 1.414314483842674 -0.404811965214348
P 6.354245023089316 7.654792480418961 5.8544496103258075 -0.793710087411917 0.9159452167954548 0.5082513020476215
P 4.714728942178418 1.1042324292997712 12.851303865642777 -1.5649500187457757 -2.737180484665364 -3.2186100385344507
P 3.9838182296204736 6.065787666922029 8.104812569503405 0.18300752347590418 0.8592714182524943 1.0910537971392564
P 4.683516961883909 1.0008020096811363 3.6220380659167835 -0.18638183926477578 -0.019240079176534607 1.0898595197208394
P 0.19604074641649674 5.618437071163817 3.4319708652648884 0.6964843355885232 0.3167205715920545 0.7093560493448686
Ni 1.3782786855166935 1.1728571458347676 2.6801142706873793 0.5635346480009585 -0.7110249524068593 -0.4647610920744706
Ni 1.765504579095054 6.51905840047392 4.675132815669068 0.06873510058286872 0.288131189990136 0.08022484639002313
Ni 5.9564280573112525 5.555125995125596 9.14822237212196 -0.19222544252974638 0.27739914828461254 0.3019063893973575
Ni 8.863939889885017 1.8779600405795895 10.252006717597899 -1.404051668464085 2.630950215350514 0.08400693914027468
Ni 2.517208191518568 5.140146061064936 6.818472537658746 -1.6456662029499205 0.20472588898960226 1.5773123969658707
Ni 0.8027933153191563 9.148875940850866 9.33444691452704 -0.2308981765095959 -0.7647090721938765 -1.408814379960051
Ni 1.796852342366482 1.1866255396943814 11.357805177231471 -0.12515770234697154 -0.16983370509810752 0.6250997131979492
Ni 4.33492585133831 6.944801398505045 1.314729536658939 -0.5889453747645792 -1.6704454667771296 0.2361763941893997
Ni 5.4658170051065635 7.795898150033461 8.030672348445949 0.26044066605340305 0.22494247314679325 -0.005219853638042623
Ni 5.175811723002397 2.629600287613874 5.0444697546482375 -1.0665660964105375 1.1474159779790691 -0.9307504001290873
Ni 0.9216224297402821 7.266760941177545 7.17933028233923 0.11526384027202728 -0.047873426642511104 -1.2003706757992294
Ni 4.968244812285147 4.532290934389692 6.996682263546204 0.8565105676779057 0.0021070190406737906 -0.47563248757133575
Ni 8.410180337616218 7.1653672662127 9.105295941798703 -0.05038539443108742 -0.1946546207965293 0.49763650264625264
Ni 4.615915143775037 0.43342378842552526 10.490962126479653 -1.7209900124939004 -1.1267872459851238 0.5017268706655423
Ni 8.068830985839647 7.258152300440865 4.712468608222634 0.9080395887951329 -0.3475735524171691 -0.2877565802595367
Ni 7.27905382668797 6.099796776541074 7.151958244632 -0.36033933672326973 -0.3891063815536331 -1.007293169681833
Ni 2.5011224348528653 5.337918493047077 2.45544142053784 -0.7288879487302092 0.48276369929947827 0.6300069206915796
Ni 2.339730788486627 5.520745745369637 11.52171967130887 -1.4908875924127225 -1.301994556690319 -0.0781921322307105
Ni 1.0492584280443913 3.330720215035731 3.956689696051851 0.19452375164561983 0.7335059071181949 -1.7129275472007404
Ni 3.371744778462271 2.717270829711413 2.994203832017639 1.6516887549949166 -0.1196470569413875 0.32035482591053216
Ni 1.1169779247332596 3.4824984266360857 8.236863324997083 -0.3740726271489622 -0.3096389821549248 0.5626031373256246
Ni 3.5038978237985616 2.73620802889242 6.991819422532803 0.7386635400597343 0.158623695314901 -0.5460791715286725
Ni 3.812541582534513 7.015200345938454 6.038872765237092 1.0543001345589906 0.19679017908229335 -0.4236573800556252
Ni 0.8419630832809798 7.517298637990513 11.197879081796115 0.1495279036612199 -0.11035071924112608 0.26767575034926155
P 0.12200281520165207 5.348029798728331 8.001577677371534 0.30563757430501554 1.4998111201545976 0.20806652332706102
P 8.589830268278867 1.4839268937583432 8.000027035775116 -1.0241295245128814 0.048771255866432134 0.42343857917659977
P 1.7629518591289721 3.3148879199269445 10.438536319091122 0.7066425070684476 0.1611911989317611 0.6675455410669858
P 4.115681604606003 6.2589344254904535 3.932669687434833 -1.6004055313399081 -1.7568538162700453 -0.9849086313390459
P 7.15571762265297 3.782877528176884 10.447929785434399 -1.372807622848139 0.6733778314780468 -1.1031706350074486
P 6.604275796788452 7.791987600298186 10.11832656638119 -1.769946130677629 -0.09518352458238447 -0.38193454639554225
P 2.2488286115384093 8.5999234695632 5.857986304264632 1.4456824566309943 -0.5628864728939984 0.5766125642308392
P 7.026533698411982 4.077227865542468 1.612326897612585 -1.5294929634897465 -0.359206251560091 0.09281553857084016
Ni 5.315985016175385 2.5826827429890375 0.7076293633353662 -0.11343244349024337 3.7990795146175347 0.7816644691012926
Ni 1.6412450508170038 1.2878924838807695 7.288421041655707 -1.609538346879112 -0.5143476447533464 -0.9413222621076628
Ni 6.5203619170523455 0.8120356099481276 9.363343342455153 2.055648656621615 -0.21096492792077862 -1.7362042583404935
Ni 3.0105167988647197 1.9642003353202457 9.104912128583946 -0.20870055736663412 -0.47750039401801 1.4506400577465857
Ni 6.34531955540649 2.076266552270946 2.7320892785925355 0.5976706704527192 0.456888117084297 0.053954085618952236
Ni 4.039932807881976 6.768120588937698 10.522097163087238 1.550600177782007 0.9178856283512773 -0.23353818523560424
Ni 8.252934598145247 7.468280983322658 0.09942844267890115 -0.7208331967465328 0.8670816583255325 0.21943054218962854
Ni 7.482284734342264 3.8075085601900387 8.19243966104833 1.2424560350050537 -0.4560216553189436 -0.31230418769191376
Ni 3.062313478460189 8.359053520706883 12.477819209328647 1.0117504341222383 -0.27466195185910763 -0.03556992668480971
Ni 0.07591083107648441 4.981451969840161 10.342124974159368 0.568800267275272 -1.404101033644782 -0.6342299576339917
Ni 8.606649253019933 2.2241342141360256 5.778069875369028 -0.13308569894479658 0.6163340511901773 0.5285583890360898
Ni 3.8211954842635003 2.5697833601817073 11.410495308815069 -1.0156271434688249 0.3454423650067793 0.3010602393469783
Ni 0.8653322388286315 3.4131585864226475 12.80570070023452 1.3245058504189575 -0.3463813318812809 -1.4103462432235452
Ni 2.9741541176457407 8.48470708754797 7.942289398329506 0.8932979117095841 -0.4550996577253066 0.4577769474471536
Ni 5.713222641251926 7.6612919589141635 3.6400302155784328 -0.17607582935307742 0.6013599463788482 0.14798241355097094
Ni 3.154102770857612 8.332123230284562 3.6801613270168443 0.4748683557118016 0.5509236441051673 0.24695702974467143
Ni 3.650443864688294 4.525755247100646 9.69076045557996 -0.49283136794812543 -1.0189934888378966 -0.43007125400176904
Ni 7.112656314572642 6.031325947379919 11.238248266054057 0.5412688946242227 -0.004822875309940081 0.1394106127215599
Ni 0.9022778816285174 -0.11364854124173274 0.3717348663515646 -0.584329987479755 2.210528054402735 -0.7489358685200199
Ni 4.7347433529763165 0.1275373293408813 1.648906831594635 -1.200677151296055 0.8676555285511315 0.4001770375454979
Ni 6.547925861366956 5.912859826117091 0.25399925750456204 -1.6672187323097158 -1.6570618463813722 0.30531798618206774
Ni 7.9577243019258415 8.96798585899902 11.312149509072137 0.2855963393834243 0.2397669397541355 0.5466509848717425
Ni 0.11612612796058626 5.000497795402703 5.740218107503169 -0.574366705619456 -0.4223407181267307 0.035407432965016444
Ni 7.9013562621074245 8.865605494401894 2.577621658829333 -0.9284592901020656 0.25017656512323366 -0.26781304725807425
P 8.504531402178184 1.5467129422858115 3.6730327207285827 -0.7035679819081818 1.297564031722791 -0.3585899581323308
P 1.9502508974914063 3.3215684423913725 1.6429975564391084 -2.4151750105252856 -0.6177664127613296 -0.2030212475936697
P 4.66858083442279 0.9282124302200971 8.10184435362795 0.9063979394266519 1.0440352622978728 -0.014948136669400064
P 8.713428986069243 1.5430920629012979 12.677651016460729 -0.34414704323412343 -0.24565116644905435 -0.20963746735860672
P 6.400275452264947 7.664903786100215 1.3950859023997602 0.6520392179012706 1.5779945106345596 0.07809160209710422
P 1.518334300109685 3.225225894167923 6.014812926946845 1.0152792732111031 1.005285652333501 1.3104953950724785
P 6.771813885909902 3.74535616555486 6.04947198441541 1.0130850937732616 0.921010547133504 -0.9761982480492414
P 2.6019639257115728 8.400195762713421 10.118750209269178 0.23300750954311486 0.07554852396027634 1.5267539672920287
