# total energy = -381163.82621152024 ev
CRYSTAL
PRIMVEC
9.35514776533704 0.00000000000000 0.00000000000000
0.00000000000000 9.35514776533704 0.00000000000000
0.00000000000000 0.00000000000000 13.69220438740941
PRIMCOORD
 96 1
Ni 1.5361713750933847 1.9427273816875916 11.81904188813437 0.0749276025468258 -0.1570715203364327 0.148604363405686
Ni 7.421719285548853 0.22613730658103143 4.253852993732645 0.03579849775584802 -1.3514764654705305 -0.9837313232014929
Ni 6.2579950487160545 1.7572802898122877 8.138098136516623 1.1464225037175484 -0.5750087100788291 0.10048513930095598
Ni 4.530688651975879 4.265386019756147 4.970160745578271 -0.03493306443175919 -1.1699043888895724 -0.39318852204280674
Ni 5.839960275954719 8.414637236579336 12.07479852769156 -0.48514762615062257 0.22410635039874305 -1.3976298240981413
Ni 9.279165141254744 8.941977554488785 5.484850097319987 0.6446082155445221 -1.6996226025617183 -0.6177628132169038
Ni 2.664617350136254 0.8253158032984541 10.10550439770616 0.13785843774309162 0.7833619114083735 -0.6587598244545558
Ni 0.6191816734236617 3.6554210377977303 7.797204040251548 0.09440550876577936 -0.005329639743029531 -1.1337405373745055
Ni 5.819687670996146 3.6904186451581458 6.713644063635644 0.4084104811988837 -0.2458501698337379 0.3343148876350501
Ni 4.85367512460842 3.3685454350960105 1.553777762971573 -0.5830673187172474 -0.4827888961104589 1.3824975964423933
Ni 6.05685937423091 1.0041254179157484 10.435061926048391 0.7160982531647087 0.2992473545079556 0.1444926552301576
Ni 8.291560914089729 6.6830087616246425 4.1056075820042075 0.46399001823640096 0.42839412340966226 0.13685699306177077
Ni 1.7367644510148028 7.578838990338529 3.768382574647648 0.5303771874123834 1.0580945686044165 0.7863695878864457
Ni 5.852374556886895 3.3098325284416488 12.383256456022918 -0.018183098666929975 1.385690135237762 -2.4562944062734147
Ni 3.1373703815052 4.490564423703005 2.9121536214529744 1.1703281066905522 1.1634187811652286 2.0218314509618533
Ni 6.844038918132215 5.564366981319468 5.5122756481721105 -0.10180617210522466 -1.783436194744264 1.1245506433451216
Ni 3.636551704986729 8.288875986714043 6.021338814116833 -0.7196525461748703 -0.8846366364901604 -0.14041205740288076
Ni 8.306547860625784 7.601955560182844 12.176053032771678 -0.45300832241391664 -0.3237098584256941 -0.46574428192334627
Ni 7.0401882989196585 8.499675528722126 9.276577507414622 -0.8987216538283167 2.257068364056119 -0.03402649345708979
Ni 6.457362600295261 4.4316269935050325 3.3253845258957933 0.12928997934779024 0.19482945581149672 -0.7119824312241223
Ni 2.7811544244181823 0.4102456768275529 2.2851332698129827 -0.04996141951979138 -1.0676266764645679 -1.719025432568362
Ni 0.8740009271862748 5.542896917461635 3.805611384722701 0.7574716739051729 -0.9675351730576046 -0.502331851239393
Ni 0.38269757354120837 5.783782614313635 8.811028875251305 1.5488695682441453 -0.027890555762681 0.6980023148949462
Ni 8.892367206498333 4.247274453904834 2.4417721200134235 -0.7048977564631989 -0.5833372845491824 -0.05733791448952061
P 5.740973458665077 6.053426035043186 1.71846765324001 -0.37509746886905077 -0.2906213034018414 2.203368046319186
Ni 5.274488376221947 8.782799717216006 7.578292649715741 1.199099779506606 -0.07742671481959569 0.278891673669739
P 3.2870714542080504 2.4975437682464765 5.76373359738391 -0.9201934505488475 0.4714490456176075 -0.029694441740639184
Ni 7.233662107479068 8.71645301007886 0.29496593438984814 -1.0044392451728055 -0.7676223891859296 0.9251551654294969
P 0.7476727553733629 0.10974617260245062 3.518608552012935 -0.20624901050234803 0.13439747577768466 -0.8503455765177742
P 0.5862552957530609 7.3192336430379346 13.673678393000824 -1.2954978932223817 0.37816839448489065 0.6245703230570405
P 9.190637379038328 8.477110912589188 9.64504870792376 -0.10121970347413535 -2.4876310116031677 -1.2823785822316043
Ni 1.5512986488441978 6.457166142194601 1.6867836391773918 -0.09771708963751558 -0.7722385478017023 -0.39428072666572095
Ni 7.8938455220252175 6.63337034819124 10.074724090906578 0.09078051041868238 -1.8129809982809164 0.38483603631305335
Ni 3.6489379204759533 3.1357425858140178 13.303194900232072 -0.27297505107498793 -2.4233410912758457 0.8758856297704076
Ni 6.575405853348915 7.733844431759198 5.691438887370592 -0.43349570630228573 0.3054938496382997 -0.5966435147397854
Ni 2.909160909719589 5.431383557468011 10.217889657460807 0.3671913266480966 0.6205000096424088 2.146125519756949
Ni 2.56758575870556 9.018521372564946 13.188947030580213 -1.1005972178533174 0.19879255422430278 1.8409129488044942
Ni 6.9483488144349765 2.210481062591747 2.1901635529244525 1.1064791305553912 0.6364477912209168 -0.30358017755535455
Ni 4.061209922284598 1.3898568658400048 8.083836409114356 -2.1201193255011743 0.7837141525414696 0.5011141767822079
Ni 1.2311000102114968 3.5176290680539304 4.92194992767633 0.6844209766660857 1.4799442060273416 0.6813809042881813
Ni 2.438849571887416 3.256583028015163 9.176268807761968 0.7219565117176986 -0.9548038415338653 1.1206924459412957
Ni 3.144873209920878 8.326109474362921 11.24706441872546 0.07216778041350153 -1.5989508011712528 -0.9846656620903043
Ni 2.5691854889537904 0.42089557691285007 4.801445335275836 -1.251366450120806 0.9659775987624977 -0.03599775825084768
Ni 4.990728037687834 4.544244260921413 8.654158017389133 -1.5149109519105137 -0.0321398179573382 -0.18875316771042977
Ni 0.13336792041989212 9.310046483648952 13.036539513662081 1.672497978430784 1.359011340394995 2.001682229707488
Ni 8.26601200585629 3.082315337582173 11.696414612731985 0.4745544240158086 0.6758257787979071 0.06570428417634491
Ni 8.805326912758343 0.07849249533175418 7.653791497799344 -1.3616708895050291 0.9697488928794717 0.7506574791968168
Ni 7.713936677558993 4.8473136242061 8.109056951665263 -0.8470877317021088 -0.8534730664031623 -0.4594000848728733
Ni 8.470515533495606 0.374680212004754 1.868054593141525 0.9319318220316983 -0.03076864864142443 0.87157131866577
Ni 7.62149846362468 0.8870298413190869 12.337881183373835 -2.138991479815329 0.9180818035224835 -0.3044540955198756
Ni 2.784222912847537 5.386796923765861 8.050893192177984 -0.4384075417816063 0.6082445893138234 -2.229705141551818
Ni 0.5333173217433357 5.743789358107868 11.326711339277281 -1.4420183775158455 0.04233604176404967 -1.1086599402567938
Ni 9.118696293606199 1.9817477025377097 3.8005455722699706 -1.3661973166204728 0.5892083986179788 0.03431240012862478
Ni 5.869962234469782 1.6771440950383454 0.06490227233991369 0.16691781700289315 -1.7366254050383125 0.15138346881271994
Ni 4.124226196858177 1.7709949362678794 3.7455298199670755 1.0791855849467609 2.534892515693292 -1.099203165719268
Ni 0.23301521113365836 5.755782657395773 6.04189020247539 -0.10524476547312843 -0.37929890854490805 0.6943014690045913
P 1.447493930514562 7.106357258251446 7.360997828693936 0.7655423667284493 -0.05310896400983756 -0.45101880278771356
Ni 8.628776566298637 2.3118908631228625 9.099318976277777 -0.5785246936518875 -0.43845639274167075 -0.2621504496556582
P 4.47876758251576 2.5096680396014883 10.258130825079311 -0.09787238426845725 -0.04394555234301464 -1.3438348897648726
Ni 4.686395729470333 6.374101786206062 6.4535466355686335 1.583103806836667 -1.040236457377073 1.3434260843622283
P 7.496672728524434 5.578895525620651 12.245430807747578 -0.490069231821956 -1.1739513052654365 -0.28171217383766967
P 8.190946301108903 4.037756567124865 4.801061774222167 0.8813903616387208 -0.618439013348322 -0.45688631731208407
P 1.7220113831700088 1.5329812697445742 0.23962088088965652 -0.3883306797298732 0.819159380722957 1.0860296044517876
Ni 5.693187364466466 6.3526784980864806 13.38992179652577 0.15260037193895654 0.39379170284444437 -1.7123403072387025
Ni 4.197514423551974 1.0379536318198546 11.870593429262295 -0.07261746635641042 0.5909742322691499 1.424838266192133
Ni 4.944289084750891 1.0853093892265433 5.832960754482636 -0.8942682460426534 -0.09938547847887401 0.21698516597292955
Ni 0.8078141930739514 1.6491441381204832 6.087854849426453 0.39921467363222857 -0.027926551206939 0.6922206752161627
Ni 5.954046301552223 6.642950019385322 8.442078691182466 -0.4018911920231272 -0.5498522654178595 0.6093308803994667
Ni 8.11966943115996 6.398116450224823 1.373807174530855 0.4319152491890433 0.33200732254779597 -0.23726345660599138
Ni 3.2845268540471224 8.255421978715955 8.510403076532922 -1.029925048148736 -0.7716325387865872 0.49155352967696636
Ni 1.745548934658596 4.145771101897214 12.454277930441007 -0.6210039458620208 -1.2440979414838509 -0.4110959984508468
Ni 8.689070492905929 2.5826194809798677 0.45206599336945735 0.7184150742233434 -0.7309618005401024 0.052356659224845316
Ni 2.1838469572308536 6.381258474158673 12.810453660393128 1.3383741237606177 1.452128212256338 -0.35966467925374834
Ni 1.5532912952937483 0.8251792181427573 8.13457966548528 0.3831848738628756 0.3600747702079734 -0.0356750848041063
Ni 1.7474386744839914 3.7915477912597466 1.4569052090509367 -1.6106724604835552 -0.48317121915054206 -3.054569285969036
Ni 4.582609721435998 8.623228963741909 0.4817872974550065 1.2385649274807637 0.4647729191490124 0.14938675009766528
Ni 3.6209660290010426 5.417734397045972 0.6947516206294084 0.7633854682864466 -0.04799735381488508 0.9457291329261066
Ni 8.251586368179261 7.128379275820658 7.634485279593066 -0.16268398142720372 0.5652359469627815 -0.9773521591480264
Ni 9.168100828348342 0.727199014740305 10.771807949845247 0.5281225870502517 1.3943730077237406 0.032450921439853786
Ni 5.079368061676055 6.413571154143402 3.998082321453979 -0.48661135518034254 0.0963495198660276 -0.42804805292415316
Ni 2.885127535405527 5.710877948673509 5.435668215091926 -2.5726103419590407 0.5121843185534404 -0.9108793722367732
Ni 6.6019370520856535 3.4616852851041084 9.777726218447045 0.27449148771951437 -0.6173660919991174 1.079405928487683
Ni 6.8293794017639256 7.693130829184343 2.7650991200204422 -1.4359755137558754 1.4489320739165432 -0.45865575050768104
Ni 6.448129069564245 2.184108901365067 4.393787292288404 0.023615068315778684 2.1350373802635874 0.8968465482927909
Ni 7.848024008833206 2.3607340890059763 6.516735980373746 0.9182682085016767 0.42438937312564323 -0.5230222897092089
Ni 2.0009164000735264 2.2944715781976837 3.0504994159376833 -0.9131126324426662 0.8317451878077676 0.7394258721470556
Ni 3.631958327490347 7.608101892189205 2.342037826426508 0.2066519023677215 -2.2688720415592667 -0.6564013515247082
Ni 4.7154247526297475 8.95336276917941 3.8024484093020767 1.3184203063465099 -0.5161263339203241 0.3062137585234597
P 3.7284660306526147 4.877736564365434 12.24024150734586 1.847561050248631 1.3551505718880081 -0.985035386724897
Ni 9.266694729436665 4.926196229194879 13.603396910761889 -0.9003252508700107 0.350238500843842 0.2411023707361073
P 6.835572509508538 0.31563145554974054 6.355688049085638 2.368817249196353 1.3792551782456957 1.0562071217737166
Ni 6.75093648871472 4.2967257643852275 0.6786607666705968 1.5835961730920534 0.29524671798899477 0.0813749008340663
P 4.7539024749161385 7.579811925694178 10.186712692400844 1.2753872385154357 -0.6802503902281639 -0.9180712619995222
P 0.3886886100965705 3.8029049405074193 10.229199095455462 1.0299366181129617 0.3063567118592272 -0.44308592109388206
P 5.37981798361861 0.8488991950105287 1.9076118994667803 -1.4015718394650247 -1.148913645570518 1.316728263356068
Ni 5.519920674832076 5.361865455277354 10.908278037226037 0.044343044891749436 1.1239901428559609 0.25432863961839425
