# total energy = -340868.5239880967 ev
CRYSTAL
PRIMVEC
9.32171902131143 0.00000000000000 0.00000000000000
0.00000000000000 9.32171902131143 0.00000000000000
0.00000000000000 0.00000000000000 13.64327804148902
PRIMCOORD
 96 1
Ni 6.3806420797239385 3.7702158569490156 5.257246300858101 -0.8928291996032817 -1.7284330990355072 0.8845062815598831
Ni 8.009537900705222 1.2497721876525485 1.326156217458118 0.451681633182693 -1.0422370327468695 0.693061168839587
Ni 6.133327553013392 9.13725149981049 0.1957020329677196 -0.4737627813524486 0.3984204598657074 0.9000288026755145
Ni 1.0730603606256048 2.26329472904404 11.07430377522412 -2.278405949191631 -0.5042979738268283 0.5115091468632867
Ni 1.260016756830299 0.2435970251745264 1.6368108925816724 -0.6238301024569063 1.0840136024630234 0.5821072687968233
Ni 3.223254673078522 2.683741542686666 10.872778464398948 1.0394047055043971 0.35137338577923355 0.40718303654968585
Ni 1.002383087190025 7.47013663094133 8.15196817394864 -1.143644940972411 -0.48787942325948885 -1.505602530025394
Ni 0.9216877623483231 5.951749788669992 10.734326700823468 0.9520468476140186 -0.3986649717763457 0.36973440478492453
Ni 7.012048715988644 2.474608776988007 3.4779585264380253 0.27116756555260396 -0.6597008482115865 0.11244488276599345
Ni 6.514455355926491 3.422916572276186 8.620191593966812 0.5297202705546749 0.15772689453224448 -0.007323016023974485
Ni 2.7002689504684234 0.5021153259476194 12.029469559178423 1.4421078519058583 -1.6030044024153358 -1.866587727862779
Ni 2.2867481740406 2.398674054038095 2.69621213836091 -0.27209162002877013 0.5350846201903817 -0.08771935499485538
Ni 9.262861663295643 1.5684258298474654 7.695368005347883 -0.46708562644258916 -0.16746649041751158 0.5427344234261556
Ni 8.777647546061562 8.892202150816225 4.598262291112544 -0.604666642154578 0.4046307024414773 -0.7429590821112947
Ni 0.05930011539968887 9.403377255457071 12.036645418462347 -0.24356548756461924 0.3732653007563185 0.363043108807678
Ni 8.651049280362722 3.4057366441646355 2.205831924458668 -1.3042154756010378 1.0062559866665701 -1.9953148927285635
Ni 1.281559249432465 8.364900472310495 5.770260580657063 1.3737540459218083 -1.0908776765727086 0.1251391904042103
Ni 1.3188368037016398 6.21223590432336 1.7926998637130214 -1.0035897526883168 0.6646556211137005 -1.3175895829150985
Ni 6.708151354966047 3.2208776347342765 0.5053443694081952 -1.0058507808083517 -0.38671397006205654 0.9322418970729494
Ni 2.5442420178959178 5.426331097401665 7.322074175079899 -0.36375324750082516 0.2446893167564173 1.8255809464331143
Ni 9.03586848399865 3.4717437363826966 4.562094021404016 0.2239914220874336 0.2849913588095737 1.92898557337371
Ni 9.162009985466636 7.208699699950263 13.477170738467084 -0.10476808294702601 0.3583981538364989 -0.4530173212749811
Ni 8.270173163862545 8.77428240550363 7.1408375856517905 -0.6337633024102182 -0.7721542156180121 -0.5765685983667812
Ni 8.671016402454388 7.521806919341939 10.55806884151168 -1.2259076437280694 0.8342504707281244 -0.8285873589050762
P 5.079003847571844 4.078261382925297 10.366326674773903 -0.1720790494888585 0.7987494496080372 -0.28496204823353505
P 4.46499153895562 2.927523137897334 1.042882227544578 -0.19882829255824466 -0.1934091784252024 0.5206000534209615
P 8.73169147140614 3.7580137267818867 8.310079442888885 -0.29711848109041084 -0.4530743997651616 0.6415452603484822
P 1.1529661358682572 4.204598640492222 1.976378743518355 0.7468573887244363 -0.848671531249461 -0.4194754807637937
P 0.7394556133313306 4.918288090343825 6.06779307194848 0.36257413959105944 -1.1656918934701215 -0.6627298648458975
P 7.279414260261831 7.500227139863785 1.1759385801645699 -1.0089404754772688 0.2852502688979152 -0.623307654294533
P 4.4092569810723 6.081685229769774 6.5077204139511275 0.9833965655698933 0.2581747528373618 -2.1043695188660854
P 9.021606253933175 0.7463536853891424 9.897789112825533 3.6094606564727 -0.2003249317084292 -1.9443589705059867
Ni 4.902487776643837 1.7628396012497938 12.83479057459906 0.40565168750682395 0.008144997704637585 -0.7949768699394825
Ni 5.5797479486549975 1.3309830035547867 2.136223852192049 -0.4941117773224459 -0.2463836737397047 -1.4723725643276706
Ni 8.828106010992556 3.841405824929433 13.354218197067988 1.5824024098942684 -1.1210081774095018 -1.623148481463379
Ni 6.544126387494079 0.9340176000657118 8.050271016206601 0.5186609274167197 0.7566782314696 -0.013014924202429199
Ni 3.1763291396474083 7.0698340520513145 2.870805138659826 -0.11445831365159644 0.6878752537632734 0.8990978062208129
Ni 4.299167479717222 7.435851348470207 12.646950479433446 0.4387122175062186 1.362436821136776 0.8488324823073575
Ni 6.924722852424346 5.9041158045951025 4.982197795787552 -0.25933946256942436 2.6411862912562256 -0.24743011272634807
Ni 4.654753772578423 2.6502858932062785 3.7579727112182995 -0.868910226893839 1.3766779044368227 -0.0016899861079132184
Ni 8.626346725020559 5.484274902687283 3.437368965409201 1.6915313409131514 1.4825273933734855 -0.47575641474370967
Ni 5.471755834074255 0.8073913692098801 4.949590422735895 -0.649536763194391 -0.631933448290331 -0.24951553450046707
Ni 3.6975996659620507 4.037413610280256 12.898573504664427 0.33425780914486947 0.2938344110225004 1.1955899665811347
Ni 1.4739502078124351 8.35539231893351 10.163996899599287 -0.13125893014870296 2.7706580475975184 2.3626147199300664
Ni 3.293270104465312 5.259770622362501 10.887131115138695 -0.5039310774057127 0.40350481636715024 -1.0332654253758786
Ni 5.321881236039798 1.9140099182248398 9.88534648230828 -1.4140260060679777 -1.1235491986638007 0.6779055441450712
Ni 5.58172415308237 8.177729676568868 7.318991482607577 1.161244142111413 -0.38559811129005844 -0.9879633590049695
Ni 4.1660160455634605 0.9028802620998893 7.718507308414242 -0.6788177715466954 -0.06697749446181368 0.5835887384383562
Ni 6.75183293018619 3.238374501291726 11.472304821693767 -0.8220369593810681 -0.12334867416269077 1.1374478110227637
Ni 8.705450832429465 6.359528386195636 6.499016724923588 -0.6762183862506355 1.252071703717947 -0.48020853697779226
Ni 3.2864466061594766 7.755782066167718 7.384533421047686 -0.33725365854839984 0.9160658015337191 0.19368608623567288
Ni 1.9534035027063432 1.3097481276795229 9.20386450376336 0.4651382729082312 0.17847955369856358 -0.23674435087772774
Ni 7.040768932218534 8.03264644209889 12.11891424947075 -0.5356582333056646 -0.7679805438562967 -0.28971421820653975
Ni 3.6057434469651897 3.5324281270534468 8.640029144164417 1.2476486349495868 -0.4188800132716398 -0.718960148093536
Ni 4.810864600621902 5.988607865584299 8.6101362556847 -1.0642287065266123 0.12296815089482048 1.6893101648921163
Ni 1.5572584104890081 3.284367862823136 7.1251062526723805 -0.15410086774388299 -1.3979355282640185 -0.9518504153324961
P 7.9670308620787065 5.924381221694674 12.01005521502328 -0.2914180882715239 -0.9264175770816884 0.1766111330312571
P 5.13143851693021 2.5665395697368445 6.853386533455675 1.2513944751452641 0.3631004444081746 -0.22314321515452537
P 1.611706571150736 3.73647123417972 12.476231585549701 -0.2745904751912238 0.8600471200762543 -0.21299044299123962
P 5.042555926293405 -0.07601675407708604 11.336172301804751 0.7262859923309879 0.04990794057403663 1.850924310293909
P 3.404384994910064 6.3445670272053825 0.803656156407765 2.00402913267311 -0.4015430646550891 1.033070278645937
P 2.04101833955955 0.38220725797295657 7.295920228089895 -0.21419191949850855 0.3566438901495535 -1.2122129198497962
P 6.731371756987681 8.294008799337982 5.253112118482913 0.12409917917547014 -0.1621623045957788 1.43582047623525
P 9.250790037194474 1.7513179565694486 3.247795962682037 1.0538530197192433 -3.334121733151226 1.0529760164309285
Ni 8.995384258394493 8.04881962455876 2.289833663028621 -0.43282696237003515 -0.3746033028414516 0.05533065425150471
Ni 6.827031237335336 8.778234814358377 3.143493384480324 -0.5835396303679757 -0.08566941444436213 -0.7240936126653593
Ni 3.658634880554411 0.33658396868572915 0.8635817591521554 -0.1626464433210489 -0.20635262595974782 0.03471657754557892
Ni 7.502501639299064 1.39307497379409 5.7386217342092 1.3694299646251575 0.5302715150724545 0.38648899853544405
Ni 4.198213262979247 7.96481229295741 4.950927157240072 0.5537698553047108 -0.33660136967638155 0.4407086791109572
Ni 3.385881382700934 4.649496323064091 2.215586171217174 -0.02149390820771782 -0.8171184390335282 -0.4121246968256774
Ni 2.442290377225259 5.767822951139337 5.016278932612641 -0.38541453452434266 0.8409209407697646 -0.7811155385763581
Ni 3.9398804644141947 8.913632782790426 9.645606784454731 -1.3266514360070507 -0.8077673368359314 -0.5022444337319093
Ni 7.252511779236365 0.845942270294051 10.690995622237613 -1.9451642400161016 0.36458448515286884 1.9557533283858577
Ni 2.747874969386322 0.1166389411223999 3.335890868063592 -0.0728889748502422 0.18687934772648462 1.6484609920862385
Ni 4.6390653195064 5.521347379138524 4.2136174036218605 0.39947435505151846 -1.0909118722447533 1.3607517201248693
Ni 1.3086201996808808 4.068771872986308 9.262298631468223 0.3396118743679312 -0.013914038977930875 0.9470848756230527
Ni 2.188926054885631 6.4735236878104745 12.86451940082443 -1.6853542655681621 -0.31211649716113987 -1.406850571365461
Ni 0.9623556258167224 1.4708460753864196 5.374196587395003 -0.8554903539435074 -0.15389440816003175 -0.44805792038717673
Ni 3.301585077810674 1.612573491017461 5.6082472401446575 -0.17569607741615548 0.6073254199336637 -0.3265231595047731
Ni 5.323344745922334 6.373771972823119 2.1741110468836307 1.5043424323660477 0.2719700068492412 -1.5588513620472055
Ni 8.016426651044037 5.4353638431097995 1.0440315954969133 -1.1609309817463682 1.1740155828444683 0.8323195722539988
Ni 5.404620813857551 6.43129630075387 10.96810422720651 0.02012530999496534 -0.628162411283673 0.26450866547518964
Ni 6.265145981350576 8.239877577122153 9.674489198595166 0.6577794628191574 -0.5723440187624724 -0.8283595591649863
Ni 6.3819005117885395 5.195077892523023 7.079087722499678 0.489959188606653 0.6594565934112643 0.5398658436291089
Ni 8.697639231909942 4.060195891509029 10.740315905279067 0.9613840658545442 0.133392431551938 -0.06519597708135869
Ni 5.9884121094853615 5.242283077524048 13.11645656798561 0.386794702701321 0.6682546513188684 -0.40223931939116536
Ni 7.180240491852291 5.624855746881689 9.778901773081046 0.1971722450120604 -0.4388253460453152 -0.7628452795122603
Ni 1.884404138690231 1.7553729043331623 13.625923933706197 -0.7310821281680505 2.334400205169063 0.47185502280677444
P 7.396327259922744 1.5280907517472604 12.933991375993692 -0.2511366150436578 -0.07869632556063866 -0.7835526872629408
P 1.6570660557903472 8.601420448422466 13.48110077519624 -0.09637394534605984 -0.385063321832511 -0.8722362059432784
P 8.176769539512174 6.990319789006538 8.44479319714655 -0.6686210335193516 0.7288900056127382 0.6485201490044186
P 2.8821263663817347 3.5899058463892137 4.540523563644859 -0.061663281337751855 -0.06268529484436301 -0.14958498215140045
P 0.9992137027310304 7.199294085482246 3.7508649004830543 0.8264718552239703 0.33464681705317206 1.1080495603663045
P 2.6620032939855616 6.929765902401746 9.419523404931848 1.8980279486499312 -2.341031594442652 -0.16454803121913597
P 6.614617226549718 4.7219074362331215 3.179402510400733 -0.49494995695302496 -0.690583910943688 -0.6440199471412199
P 4.62270570266659 8.764960686506587 2.6548451459677325 0.3192942458565017 -0.5509645246454318 0.30553832972298994
