# total energy = -340854.88583747286 ev
CRYSTAL
PRIMVEC
9.35309076091669 0.00000000000000 0.00000000000000

0.00000000000000 9.35309076091669 0.00000000000000

0.00000000000000 0.00000000000000 13.68919375349841

PRIMCOORD
 96 1
Ni 3.5145173759600103 2.6218209834990587 7.823771548529586 -1.1235512555463296 -1.550336125487343 4.042626233129076
Ni 2.7148655301672786 8.225126701761724 1.8372949560488925 -0.1596112560391509 -0.19914993756372157 -2.190003452086822
Ni 1.8423156951574067 4.689190748010175 12.230049072567608 0.7007742212131286 -0.2783327158424755 -0.8304876612515827
Ni 4.1098790138388654 5.81753826163174 2.4045065967315935 -0.917675312112684 0.475243222552717 0.6060072153428724
Ni 6.254439836216168 6.158972839046633 6.704323500745858 0.3844902229378604 -1.191494456355522 -0.30821587655515303
Ni 2.021483501347235 1.6689468052255494 6.476193199848202 -0.5811269071614249 -0.2881461023884715 0.045174282543793166
Ni 3.953710457775409 7.734313912159644 13.035945041737472 0.5826777965883126 1.4457192234062004 -0.7815202302139445
Ni 4.178025632960764 0.03622171450362022 9.166051371307518 -0.23922803653152996 0.8377983359803828 -0.29280519842703767
Ni 8.938514991671767 9.02397418175093 6.145709221070136 0.16222323974070124 -0.34707295863166676 0.6919046866376407
Ni 6.090246328298938 1.4493549408632191 3.3868430108318908 -1.4522958481824537 -0.1631236400677836 -2.6648242423901394
Ni 1.3247343598612733 0.5446295384032729 4.563991210691506 -1.85669746533226 -2.2292446569756317 2.3487323055210196
Ni 1.8556344963692626 0.039580409387874105 11.202360456784607 -0.07154403078657355 -1.4465563745955152 -1.2798979819015959
Ni 9.014826859008519 3.0277638277385104 10.920171162035627 2.108792330524129 -0.3318088333837447 -2.748745049574511
Ni 7.992365685639356 7.822981212362169 12.395688568313036 0.444589245112286 -0.202092050911181 0.5422469422667757
Ni 7.035516443801915 5.544100653886927 12.988362127913597 -0.865528969126432 1.0412111625855165 -0.2253584776382893
Ni 8.371736399090267 0.8932211008513908 9.376413605728935 -0.8845790437793476 1.0547850446152092 -1.7907113882494383
Ni 7.057402676130386 0.9617596144752395 5.1878208508516295 0.7538412762414372 -0.23109126635700844 2.719560457590755
Ni 4.6418360496003235 1.7022344551644508 6.120794457960486 0.900817617125397 0.756270197397904 -1.0713730308808773
Ni 2.8754393919686447 6.244693915666479 0.28277386292014633 -0.566270815985199 -3.1879892283248 1.9316957732160214
Ni 6.813558247482702 2.1854712412682136 11.096952994778023 -1.971232654968379 0.2040538026232421 1.178413454801848
Ni 3.5848526183147564 3.7717180181825043 0.3977860138062637 -0.9070044626623992 0.9066177687469418 -0.6774478877823623
Ni 9.028641374029524 0.16084977797815703 0.12010023224795004 0.9922941251698395 -0.13440158954274273 0.975641604214823
Ni 8.220871045475633 2.857341161389332 3.959585134068363 -2.4573069066983293 -0.5199657622710722 -0.864883365122633
Ni 6.345108697836767 5.323451890271129 4.334642202070603 -0.304470807690424 0.35813435865215093 -0.09639991348798882
P 4.272501202511999 6.6454177352737585 4.6362831196287795 3.400418399495931 -4.90630683619286 0.9022427796076976
P 2.565721145248558 4.031425288722961 2.4233156622070444 -1.0826444900296386 1.4136488252342172 -0.8195792418691948
P 7.9933851725298695 3.9522233163479616 12.456372356334553 -0.4114171292356915 -1.2471236156840522 -0.09017038763850922
P 5.862180563727379 3.7723353221712563 5.8336770197013035 0.4694291869741012 -0.331913477282409 -0.03129392501727514
P 9.271606612147773 1.8424559915184866 5.637949566358673 -1.030491205064851 1.2917394546212142 0.2465397397015947
P 2.5319284284097683 0.5998249327793449 3.050760271937661 1.1800538186187484 1.829837407716623 -2.992349875017498
P 7.413082010740262 1.9487632208541303 1.668863562717975 1.568633895355266 -1.3336998582134 0.4268743443310261
P 5.1857369822350545 -0.14298443935823682 5.253830288739743 0.8672976309910805 1.0637851912312906 -1.777497974882958
Ni 1.4777135119828453 4.307687529870849 9.841148107733474 -0.13488829937117414 -1.483277641275949 2.1628955401264363
Ni 7.71132401512401 2.1882210499453807 7.231097988929022 -0.622282041243496 0.210591860852076 -0.36477937477249434
Ni 5.357553259104294 6.849923064274624 8.829051094211824 0.6730667279955311 -1.156361360097815 1.9456450363072622
Ni 8.364936702123257 6.471656015530876 0.8781673013075127 0.24004230490270917 1.3327938014593625 1.2213835306054706
Ni 1.287247172180712 7.315837926330383 6.797164150035974 -0.10131354873952228 -0.6076028419647664 1.2086838236506152
Ni 1.5175202661665952 6.13381302495963 2.7162095693064243 2.369057647341933 -0.3215748143605623 -1.5645574112930474
Ni 9.379934109082967 4.576261530431557 4.873243673492806 -0.06367722644398711 1.3021102563325768 -1.7806059243843206
Ni 0.71180294102984 7.194715401264697 4.474504579740273 -1.9013652405532804 2.0889770955704154 -0.07723336786186699
Ni 4.574512502463428 0.4056435453358145 12.244422902414785 -0.006918324386388086 0.7757087657384899 -1.5689285437775493
Ni 0.2132560806959597 6.127219095988873 9.032239508036687 0.8597149335478161 -1.2131673133432654 -0.8800950398660649
Ni 8.557900317152615 0.5540293945956292 11.540647719165941 0.881774741561333 -0.042256080455733674 0.6447115738916058
Ni 1.0626233450009812 4.693652172292516 6.852263207577439 -0.30363005695668355 -0.17090534089573148 -0.7891258104753442
Ni 5.704833518230851 2.967296096113054 1.0631620830275281 -0.23684590945259856 -1.0692058480262296 -0.6164741763124674
Ni 0.8112291015090493 4.8145782824526915 0.49997601259874797 0.49344200494893087 -0.9070368585622315 2.030776061749651
Ni 6.187434294164385 4.965658757154315 1.870176681849736 0.3012098775509651 1.6676524774130248 0.9486581336474438
Ni 6.816008757256232 0.8588129506419973 13.18558233453812 -0.3384019132202301 1.1044916678117171 0.5107506714307075
Ni 6.971419712969857 7.736128411762944 5.0825649089150104 0.445447222237207 0.06762824067193514 1.7526680603234717
Ni 6.538221962317941 8.036540333198062 0.3064446649615547 -1.6862230413263606 0.1273012310525356 2.172661104153632
Ni 3.779275315499344 8.326869622816899 3.8702359935509896 0.42486399876921666 2.9080058642527793 -4.719808011734246
Ni 0.10020901417403542 2.719626253353258 13.008498396964866 1.6313364165908097 -1.9920459921693043 3.367148067478575
Ni 3.1328458021873895 7.500664352417103 8.51270711801247 -1.641036160377077 -1.039976775957783 -0.5678813550054284
Ni 1.0320387382855531 2.6516386367739164 3.6338787140396063 2.9743794065820066 2.17493987288548 0.2866350650605838
Ni 5.919739484133111 7.156077783423281 11.738442205561816 -0.02858681049875722 0.715988981280354 -1.0331499828439368
Ni 5.211224154497912 8.143240392344728 6.968949561705776 0.6186822397073797 0.8876656531244712 2.0669080315855175
P 4.279113837664234 7.977961925901814 10.772573778325082 -1.4594103477400477 0.2505822852020846 -0.7709787072526721
P 2.976275063222171 2.8695375917125485 5.019758904604889 0.9909072721246417 1.0962160580664861 -0.33862791318810714
P 1.7426678664276911 1.9405699133670615 10.009360638741107 -0.10835554318796824 0.71235781228567 -0.17259327012111564
P 7.495108616518338 8.766492946806277 7.784250063613365 -0.5575578615922333 0.2190785581668485 1.2304440981458422
P 5.1377275674734975 9.028211131855546 1.9446319606748628 -0.1406149174423062 1.0388915133134042 -0.6205627445595441
P 8.93815022113296 5.503844951347722 2.7121026271630773 -1.924364529661931 -1.8616468389177359 0.5909318090669888
P 4.640348908172877 4.603993444471693 9.75223669186267 -0.0713339716582965 0.049228912229141025 0.2544433108193876
P 5.376717742027815 6.2015855204519825 0.3300939548942641 -2.912682958013474 0.3971192245557805 0.7341710515060195
Ni 3.1767772693868896 8.330115145303216 5.853444776977468 -1.5661656363204317 0.6056254065234216 3.3669513780867364
Ni 5.952147943542579 4.1315127127173925 7.968931516793636 -0.14014749088758444 -0.2829326765083321 1.6676290803742568
Ni 0.3154152142890064 8.382585984347115 8.922260255277044 0.3042610056724631 0.6753835490541659 -0.473951757434803
Ni 8.117528745904144 4.769346735640516 7.574955952154304 0.3638602053923346 0.006604649800711206 -0.13945946368162432
Ni 8.867394089694974 5.633534907530024 11.2922707827463 1.5299493343008748 -0.9460741749703512 0.7287611933443577
Ni 7.778815917894202 7.240685842245226 10.039531838845887 -1.4393703983700372 1.7602795541221425 -1.585386432223257
Ni 2.057651903233645 6.871790590421619 10.815366974381686 1.1893560698562808 -0.7550622931327319 0.038094492878876327
Ni 1.737177602164096 2.1557471189007424 1.2187011760842725 -0.24599260894887312 1.720060815811412 -0.8423142215728655
Ni 3.9085443825984054 2.202372276232978 10.30174760832245 0.6522729311786315 0.8715592344809119 0.42469353462962345
Ni 6.304076688766251 9.267771844944921 10.27283626954017 -0.07874389096912245 -0.20901114662851744 0.24824309554594667
Ni 2.4297084997269205 5.985772304748073 5.171831742233885 0.08435995160431922 -1.9008016547403264 0.2085707166569892
Ni 0.4851335929055636 2.790840686237438 7.994475742909998 0.331255531983436 -0.6318681422700343 1.6710391344970705
Ni 6.213997071862189 7.529331575531105 2.997358800365265 -0.23238504546776756 -0.7366686211168926 -1.1272580149739553
Ni 2.279666218097289 1.9931623425905638 12.26376509406234 0.8141421300140237 2.9883734068682535 -0.26860443281111807
Ni 4.394334562473824 5.388455870904838 12.010118626320539 -0.48616038368585307 -1.0402973925219954 -0.23821553610661556
Ni 3.8750696708447308 2.3640310965600286 2.647367080233569 0.12789438455184426 0.1887670516675007 2.347835504738363
Ni 0.2372327288045223 1.0547854549619817 2.3355818004602376 -1.9627091908784005 -0.8906728153819111 -0.5493645271481635
Ni 6.710431068998204 5.236655208216336 10.349098565496007 -0.7477169085112542 -1.8424016175348787 -0.2789325542100035
Ni 8.047352506091956 3.9744930253967183 1.2057153449027127 1.0447839675384394 -0.9283659590573107 -0.25457289441871644
Ni 8.380977252740065 9.010935973261235 3.7458557869810276 -0.32179438657053616 -0.431780780493708 -0.12441876729841797
Ni 3.8929995457907474 4.383690745213225 6.841516506318714 -0.37390370567126574 2.8383564793857574 -2.6428917039831066
Ni 3.7715496625492086 1.3555902062081227 0.6839185716106639 1.7652582382836568 -2.366436921889634 -1.2418801078969257
Ni 0.8962842380683029 6.863803050930801 13.156902952406158 -0.44823532650530545 1.601680284287274 -1.1845079977353599
Ni 5.6103298894074 1.781408368267233 8.400305414751513 1.0644451934127925 -0.6487937143807794 0.9574669901883253
P 0.19235005227690016 7.812000683834978 11.092586036712142 1.492127892577727 0.8815821659345526 -0.47182005580378095
P -0.02796387069045465 8.292983375070724 2.005630947854275 0.4895228724001827 -1.3859732136958196 -0.5542948745702454
P 8.908594454398784 6.3243354833061955 6.114935681921787 -1.840997280988184 -0.6129031711317573 0.1934909395057313
P 4.924944753168914 2.5307125266137427 12.673263983400632 -0.10218618115246272 -0.1283291580964177 -0.4079867633979038
P 2.076273906894323 0.2700882659512977 13.367114602066684 -0.5421392130443179 -1.3098433633107764 1.296096188928013
P 1.7708300226418052 9.255912125888296 7.608946954516752 1.1834517885567037 -0.7247898674014356 0.5666567385697079
P 2.3103162964478874 5.19633403404196 8.28129107633832 2.8131133885482518 3.0870963120624637 0.15788476026634743
P 7.616633324485785 3.1048052361528775 9.404873190228539 -1.0194994819400378 0.7263713529559427 -3.875759838189409
