# total energy = -381166.76905152755 ev
CRYSTAL
PRIMVEC
9.23761737066412 0.00000000000000 0.00000000000000
0.00000000000000 9.23761737066412 0.00000000000000
0.00000000000000 0.00000000000000 13.52018677464357
PRIMCOORD
 96 1
Ni 8.123616160665824 4.699231393267351 13.064623713946988 -2.672507212856694 1.6742838666866133 -0.3543584365494865
Ni 8.062952727249298 2.980129271758528 8.322040182256648 -0.5537050635050464 1.413744470271817 -1.221932204020089
Ni 7.997661247519132 7.242957144169557 5.350438155113135 -2.1378080010301894 0.5217398234523595 0.8305627374638921
Ni 3.1654543518867935 4.843088808920701 7.980289908012543 -0.3953713886267385 -0.5201909909080009 0.0018483660626484296
Ni 8.60433253215395 9.35345711459846 4.548515046700074 0.9555463761268446 -0.2696166761257163 -0.14451579515860916
Ni 8.426388308322291 2.742001970614752 0.6421899235089679 0.47540520205187803 -1.4695068127441016 0.8683510119562593
Ni 5.100568918501756 6.807394246495953 7.031984743112764 -0.1456015720236202 -0.0173397768300282 0.9838112845098089
Ni 5.895114865665169 1.7213376249178076 11.529501675474082 -0.19718921429292488 -0.30517683261851314 0.1250000937231847
Ni 1.215772062643864 7.440207988351536 5.3678251985692915 0.3905886225261144 0.21407673407688294 -0.9980652233256617
Ni 3.3318238411256567 8.571612891349728 6.384502588599634 -0.15672005053428492 0.020661642114409576 0.21556463147631907
Ni 3.642106171722223 3.742260419491671 10.329301464468749 1.1825675861795375 1.664908339008984 -0.14146698102995636
Ni 1.798231552092949 5.170571583102095 5.897112962307167 1.3139712694362211 -1.5692915835439232 0.07682661934175156
Ni 5.109751110189898 5.720080491312145 0.3062454917960457 -0.22611875284308153 -2.636558305565911 -0.5919011149587936
Ni 1.7939452976228307 2.9415067934405 4.798935769069784 -0.9212211204824134 -0.11340930356179177 -1.1329776910665519
Ni 0.7244231935369722 1.2580895879188907 8.562888885484254 -0.4686326592147348 1.7230561509943099 0.5199343948125046
Ni 7.683277414800298 0.3544399892561787 12.604220863104958 0.9903956225955458 1.6099852046085434 -1.726421467922117
Ni 5.861545364060838 5.576426303241432 5.282594321697423 0.2760027821577182 -1.2553642584262894 -0.47086977607536973
Ni 2.829685434904329 9.545045299318838 0.9000238338361569 -0.07580949093114685 -1.733584047108827 0.6243767189889957
Ni 7.7822769603956825 0.6895668918298649 6.853058560552281 -1.1320572361348116 0.8505173262089482 -0.2928620198069021
Ni 0.25168997099943957 6.370196290543875 8.610385019069517 -0.6724869442326612 0.27437450252567586 -0.12217110891482187
Ni 0.500419285624584 4.305838218990493 10.00288286381097 -0.20410599601741622 -1.261085220070467 0.6399848578398978
Ni 5.721225955868815 3.0331254827392806 3.95189613731177 -0.17941492102863937 -0.4018194582449273 0.5148148141977521
Ni 4.079775246161318 1.2120400652172951 4.651755582440354 -0.28106991226798045 1.522521931488552 2.16873760072951
Ni 4.958522075857337 6.124835934981774 11.680468361472697 0.9258740458733925 0.8034885069549194 -0.8016370555684775
P 9.319739811115848 1.1591454680278601 10.729768806144781 -0.13601495677644962 -1.179367591185001 0.8444873179647843
Ni 4.694806574536345 1.3889127254314266 7.715957333849732 0.38385824578081634 1.111259325552854 0.08576634503354261
P 3.551392768927907 6.2025520101048475 5.53540758697179 1.3484957855756516 1.1839115018019415 -0.48501907099255825
Ni 0.5071627463211065 5.178017102720448 3.9914155882786093 -1.728082657674624 -0.7701968347813252 -0.5986834279879496
P 5.575548729589145 3.6981600340598924 13.341098212410495 0.3572308730012751 -1.0921760836691576 -0.25356399353822784
P 5.92441658803417 2.6544478329686694 9.57498256976444 -0.36587646449141503 0.45511996944028077 -0.7015926033493659
P 7.307038496021305 5.489768214482422 3.2567829799994503 0.639025579250422 0.033521785906529364 0.9012202518804544
Ni 2.971168782887806 4.974309163981113 12.09991808312857 0.5366205972189338 -1.4981748701027553 3.912935675908758
Ni 6.736772661530316 5.917506850224582 9.402573526274363 0.40677474536767366 2.0264913183313684 3.316007797159334
Ni 3.9487673563009316 1.0027433679555007 12.597920808043277 -0.11587859103789075 0.568428228647834 -1.0536761278217466
Ni 8.449722529855736 3.5808145803230085 5.79684786312901 -0.6315909773492479 1.5784177142149076 0.07042431535983357
Ni 8.392791093865782 2.879411529328138 3.4909260967618425 1.209201129606666 1.4845801621374561 0.6703202755986455
Ni 1.6102183253034665 8.83354553251397 10.052975691645262 0.6650425721394739 0.09561984078885469 1.5115955143840352
Ni 0.39122880052179626 8.690630353834655 7.178272575902079 1.0274112805879467 -1.6056917194395122 -0.23755836213859086
Ni 8.538810111988973 7.2836396111661115 3.126597238086996 1.293492946977211 0.4627468898579192 -0.9035635553016502
Ni 3.4980640037210247 8.248582648751517 4.039183307815209 0.15881549961073294 -0.20977553559836776 -0.4364781859693773
Ni 3.9978283422724807 8.19216851933554 11.304228518931966 -1.6230420377925017 0.8416549907223118 -1.117956020846739
Ni 1.8322075088625511 8.925108796108395 12.435354445884904 0.45057708726460466 -3.356958528540083 -1.79920014244674
Ni 2.6567479996994012 1.8593568663790985 6.813160367272348 -1.376594600694397 -1.7763741456911601 1.4416969896206848
Ni 6.8761775456004814 3.903382942051596 1.8920423279989693 -0.4430720371368111 0.5217331385841402 -1.0229365326460447
Ni 5.527383792504668 8.42098430214768 12.904585687668941 0.34877760002759933 0.015848022775850124 2.2755584524405066
Ni 0.9957043035024183 1.3611998732539372 13.282907689169942 -2.3420978309236373 1.3826937716135994 2.048350323187988
Ni 5.077705815455327 5.102795184293348 3.07285462762093 1.1755153073184466 2.2223139912940693 -1.8449439243407582
Ni 9.171605378609772 7.641292443751401 10.874867757575682 -1.1651766443965998 0.21854479715056557 -0.9103109013278129
Ni 0.7384366591213893 4.198654144385356 7.750663062393342 0.27275907840943997 -0.7438211730012738 -1.015792722512412
Ni 3.770924746260588 3.435599234912963 5.984400132810606 1.7683291638994965 2.0514197061419313 -0.4228104586742976
Ni 1.380977612091272 3.5770456324268705 2.074064036147678 -2.896151278907038 -3.003924210118659 1.897370003350958
Ni 6.801787012738707 6.690750851680898 1.3475475985095664 1.9870809348545453 -1.950072990171629 0.10269525957839733
Ni 3.2748739299009157 4.297561313806817 3.764709677278916 -0.9909324689356225 -2.1038290729815836 0.36525271486448707
Ni 7.584767462926714 1.1862209246052673 9.39340703853579 -0.8378579855737247 -1.96766293533925 1.4975130681490403
Ni 0.7999111553449755 6.110028034301603 12.496181385129276 0.016686459516745453 0.06865925303961079 1.1868042499687044
Ni 8.048874598343133 2.691499916329973 11.609838462651407 1.1300134662319055 0.019509787898153497 -0.12009674288429638
P 7.027563619428714 1.4110460567038483 4.584316356666434 -1.259002112289193 1.0152957282713353 2.058854565153422
Ni 7.561839696558538 8.07713246994678 8.77483123636726 0.022167537235974727 0.19869716629701908 -1.1659713723837533
P 2.994004173082058 7.041955827326225 12.956272928265177 0.37199903244938515 -0.25235068995641696 0.6350575957416096
Ni 1.8011968272759402 2.3149007304726736 11.416229087245549 1.2245382741843684 -0.018879610513322324 -1.8947261379702078
P 4.09214441584987 6.261155454842846 9.79595653917209 0.36307164805276826 -0.6695366033550856 -1.47709388106274
P 1.4604580721363123 8.570097922097359 2.5187971166068146 0.31016194453793033 1.087479963745069 1.9834849899731712
P 2.128873591422578 2.9922490257774834 9.098315045979444 -0.05938271283369128 0.15954852112201554 -0.9992623289575565
Ni 6.305117276013737 1.6477784776213578 0.5262079420992166 -2.1755808489035884 0.368703649527565 -2.336416978488776
Ni 1.7061047938375808 0.55748651459021 4.692248678280363 0.09943510076988682 -0.33537006837244177 -0.5480334670415659
Ni 6.163606215178082 4.258135162775641 11.186683532659403 0.4901525355643817 -0.9586149877498394 0.38672939668102424
Ni 2.6315293042178856 7.078222713209166 8.429349888458326 -0.85394409250231 -0.12080045381954035 -0.6074241502950571
Ni 4.66984653234182 8.323749141474261 8.92656833965641 -0.14110651236674407 0.2952348909144528 0.8878091206808709
Ni 0.2377134558845923 1.1571131922015108 2.273027534594226 1.6813338315548594 0.11031292402465519 0.2152013345996294
Ni 7.098305293420454 1.3777074955343283 2.4685971324107707 0.04115230586859364 -1.6792890332106885 0.6659581419752079
Ni 0.47279973338275855 1.8363182486022123 6.272136210637306 -1.0774259219431765 -0.47620635779693476 0.17470825958158945
Ni 1.331251517667463 7.21455147068763 0.9833785506156103 1.3783174969227745 0.8098103354078892 -0.46263890352514514
Ni 0.8663868976248592 3.7159516851578407 12.9328297028465 1.0398783027067058 1.0122649118648113 0.32282128517315367
Ni 4.529564074619367 3.0729303760835482 1.8150449395090318 0.5099592858776636 0.17754907146449422 -0.16188925344005023
Ni 7.281025365444036 5.1975731387403625 7.488777533077805 2.323518268149237 0.12563309932149333 -3.2426336551425576
Ni 6.076504720784233 2.9193180364637232 6.363303180445595 0.9308607004547066 0.054577835245880196 0.06724848873501323
Ni 4.6897074097356874 0.5724191231051806 2.6515250508256836 2.9132216041257637 -1.3832815257962694 -1.4848691541327845
Ni 6.083432933828605 7.399599422294121 3.637430089798142 -0.07136791022002548 -0.2949111890264469 -1.91409322964291
Ni 8.316765502725534 8.751727955268628 1.0812917524056382 0.04204910665125017 -0.2957015461382262 0.7048977564631989
Ni 3.9499867217967406 1.5976736408844563 9.955616746898782 -0.40052542202385216 -2.1364347748317463 0.24439235434128875
Ni 4.247853694617793 7.153546245427583 1.607104324480456 -1.645163038061257 2.0424319008210245 1.227986380633969
Ni 5.530663146679004 8.631444939200929 5.327764423223252 0.8946346282431367 1.464117780518046 1.2600166695966364
Ni 2.751544429381201 4.823486584813822 1.3359867203428568 2.682754344505999 3.667815699372825 -1.466744419507616
Ni 0.06827523014794203 5.510054022276344 1.432571552751844 -1.1007879937078848 -1.4573943457512835 0.5332899901838042
Ni 2.8669499834656604 1.6033824884330192 2.611708148578806 -3.193750556288609 2.412181732224917 1.6162275859738293
Ni 6.497065727812423 8.054648109213444 10.874772610116539 0.10043525989962702 0.22717187669794425 -0.7954566377893785
Ni 7.817887975443758 7.389465756014552 12.688925195785457 -0.1382088791039749 -2.3285990251062545 1.0902760384329673
Ni 2.4898242534169888 6.324100579755317 3.466196995002129 -0.570311818823792 0.6668009495914775 -1.142608786398413
P 5.972470673709935 9.051183798281187 7.43376382645853 0.84357509056316 -1.8226627443450545 -0.005809664703241608
Ni 2.873601067988258 2.79986640596135 0.18458145192816985 0.28830782477731637 -0.47681210970173366 -0.3719578947988046
P 9.122913897333923 5.895992439317458 6.3313142351771186 -0.02532202370455639 -1.0663259553752733 1.6490430898419537
Ni 5.412273842176768 4.5025625189811 8.360004942216332 -1.5817205533358953 -2.1690983265030384 0.33730328083941263
P 2.4295118494613783 -0.06418666069002305 8.250545642447422 1.4031070451626286 1.1622653842870758 -1.9719247959393973
P 8.43729793446283 5.555364535586539 11.053252615756964 -1.7002111280753365 0.5773967506950315 -0.03136951545021694
P 6.073844286975193 8.54412174198966 1.5707884792253342 -0.1352384836217413 2.267304954182463 0.1662642425792943
Ni 2.0045167860847894 5.989144573103393 10.551545606267867 -0.43945346654761736 2.214811255159121 -2.921097150219098
