# total energy = -381168.5726386491 ev
CRYSTAL
PRIMVEC
9.26804527396030 0.00000000000000 0.00000000000000

0.00000000000000 9.26804527396030 0.00000000000000

0.00000000000000 0.00000000000000 13.56472108681321

PRIMCOORD
 96 1
Ni 7.822962224749966 6.344143683424652 8.31860615407999 0.007763960216135016 1.9249139744074977 -0.8078766087202861
Ni 1.864304340419978 7.563503302680023 4.784236235263599 -1.4152699057774079 -0.44363099496407465 -0.6890237655454198
Ni 0.35294105878930265 8.595731823685199 -0.21750248198383348 0.4795832446889677 0.14898154423944665 3.2631392312950767
Ni 0.9100191517497199 2.017848043293089 0.13443484752309107 -0.3569429094472111 -1.840723458501507 -2.2815979737663676
Ni 2.632022854785533 8.826737847353472 2.4016470581828333 0.15389260838781885 0.2498685469645116 0.2970665448065529
Ni 5.5368320804688915 0.9550998498329638 6.461541083673545 -1.2171923753422587 1.051765026841963 0.3662135361158596
Ni 6.120876477399829 5.568222949161548 9.718172715104812 0.5359438828668834 -0.25459783411938086 1.2101431818049608
Ni 8.32022064753327 7.459766074077455 11.344515364022493 0.2560091126446107 1.1038473493594987 -1.7011596080315348
Ni 2.068303280719371 8.268884945824201 9.572840500174332 1.5285601672628322 1.1993563756021022 0.005737159594093346
Ni 8.505127414963793 4.142556646381371 2.2554334521650583 1.045740675024754 -0.06615911232557638 -0.5194672253680989
Ni 0.29303890301096147 2.1286660583382866 9.920463554695598 -0.7220696402567951 -0.012657283752694332 -1.1657479435190374
Ni 9.117216916312792 2.498563005605066 7.596813583509156 -0.3597837213301159 0.22925447025858584 -0.3346838409386945
Ni 4.074696020291136 3.771538265659673 6.65698191114424 0.9588780116032389 -0.2261040975550622 -1.0954547544204294
Ni 0.45456702672219557 1.2065604489971604 2.799527940770134 -0.3960799846579888 -0.6568893469047203 0.009849639100570134
Ni 1.8577518325470201 3.121801965187683 6.70765958165249 -0.49377496280831734 1.1051601546336514 -1.766869291524518
Ni 0.7115245034245129 6.911653887929343 2.621165339971997 -0.4908248790410579 0.45354311187146407 -1.0815558849511502
Ni 9.015537193718423 8.583053138013053 4.385935510234084 -1.0358252156832548 -2.757014231561839 -1.463567564441531
Ni 1.7372672464813208 1.219229866624223 7.896200170596763 0.07464812363319401 -1.5282886587690003 0.9844604880580337
Ni 5.169576526050475 5.280552097862067 2.3838097786180605 1.5742203883041082 0.6393084005981635 -0.13924991877397952
Ni 7.141529210097615 1.658572275690255 8.30253165668981 -0.8784081390819453 -1.187385319283155 0.7833613971877412
Ni 4.197432741311756 5.131938994972567 8.64991003482091 0.9000892235998047 0.6697600322198013 -1.5761415165862211
Ni 6.865313662519458 3.2299693193394354 10.30109011775378 1.883948844849046 -1.5096682154543355 -2.994619130667649
Ni 5.3401919679645875 0.7353470865032262 -0.2002537232817663 -3.057854641588527 -2.17406852602412 0.7838344801694177
Ni 4.655413189037644 2.3385594753098173 8.72497749276689 -0.47278730481305675 1.335733343703661 -2.4468036931741604
P 6.357693565334502 6.48379458671988 12.160474053039737 -0.1940154445506336 0.1432310149089146 0.8545459877523669
Ni 5.334686749185894 7.572261605282491 3.1536210175631267 -0.2719748919452477 0.4272091019626255 1.1958182805418565
P 6.231472059363059 8.586343294017155 5.10600515122418 -1.5904286226328546 2.052564361269336 -1.4334023537120604
Ni 7.5258379674668685 1.0492539198207669 5.094583212465151 -0.23325330700533375 1.6857592143160645 1.1667298478163326
P 4.031636682840272 7.206980144466535 7.4261416065200425 0.058559445601447525 -0.5848094982193348 -0.571191650325584
P 1.3305576241489292 4.88052473603378 1.5053724172896852 -0.5339528205787837 0.9702983376250385 0.04363419175018292
P 0.771764016043838 5.571911631104173 10.945929183204452 -0.5967823543104949 0.391543530240216 0.24382002677758655
Ni 4.4505708566357916 7.356501515774069 9.590759338535825 0.21369029727174163 0.17213561375840677 -0.17328206865802415
Ni 8.854115652525632 4.398771752672622 9.293990974183878 1.7145771669890213 -0.13354309819718937 0.411182387517066
Ni 9.151360394394795 8.80957342786165 9.15656625531734 0.47295854028359835 0.9204788429997502 -0.059064153152007956
Ni 3.828388454192519 3.843087573692534 3.290598089852204 -1.7466588780149146 0.6376518388313469 1.4512540371815006
Ni 3.746199430405548 9.073805393148811 11.320858678950746 -2.198049205209434 0.7604780648316645 -0.3865175377805343
Ni 7.806372424053226 5.1025592920627005 11.486225626934935 1.2560106337610368 -0.2186990633402427 -0.4253615072309255
Ni 2.6608372069453994 0.022670565075023654 -0.20347992977480245 0.11416855032531951 -0.2130567774528008 0.8594933044553134
Ni 0.578037776913308 1.0871787602962164 5.2146451756751135 1.497586344589137 2.0430286538647584 1.9033095087638445
Ni 6.510310463699416 2.862954734093151 2.62117924203962 -0.4175420111865067 -0.0035234397722261903 1.1668182937650808
Ni 7.3242209147535435 0.48677441018657347 2.9678791992707194 -2.8394813370188197 0.829484931018681 -0.25565584307025
Ni 8.669987400881997 -0.4408818313541485 6.846114907132144 -0.39606044427396303 0.14624666180678683 -0.0453732859284767
Ni 2.654951998318344 1.7274987269649171 4.241809994773278 0.31486217822707707 -0.16987072898363004 -1.8820459713993782
Ni 2.3010887690433846 5.574432539366472 7.262171352929708 0.21380933934810917 0.8383511231600593 -1.620953530694589
Ni 1.7306220581575433 7.664450849712916 11.73728121252905 0.12776505806283156 -1.6579709884592029 -0.002527137297227906
Ni 2.3462148805475302 3.9254990305614728 8.886153430765008 -1.7965740176778027 -1.6492207530703984 1.3887692883837177
Ni 1.7427910013501788 8.203814001303641 7.066514580008602 0.763298307889279 -0.20191181657957485 0.6453168115757725
Ni 9.25926824328425 4.3760001659062056 13.157561854312089 -0.15431221242374069 -0.4743618483890282 0.7070446276028726
Ni 3.975055267614803 0.004964891750415016 8.224900657474155 -0.5726736341877492 0.5271440251870664 -0.34452885205357436
Ni 1.1343623778085605 3.411298621368313 4.194591158689622 -1.4966108680497452 0.5229811520586284 -0.13395241782046607
Ni 1.875147953165891 6.786155289474293 0.3906786847540961 -1.525614711481263 0.7252799196639766 0.6650999077399706
Ni 5.411444698554827 3.1605609297205106 0.6485564783330537 -0.41237486516327043 -0.45602602619431787 -0.22123159995410932
Ni 0.8629606528459823 6.537447299699443 8.760720635430042 -0.4655139110800951 -0.7223853717250012 0.7490279140131939
Ni 8.363650706787416 6.760315979785742 -0.06798667150334962 -0.6962747906808783 -1.0340241579187741 1.5333164510008948
Ni 0.7460405569188111 0.5493559577981142 11.651824276046174 0.6167163742302604 0.9118435359222554 -1.9505363029612925
Ni 7.411470291155274 6.303623790326249 2.6167157515281403 0.033709733547619365 0.6130836625736796 -0.4150997202936012
P 3.1185210772286633 1.3430138767391062 6.214894307124927 1.4054403212814957 -0.2907920246517508 1.3276708784105007
Ni 5.725742643374826 3.964702861258235 11.885259454330432 -3.3632122227592784 2.263322315385631 1.6886535051447238
P 4.751161362779547 -0.11384959259151221 1.7021283803575136 -0.9865358825298235 0.3778218097787493 0.6727353127980413
Ni 2.9169596327858303 5.810915977678194 10.494834892974476 -1.2267622784188807 -0.8341519974770473 0.3820062801737421
P 7.106987206077087 8.457776972639971 9.320225102592921 -0.8589402601653207 -0.6364318503813169 -0.20207456740968424
P 9.401041528903251 6.873988552716188 6.1568364923178995 -0.13032073460514976 -0.008703184200952754 -0.1038190887701954
P 7.093604148978713 4.2197316577789925 8.163710243429419 -0.6860343438997927 -0.3293243763989941 -0.07133911386461907
Ni 4.184559426692891 6.869994025285856 12.18337075841476 0.3650981915644938 0.12228475167455068 -1.0371148810289559
Ni 3.3992779668969892 2.244609302313817 13.091555764042758 0.005633029916061266 0.6282495716808406 -0.18700276067822633
Ni 6.33067721392054 8.236641416984003 7.239546201275586 -0.4510288300900426 -1.6711484063814253 1.5403278493217214
Ni 5.874402086489735 5.559288553702522 6.821575904168593 -0.3237959903815972 0.04224759581530143 0.5018749662076324
Ni 5.806634140850321 8.45626628129161 11.178319852807974 2.3590511709485242 -0.746080915569728 0.5132130169282709
Ni 6.7074232465029 2.093883085145627 12.640935997720977 2.0900677575314326 2.642006987385308 -1.4207756660869855
Ni 7.5079043002332435 9.327823972755635 12.95919139779098 0.7223794581877301 -1.4766408526857215 0.3238168163172036
Ni 7.126848626687764 6.810919505933336 5.124277102103298 0.9724637207074737 -1.4746364206611828 0.21540188064620966
Ni 6.98163689634335 3.0459800883720307 6.373004375809928 -1.002572367167396 0.15355116588800005 -0.5379028063654671
Ni 8.770638370472266 4.733033066599201 6.527316399620335 0.4112096412105756 0.24348526914598712 0.4739872386584289
Ni 8.058277889381358 1.9581525649200757 1.0135895555408116 -0.46260727895626136 -0.13239201531188166 0.3016953018278159
Ni 3.7912699336392017 8.991551493046266 4.798465464877957 1.1191729239729757 0.25854190636879343 0.1512240604167202
Ni 7.448616615843837 0.8626297836365557 10.674119664258267 0.8532069572259693 0.16837897492945195 -0.2612577626380597
Ni 6.119495538682614 4.507504457574375 4.526492828338329 -0.5490225704277126 0.7504327647805205 -0.09606207053259586
Ni 2.322952087391768 4.788465244234504 13.056111979235753 0.6104737357546584 -0.8316891377588514 -0.44904419555984604
Ni 5.105145076640572 1.5699048883909823 10.67184065197261 0.027484578573513954 -0.23990912175895454 1.9481570040958385
Ni 1.7415305472190301 2.805168473007025 1.8402713727179039 2.218562751781753 1.644009641183104 2.1801029051436585
Ni 6.372763406637797 7.893436439553318 0.9941628062444798 0.654401290375544 -0.2081811945280544 -0.5301879542197127
Ni 4.0485786692501256 2.036940216161961 1.9911384641713399 -0.1618709986076051 -2.2534472223637643 0.23909871004251726
Ni 1.6135666487721754 3.018009128314624 11.669593898881848 0.016258370840391355 0.9796520109257967 -0.5979200674593638
Ni 4.415102048107065 5.221431238284136 0.2964773477363749 0.4987952988410441 -1.7827170571900521 -1.417947709719887
Ni 3.866025985270427 6.626930274965931 5.173258720361545 1.5254681586010694 -1.462883393890313 1.2781707147978438
Ni 5.016116235583103 2.3380682689204724 4.655453041631497 0.04871366315561933 -0.11659515748894113 -0.21535302968614525
Ni 6.843719117478452 4.827150064406676 0.196450117580123 0.745169202388736 1.021857440649253 0.8609138389519239
Ni 3.038324683134318 6.410030215912426 3.0041923267064132 -0.029989090162922546 -0.7511881548893063 -0.870182151627727
P 8.744483947250927 2.4001363668344715 11.950098697723943 0.09468010258340469 0.14954230183892311 0.2558239932169981
Ni 3.9458331214713303 7.243060643970672 0.7803508598122896 1.03698375476773 2.623387572511908 2.350491454303971
P 2.355770235027048 4.863962739472288 5.167236344667276 0.9040260967603657 0.11731738036694635 -0.5589295451287792
Ni 2.6575192468060513 1.6793605008091292 10.10364183171833 0.7798698390947149 -0.6201948196971642 0.027899297513429372
P 7.961630715266504 3.426034813048657 4.380604530702931 0.8849767934383984 0.03132246426236541 -0.07569893349521158
P 4.199647804086348 3.830232795163832 10.365114699984584 -0.5843166177433163 -0.9560559687734116 -0.010536123644633468
P 8.489770264262956 8.674111680943476 1.8398913828695427 2.2452490028236882 -2.227297046330958 -2.0140687762972993
Ni 9.000485888505292 5.585452244968942 4.261220988392971 0.46014519056901404 -0.42064584692281104 0.7195072788462576
