# total energy = -340866.3682685247 ev
CRYSTAL
PRIMVEC
9.27826859395821 0.00000000000000 0.00000000000000
0.00000000000000 9.27826859395821 0.00000000000000
0.00000000000000 0.00000000000000 13.57968394901719
PRIMCOORD
 96 1
Ni 4.144519162127333 2.3169971159569456 12.590812080549213 -1.581679929905947 0.26066975134507364 -1.1917063152560123
Ni 1.847943515767586 2.7674292306935206 4.926071349805274 2.5346390049215897 -0.740726079015718 0.5035999193185392
Ni 4.386273733606028 2.9963519564416727 8.788581243500523 0.3485695977818513 1.110329614649733 -1.062490640789583
Ni 7.58161672069337 8.888145418012373 10.222989536011399 0.8084800466322398 1.0429831668842748 -0.13891721802490914
Ni 8.316808182730094 3.3873845944125667 7.902276473405803 1.2618889469186847 -0.6573786278363131 -1.5844040137053295
Ni 7.151225666533783 2.890106500577283 3.455703270961886 -0.39939773617731217 -0.14090030989320895 -0.1671960103649443
Ni 8.074422688973975 8.36105624656882 4.201567525582733 -1.127333091186265 0.8984354900464657 1.4517438323337257
Ni 6.569431822330084 6.807864773583519 9.694413985908387 0.10651874708954556 -0.3618012659807769 0.0009505368387273951
Ni 6.35486257839332 5.634766859670838 7.679216685703298 -0.8782150492345326 -0.48430147610024327 -1.7707460008711051
Ni 0.052966853016596045 8.708954212955264 12.629187928073508 -0.03536295288032619 -0.1149689347394278 0.5472387390544123
Ni 7.131166049419225 4.856552065275093 5.145736218959112 -1.1401988914053394 -0.6654968860680732 0.9818708729539865
Ni 5.36646716119642 9.308330376507755 8.947002116054096 -0.3216177517833557 -1.6042868686721854 -0.5974331005206163
Ni 3.7457855610643565 9.129491745664499 10.643919539490266 -0.2856747580298435 -0.17394515616331976 0.2677809084685582
Ni 2.1128009765225304 8.052303296189004 1.3208636225928196 -0.6512874273369106 -0.08412572410632609 0.27620795618998883
Ni 6.049329187282121 3.120476636255995 6.6754740841080675 -0.7046630147445735 2.3419175965920314 0.35334722167615273
Ni 1.1820050519468974 1.0157477535769737 10.9544594844382 0.13045571752111726 -0.3139432659572335 -0.11860576016106669
Ni 4.020691386914151 6.246770747040588 1.8347507453812812 -0.1981047841286588 0.3620792022325119 1.515505648071719
Ni 1.0959398306912798 1.8967379313112787 13.38116285051658 0.24674234263070408 0.7618728882966621 -2.3891006820357368
Ni 7.087808699383918 1.2396602141808786 6.224275584369797 1.8913420519893231 -1.8361389244546182 -0.9649794965152864
Ni 1.3289357164363285 6.946454274434657 6.853340352382587 -0.13201791980191457 0.03858094559699162 0.5018271436888325
Ni 1.2027790957579505 5.030927848832453 2.253222935458833 1.1529055403387307 0.690102086211263 -0.9404915386762512
Ni 3.363261095569896 7.216581791859847 5.586301822669036 1.0536900117788177 0.23048140068715145 -1.7651397104279214
Ni 7.5200646855694195 3.295028706920283 11.176800206309816 -1.3243076183652223 -1.698080711995895 -0.9402735091281741
Ni 8.13257887772238 4.6575703128982076 1.9302436155499902 0.39523074928381613 -0.7700937335445576 -2.3751339354429994
P 6.5072395866599235 3.1771390237299126 1.3611053299699074 2.413337700206231 0.0037196149434323036 0.16063172688386532
P 4.217956659565692 5.588978603213694 13.508743685453554 0.2684707354467312 0.9781759406009025 -2.0868549070210896
P 6.021679946300906 1.1034459501388645 4.119845461945674 -0.44844949939864065 -0.3229904637611663 1.1333726125121255
P 4.634022066720248 0.8656791785842384 0.4651706447025682 -0.8640878658045312 -1.4178865174646484 2.4769977002590373
P 8.779264933812861 4.682983491102083 9.736402791297811 -0.8533128866762142 1.6414069134529343 -2.052942313434045
P 2.6441674298762634 3.4075833855589095 2.626134186664489 -2.4332154129667645 -0.24281729654468506 1.694329986704211
P 7.142364919843494 7.659526343686409 11.92862574862544 0.2135008069687549 0.43743206524221445 0.3359619363201698
P 2.0386212175813205 5.709466201664044 8.506952384088653 -0.7170315636122554 0.39730871485876734 0.819451458042079
Ni 0.09551606584067295 6.578385351708229 0.5973349444196496 1.3488462269365349 -2.3860176722350395 -3.171819303433157
Ni 5.277302998166398 4.0267779312375325 11.002178548629637 -0.7885341996379324 -1.3499746841140234 2.388919419262866
Ni 9.083146793080216 6.789094835830165 8.767763591826178 0.043189648013596586 -1.8182517597615524 0.9114077339364175
Ni 9.064803655691001 1.6014384706706422 4.387270219673606 0.2544268557591554 -1.6761515160229714 1.2640669284066102
Ni 1.33018828272239 0.447579974911869 3.1409129510832505 -0.2246658224466389 -1.8018337234148454 1.161806442372786
Ni 1.3421294146495117 2.928082454716917 9.468652366335503 0.5041110546270028 0.11978229696767113 -1.8824653183249838
Ni 4.814595733826418 1.0795172949406928 6.418954075683902 -0.8449532018576095 0.3550071258770789 0.8015388394277163
Ni 1.9807712117028409 8.58106255601397 9.056699087906743 -2.8305048445518217 -1.7657529185318883 0.3069123272523811
Ni 5.929435398034052 8.255562330476067 5.804730826420625 -0.048950204646457635 1.5728049960138202 1.169520266077276
Ni 3.5356142165319877 0.514991236773953 4.557260165575993 -0.4813058838070292 -0.6162085813559065 -0.36365991645607043
Ni 2.3468360283715715 6.580649249291926 12.835367761374295 0.13701742989903498 -0.42864943395357785 -0.2529389583597192
Ni 3.0853212758271966 0.9934891867602178 8.392435351601863 1.4893001933209447 -0.5753072151558544 1.4844914590783918
Ni 2.948689489689828 4.945131697371619 10.65353368160595 -1.2389498216240082 0.8634312060571389 -0.21230035890275048
Ni 7.923892056195714 0.7017247465269109 2.664795804867382 -0.612292791241268 0.5860181738154553 -1.8193946151167442
Ni 3.3825135033001046 5.207094338265443 6.753367006217292 0.06307378853203331 -1.13095423287862 -0.06762155580371579
Ni 8.24497582579165 3.4742663033213206 13.181704195124112 -0.3780426675403038 -0.13953531122488227 3.30406707985769
Ni 3.741870131636815 7.32446022303051 8.2735584606127 0.8840807639866904 -0.7789630110097293 -0.2821549178020431
Ni 0.3970273274332971 2.467323626821922 1.8771737737498735 -0.5159574124426276 0.7038428328361234 1.3193718716265017
Ni 4.346887482610977 8.003286202194456 0.387303701745944 -0.13562286354435352 -0.760806908925993 -0.15942485105995768
Ni 2.6566838144680944 1.403152588452681 1.6446900484417921 2.137161368585126 0.48694174193656786 -1.249396727988945
Ni 6.057698185726769 4.967380985919589 2.8819759536404246 -1.566813554317076 -0.5883643054501286 -0.26611586206130944
Ni 8.892478369535269 8.863437388236207 7.890543174699481 -0.9817204634190512 -0.0020411987997448716 -1.353765261504707
Ni 5.470949745991538 9.066761370404771 12.297992701154978 0.6870231901756232 0.10680516798171284 -2.2305826590607647
Ni 3.409077186833398 5.235040483847798 3.7840741928620663 -0.8499699383459105 0.01587630491062427 1.5386669166795306
P 9.053623341804302 1.2834258080427532 9.171936114051299 -0.47360645828024245 0.3494784827493659 0.5451967689237192
P 3.0654657806259222 7.926629145487479 3.209979456096693 0.24714137784133566 0.09766849578776728 1.2325333765747033
P 6.768589861813895 6.962867531916459 2.249570081037926 0.5793567026348796 1.1657343166722827 1.0011011819385083
P 2.770008589415929 2.5798319141166197 7.292344423455887 -0.013363308680783439 3.34779511687326 -2.380013375022488
P 8.190317544375432 3.051325698996603 5.551755116672575 -0.10356095001280229 0.8810484049182697 2.578545990717185
P 0.3748030902110482 0.29153805047493725 1.0574619222103427 -0.11334811130655317 -0.1992898055756955 0.6486823856138957
P 4.997247733140572 4.793125819856441 5.255623395321866 0.4346545024970772 0.8076194984041575 0.48040419792836625
P 6.581094606193636 7.762923371033606 7.7562133270478295 1.164105265709292 0.9319107389857757 0.3117385449964309
Ni 6.78903916621745 1.7274466390484498 8.794163050001966 0.7642922963714321 0.12981397017206028 0.48564462039169914
Ni 4.472023493722934 3.0089147323774323 4.186847552154312 0.35811096161338324 -1.304469757703689 0.15019921869663164
Ni 2.5103933505248732 9.192732425707439 12.842185433277985 0.6184305287078898 0.4277284648012053 -0.2987061372925049
Ni 6.694428659410256 9.014923682699388 0.8704955279108652 0.2935590458739267 -0.9657333439621756 -0.1979075805161882
Ni 5.9611299642058055 4.430466127832042 13.260779168676628 -0.39411077674676 -0.37818587798638736 -0.019850716177340005
Ni 1.0232538730245582 7.307072747326216 4.497998935015218 1.0204145375551392 0.43585623611466223 -1.201695308147924
Ni 6.769313566779175 3.9852020088090696 9.288069420960547 -1.782020802453976 1.8567573720359185 -0.8957250330938381
Ni 8.20328856413776 1.355221051906053 12.0863804414802 0.6059707056779822 -0.8258437347216682 -0.5499929047607818
Ni 8.27646627005012 6.789939158289658 5.774503154543883 -0.43147816165162467 0.4740810839238158 3.3225916210244386
Ni 5.078256297908014 6.662307292874363 11.45250860240957 -1.3097330629851573 -0.4267905263679682 1.370404155612969
Ni 4.436998029057134 3.264512480884306 1.735483475470573 1.4592414262623514 -0.19197193175804358 -1.4027049246282037
Ni 5.786884076411443 6.905332987176691 4.1421699044708085 -0.555995659311436 -0.8219783382289907 -0.5065916549570114
Ni 6.270467445519118 1.8341652866209073 13.142513715600439 1.7201387202371987 1.6165070648874613 0.8051406978463618
Ni 7.074679949052233 6.480898581577485 0.2864591261416767 -0.7779399690618538 0.17005224886681683 -1.0606438173888315
Ni 0.8456177058159225 1.6154208217306052 7.195033012605192 -0.6660586721088142 -0.48615292748668526 -0.6671102533017802
Ni 0.059371641959324914 6.679165907257874 11.58429898789459 1.4547134564850108 -0.508076467032654 -1.0548760616671187
Ni 2.7834064095423967 4.006495635672119 0.19860876597170138 -0.4323124846274619 -0.37877646038253476 -0.13275454085762298
Ni 1.1017201921447348 4.11471736278785 6.988092361263984 0.7236611531136312 0.5746225303840039 0.18928101518944176
Ni 0.4179683800824917 3.9001481188510865 11.346926542763354 2.089112078486383 -0.08662406504814758 2.215862322131455
Ni 4.988860178158351 9.121530991046418 2.6860885039035525 -0.05167660243868519 -0.7222922977905626 -0.6415306050604629
Ni 8.520679582757012 5.843917594636786 3.7622517046782353 0.4191965160707942 1.9118046907190496 -1.3170118560347577
Ni 0.1693645905862355 3.7962129519143217 3.870386216067382 -0.559902707675326 0.7063026072305255 0.27690498225701343
Ni 7.442275680070595 5.539766665574646 11.68808848601142 -0.8245730955393605 -1.1150864126084281 -0.3228583090586762
Ni 9.004736143572753 7.738660698159151 2.250520175761576 -0.5099924531084442 1.668836727529113 1.2894619714409472
P 0.7783484014662589 4.47333172962171 -0.11845658541317347 -0.6374299526285281 1.6263911567703924 1.3995712640952285
P 3.0351351199656573 8.964932370482348 6.669009914245111 0.33176820995379636 0.05535713661406595 0.37358026089357593
P 0.4688030869321472 9.186330420245344 5.612266130038777 -0.6610586477910615 -0.46193596392084957 0.549421605638344
P 4.68288143014544 5.166112225039261 9.453551056059991 1.1351119638007354 2.4216719311035386 -2.6866246260946824
P 1.8529908939869755 7.911097323540313 11.092171261062218 -0.19805001963132343 0.7692074742848622 0.6637086838193988
P 1.374779642506187 5.23260957742596 5.143346136919931 0.3621707335050537 0.4357917014253139 -0.36079827863755926
P 4.9280504045372515 1.8231612598411355 10.458380142930022 0.8609688605595752 -1.4661031863791911 0.20623461232464482
P 2.4854162509539237 3.0139621105968217 11.397619292100588 -0.9256678433998574 -1.0800368772034628 0.3876552509294033
