# total energy = -381171.4496037056 ev
CRYSTAL
PRIMVEC
9.24697491563871 0.00000000000000 0.00000000000000
0.00000000000000 9.24697491563871 0.00000000000000
0.00000000000000 0.00000000000000 13.53388248758126
PRIMCOORD
 96 1
Ni 4.71302587384457 5.546224541178511 5.111760976831529 0.43972857458587494 0.3817067466554523 0.6159206178018425
Ni 4.928794784599469 1.228571570271595 13.18355812171293 0.18486977349562356 -0.26326656553797245 -1.0441404204171694
Ni 4.944976990557345 4.109096700521813 7.227540020344588 0.2544003733965941 0.011586419286018754 -0.4172391352341072
Ni -0.4898270520675499 1.8772838427109189 2.118593822652246 1.4006781240061619 0.024059097831732757 -0.1363926518308425
Ni 5.386381334214031 9.649865526548814 1.5471261544809878 -1.2171949464454197 -1.3905114678858053 2.690674113573708
Ni 6.388226328553537 2.6113641868091624 1.9324623909348255 -0.4919013999346883 -0.5224540759105648 -0.5573359753894144
Ni 9.158629235516702 5.788717209200988 4.1767189027785845 0.5648921904701174 -0.35125485792349825 -2.6868755657632244
Ni 6.62260939964741 4.314527493413338 11.269284530274756 0.7773761261385838 0.28792730150944607 1.0211550152655897
Ni 1.6221320661419667 8.561644540293582 7.561326221499018 -0.7521160660202143 -0.10105001066549048 -0.7814376978024672
Ni 5.4437495660784085 7.9645396343976325 5.50310682222938 0.06412691238689601 -0.49401587517452983 0.4970181523359634
Ni 7.100770468265556 0.6719573177747001 3.4786268600331733 -0.28471316544752256 -0.4807541250686172 -1.2463833950839178
Ni 1.9596189066245908 2.9320955088942604 1.89351228354296 -0.6687017661586161 0.963940513727811 -0.11495145123793106
Ni 4.8854079786826965 0.9562759023621276 6.224489220486849 -1.6515334603639749 0.7940453592641487 -0.11833348033628655
Ni 6.600675575343363 7.620598405481524 -0.08938680692137253 0.454818636149778 -1.00821516727547 0.8623030059899666
Ni 3.0522229589506966 3.4949403730336788 5.849885023024275 -1.9194056429947588 1.4082518225883618 1.0948664860171273
Ni 5.046952629016462 3.336068098426671 12.711319740475364 -0.25269676044192607 0.24158393835821623 0.3245238696865572
Ni 7.230329832651726 0.8053819176410941 9.85978480102431 0.14933532803443958 0.4169059202644046 -0.2368356250399534
Ni 5.88321204502015 2.0465867049296316 8.06492201909301 0.3364291057645754 -0.0013683411024363532 0.46851747379310926
Ni 7.182319539318416 5.462955532806698 5.33689707309233 -1.2506745662601042 0.6924165932770526 -0.2949538693389243
Ni 8.902219870370452 3.86152744331598 5.841940946945183 0.10824215753855551 -0.8170168804586574 0.40948083144492703
Ni 5.802828092796256 6.438992220387101 7.388822981290578 1.1132637575773923 0.24576275232625416 -0.40214830233925586
Ni 6.572851428070649 0.10393784651869445 12.084011440682152 1.502457042417877 0.57954130784186 -1.3692661853537837
Ni 1.5103176464604617 8.540006619184194 4.366138558746646 0.8655734492111222 -0.9972627820290244 1.5216685823493212
Ni 7.189347240191551 7.594022599811275 10.11733524286496 -0.3220874923309227 0.5095538229091289 -0.2753443226381129
P 6.6667359635508285 6.243187528296804 1.5407374195688184 -0.6247978656868143 -1.0973200897639426 0.8369218469127007
Ni 3.663337031718751 6.651099329108105 7.110173716973306 -1.6560169500566253 0.8373537922437966 -0.4313796884005474
P 8.988050290771024 -0.13553753361575094 11.555783551527822 -0.3753139557552311 1.2202026229234921 0.4523449777983048
Ni 0.9252338078475052 2.0612246660903843 12.060164417285144 -0.37122564461847035 -1.361562646061939 0.2186278437826751
P 5.028190517080159 7.329577613535085 9.320094361866902 0.31077078176652284 -0.19396299404614337 -0.6209612655495436
P 5.852789497819343 2.034020066131487 11.03970988609408 0.3211338701684018 -0.02639108839901906 0.42724432607593515
P 0.2984165224179288 3.407732153382978 0.22904756661519024 0.33699474846005834 -1.8193344513027698 0.37956604616336564
Ni 8.801566549312465 4.162886353125793 2.3440951744189533 -0.07570716102532768 1.1854209964679325 -0.06666999052372388
Ni 8.281655389323 1.7469939673129364 7.696448565944763 0.42938605500928634 -0.2088874765664596 -0.9671006566233474
Ni 0.6867617244824481 5.495893257162101 0.08340216480940843 0.9187785724791918 0.2502976640821302 1.8940154850564284
Ni 8.581257373914529 5.525677763099426 9.72109035020055 -0.020472666032055067 0.18082182867849503 0.3759970978651847
Ni 4.034066746726268 3.957585017881931 1.4913659715400809 1.21339614152462 -0.059101177037530477 -0.8065923426912238
Ni 4.971904181271251 0.2267811330836043 10.065933159162881 -1.0589831418569566 0.44532715171957504 0.9062128199990392
Ni 2.953640960255318 7.3110004410954454 9.836844905858424 0.06250660317465365 -0.03648652496180813 0.6099937107944462
Ni 2.1083102619403866 7.9157063603041795 1.449397651562701 0.3858552216061871 -0.5962910164963731 -0.11790384899803565
Ni 7.389266836082564 4.827965771019654 7.674997433727003 0.22619460038633946 -2.728778376644597 0.37655219903770637
Ni 6.0040792530632325 4.650257408677678 3.0308994349856335 -0.5918208965401615 2.1834587089897686 -0.5087603804735561
Ni 5.668774698641212 5.176992836093951 9.390443497001948 2.2829249201079067 0.2934101790008882 -1.2809801592221808
Ni 0.5308845450238724 8.143468597417574 9.804472171665324 -1.1258261676234353 -0.2611999128169308 -0.4541483495556307
Ni -0.06576448501280714 4.191894113177139 11.494759065814447 0.9127922729887699 0.41478424593571145 0.7518299022383633
Ni 4.957811791625649 3.010297175057549 4.909835712099222 -0.6930488275444129 -0.2813257370325284 -1.0816782694616274
Ni 1.2868644996192802 6.248273364454994 8.556837962775353 0.2124289140608148 -0.9921347167738397 -1.2179739907032894
Ni 0.6615406006252447 6.898372683119279 11.891423771136282 -0.8471823482984442 0.7109717305714207 -0.9548496071701362
Ni 7.469364132086634 0.5209986042298352 0.7882629931326282 0.4827585570931557 -0.38883898682485935 -0.617969015690439
Ni 0.7601845540520055 3.556238569202112 8.275414606008159 -0.32585955777884523 0.7662129104329127 0.41405610952043526
Ni 9.372641221053318 6.783710195189188 6.0662106016641255 0.5421883211146985 0.9462448962202608 1.9766391706959312
Ni 2.301128181159601 0.3376967468113348 9.652120863710598 0.3397239744657633 2.2277816992768598 0.019235965411476548
Ni 8.606205712014155 7.302742892569512 1.9260338940308739 0.08426533500798392 0.561180288836169 0.16036176105193026
Ni 3.8871508105784227 9.163909258146386 8.044309587492611 -0.24912498393026775 -0.600849582401333 -0.6267372488013723
Ni 7.841453152394613 2.2966896332397266 12.245226898711861 -0.9277519796223958 -0.45397480009224395 0.22247267145006203
Ni 3.1626040975330763 1.500839497256563 11.657111901748623 1.4743271169508803 1.2033536696869533 -1.6422702898944943
Ni 2.5586471832858195 1.205065760245926 0.2916745530671361 -0.3362149328712403 -0.4283334453750559 0.3605789635379016
P 8.281905057643492 8.813680086343789 6.810519949322713 0.4552336122000095 -0.18201790586912522 0.22258194333441664
Ni 1.562331879896491 1.8839694055152298 6.974510424499826 -0.8542690799418966 -1.129484333201313 -0.37208747839813333
P 9.227491457098589 9.197189120570611 3.166441592088801 -1.4746976129164215 0.06251097405002783 -1.0649162195119402
Ni 4.344746607167817 3.4521453735062226 10.429466878355301 0.781417386087493 -2.3213078907614797 -1.1610438531751488
P 3.391984555242257 8.565287848377812 5.9290039890910045 -1.2815853969063475 0.02821451476100302 -0.5535790794501434
P 2.115532149285016 5.4058832041369795 11.152934469437628 0.02074880251157717 -0.8904506720687762 -0.8875239853402843
P 4.07028714714741 2.236362369428766 2.8847195580345 0.06681165830791075 -0.2023576458677418 -0.1336233166158215
Ni 8.201900231387755 6.811247686242075 7.9549588437730865 -0.43928094552549507 3.0699359982330936 0.06724154675647774
Ni 7.030909573401698 1.0670639078371615 5.738325819848163 0.8477909284167205 -0.25258106079966824 0.4305106555320328
Ni 5.3413023319028055 5.436536925708612 13.351026384124761 0.7162329789703601 0.5700994457026697 0.14281475330710242
Ni 5.135686599514619 7.408472802810855 11.602760033074793 0.02787024404770684 2.280933600709491 0.6041912451800563
Ni 3.5027078318934595 5.182698219565956 8.8911382957305 -1.788822398756842 -1.4693126944554245 0.15487297002321715
Ni 3.1776026907123187 4.860552110331399 3.529284562261191 -0.23372330466321684 -0.5546149769138254 -1.0344710156482058
Ni 2.048389865022081 0.7322734852158613 2.5477265060079617 -0.2769494623417037 0.27078344274030786 0.5943182090407183
Ni 7.845142695353008 7.906524114294939 4.804975017492187 0.17204356826523273 0.8180928871316556 -0.7097144611255519
Ni 3.4187360534343334 2.318503246870943 8.19864991973393 0.4822186254292857 0.448334313977015 0.6075791878156827
Ni 0.26423600464496194 1.5368102293572128 4.699951576128091 -0.6875816337822546 0.1381047494259428 0.22964322105657226
Ni 2.665856609500455 1.3914107970819904 4.899847129884538 -0.0987226480838945 0.7894986204337305 0.5881475614536322
Ni 7.0750268903302835 3.0348663871890214 4.18758594760241 3.2962087601555363 -0.5901121413791708 -2.029844036853685
Ni 4.394088464877089 5.486359626109204 11.178175011941983 -2.035323057690385 -0.8253814503732689 1.0264070076931484
Ni 6.258870397613694 8.695309561505637 8.015888085645681 0.9845661603979625 0.6783498307713414 -0.7486738731078849
Ni 4.23193351420434 0.1631036902906215 3.838520045233814 1.12282466179295 0.2588782066622896 -0.7876415126203339
Ni 2.9249383503734627 6.400672756678851 12.903826036642705 0.35952018325608404 0.20608805944445152 0.6852380732507425
Ni 5.952684566941018 7.7140390861697155 3.2648460488673847 0.521374726803457 -1.0980420555316315 -1.4355435684247793
Ni 7.732680987433188 4.565286956936581 0.12398621265427756 -1.6754912567311533 0.5270260115519634 -0.2409121091021722
Ni 2.1251305091617443 3.2018020238504676 10.263473508429346 -1.2426352408953953 0.7513421639686674 -0.2879488987760009
Ni 3.588492017419867 7.182402762091915 3.5200005995287866 -0.459401370424454 0.4349789757160315 0.500766306524486
Ni 7.893384163057144 3.286115940378417 9.562053479441511 -0.5153087231150352 -0.6821548063397284 -0.029808855831316403
Ni 2.48059346871986 8.633391818023386 11.783613291557495 -0.5947797220581692 -0.7867729939724515 1.0888889282774536
Ni 4.276217276679922 6.621638467289937 1.4325746302488933 0.517361748989322 0.6152410752363145 0.11129868497669218
Ni 0.48934343528378027 9.045326052887072 0.1739115544755159 -0.7451074959128652 0.32026817973399685 -0.8972119020520097
Ni 2.6591987876206433 3.548711531687992 12.940962812269806 -0.5017224997901681 1.091221175955056 -0.131322950617419
P 1.3014654728807005 4.951755023109986 6.6707149368215 0.6139411254779684 -0.04613176136105603 0.7002851973918519
Ni 2.177810524785755 6.302442143027128 5.244609490165823 1.315486934749799 -0.6240720432643833 -0.34781575033496226
P 3.7957074764541745 8.626493574797916 13.571371622724547 0.18301909344012998 -1.2872834757323894 0.2318217167651298
Ni 0.1073804952490471 1.3774571120588852 9.676495889370576 2.2820378895172633 0.31321512954195735 1.0347726060490243
P 1.236801377873029 6.074605930115071 2.211707160431346 0.13102933063640013 -1.0907025844474247 1.0586704957125446
P 6.81285665986303 3.3050167569372157 6.168864968075988 -0.935882322039014 -0.41396149292409995 2.598940495213137
P 7.678040613144566 6.2154928386717545 11.617254666125632 0.07195772128522446 -0.712239798650567 1.7702762603235382
Ni 1.24053715570559 3.7524316342353985 4.191619478024596 0.20934281893632334 -0.5362961239999796 -0.40674852011542856
