# total energy = -340863.7001970987 ev
CRYSTAL
PRIMVEC
9.30768558878348 0.00000000000000 0.00000000000000
0.00000000000000 9.30768558878348 0.00000000000000
0.00000000000000 0.00000000000000 13.62273869446418
PRIMCOORD
 96 1
Ni 7.705097722481397 5.293187807265031 2.2239253784969053 2.8028672853402115 1.8849474613168893 -0.5818324178688817
Ni 8.211957057501222 1.006356290614047 3.7103711691548247 0.5051919463960074 -1.489239001065706 1.0524540824891875
Ni 6.511554563816378 2.458318036349185 3.9507300535707097 -0.051939369181768606 0.6473528681691947 1.1045775426573041
Ni 6.455326834220838 7.0634351747927715 6.198400269175907 -0.8833726821760722 -0.29266918706980566 -1.8250165892892118
Ni 6.337407763496469 7.301628160735411 3.3684133102027554 -0.27217183844740217 -0.1281419817862761 1.0764327047919717
Ni 8.720063622411098 7.264741802121419 3.2851504765874817 -1.0435110143632869 2.012936719575385 -0.06765318037259961
Ni 6.6849660569623 4.158180684260723 0.4808434225893511 -0.6206270221385763 0.2854636704603019 -0.5317992645708906
Ni 7.053829643102224 7.462437047380362 8.297882820008613 -0.6159527565913585 0.28241845587607495 2.0161889079640956
Ni 5.264119904678229 6.26484504541555 10.21517393773058 -1.176890333289102 0.8693306022607092 0.8029264638038623
Ni 5.802411294464506 4.647225108761452 2.9010716165575015 -1.6345009303617206 -0.22470875986943237 0.4778369514218223
Ni 8.73828807110305 3.598770155515286 3.612382645919768 -2.006568611265512 -1.3028941856864529 -0.0462204644201204
Ni 6.250362286393755 7.052973336013532 1.1116429702430553 -0.0676089573982255 -0.48397083223370196 -0.2950767680700337
Ni 7.40301678157372 0.24872370159640414 7.041688697814288 -0.9916639477850082 0.778510239743027 0.8267240804440923
Ni 5.333024702260713 4.192284044836466 5.47066024370222 -0.03636619733385995 1.4404628601032676 -1.2516613556534055
Ni 7.083018545603734 7.661146830385693 11.028683356591113 1.495186991119025 -0.4063271163072938 0.6720850808085522
Ni 1.3664613444663687 4.296911740314611 7.042751635526556 -0.4786694746254466 -0.760726947617677 0.22424441863850414
Ni 9.00580026714765 7.0125779798730505 0.46020176790899503 0.8649761819467555 -1.9225606436839726 0.6270622362409587
Ni 4.802058461157053 4.252085925758722 9.354489444431701 1.2489609260031072 -0.28566627338941125 -1.0782849275093622
Ni 3.144257245134646 5.981947244831728 7.184959112206818 -0.04031926844433702 -0.39909306045269977 -1.3335463633546711
Ni 0.3665971646606132 5.324387169887818 9.037638137012657 0.12538370231484858 0.030948625862714442 0.9870817277309646
Ni 8.150014408857235 3.5990493860876853 12.12610418301328 -0.7617263354164688 -1.41893372778224 0.5962470506323151
Ni 1.4598360478768082 9.716572381505186 9.174369902168163 -0.4617822119518047 -0.8519142065564748 1.4769707252213145
Ni 1.0869329261228364 9.090686361157141 4.8991999849891625 -1.7740074452311962 -0.06807792661484405 -2.197864600002453
Ni 2.947492768450367 0.22859117732639012 11.538051112919662 -1.1193238477285432 -0.7045614561697027 0.39748303565310256
P 0.6147205205263582 4.852766733104826 11.760728186722629 0.2926486182445154 -0.04968116927521121 0.11119686929150527
P 3.8040046262290206 6.14601382148801 2.2444283486596364 -0.17337051460677239 0.21953441475734453 1.1351024507190386
P 3.6301649795387516 2.522066376028023 13.33690658335832 0.00782155292694782 -0.3262423950395607 -0.1628693579651324
P 7.513508319072257 8.339183813972245 13.54702386601475 -0.725226697828538 1.0484714436923555 -1.5024945805240317
P 7.371957034237133 2.194314837831073 1.8301609406789565 -1.4591596651818226 0.42462771438869457 1.9959622965045758
P 2.422408984738592 1.67520658836865 7.8270125826968036 0.9194750843255841 -0.574550539495488 -1.5094656125252262
P 5.435027630358301 2.1616820916033017 5.864793265875735 0.7463812204189663 -2.1327475557881463 -0.010743097449116982
P 6.157210967441235 0.37219108379435273 8.93744276148707 0.40607771930064906 -0.3638139255354315 -0.618737004204715
Ni 7.940544941128772 5.880698239279619 12.535970917172943 0.08091878713325419 -0.34734446712549855 -0.6850282712327815
Ni 0.5841978266573536 7.404217473035038 11.348558731109245 0.2363373452472962 -0.14643332389629618 0.6039181940243277
Ni 4.257689152578209 6.266222582906055 4.35978050369039 0.36670127438555555 0.4296462506492084 0.5387255593770787
Ni 7.287880708887602 0.9223581498247876 11.451451473964212 0.06827127357257275 0.2288322951195027 -0.30571316473795734
Ni 0.37722840332044216 2.826930314973949 10.42322026030838 0.24672460201889118 1.353882760919178 -0.35174619573762006
Ni 0.36122756075336815 0.7815486875436721 6.856773835854074 0.3904233005928437 1.4748112556761503 0.0922907764156217
Ni 8.308598758608737 2.6950404079438526 5.828053037927965 0.06758247503566425 -0.0004463435087992313 0.9189192118221141
Ni 6.540008159143901 2.5323513687780763 8.336747992612345 -0.1582765963881274 0.3689967552879516 -0.668507390759623
Ni 5.624327343073763 6.13251767715536 12.787705655108388 -0.37574641530695935 -0.26789352278702255 -1.88325387566455
Ni 1.3211329148801607 1.661133367519708 13.210473772481489 -0.04405842377179509 -2.551335491740664 0.07494714293085158
Ni 5.390741661575718 8.85611406496995 12.693600298366837 1.0353945559037394 -1.0123096490598178 1.2812131011685934
Ni 9.66575241732845 -0.618955517541086 1.6102072957254618 0.5384270543000533 2.5116561708731715 1.5238535058157818
Ni 5.100872404367652 8.601418552198492 10.413698497789552 -0.16296397456146772 -0.5230734546621185 0.42754977313149595
Ni 3.4443463412925386 8.612224775350358 4.337820880708308 1.4130777832220953 0.19092112189602603 0.03466849791646288
Ni 0.297085505967447 7.7282738599905665 7.707840697470935 0.43869627666661865 0.6115258311682565 -0.9038170660733531
Ni 1.8606901499279838 8.054601322268278 13.67178036268861 -0.5856065401993334 1.7216500146754028 -1.3230500918090373
Ni 1.5996654108488009 3.8942519472285846 3.3778671266156324 1.5429843131079621 -1.046620506526546 -1.4462738103580899
Ni 0.2584427870530609 5.597381592837198 4.417541209128404 0.230226604363868 -0.4051174122699087 1.4682595706005614
Ni 4.100919801547304 3.276342613565422 7.1508613362425235 -1.3336355806343676 -0.6938659241290696 0.8283009380129089
Ni 3.211961351255812 1.7746685182574016 4.309785200470809 -0.2543762050268781 0.7284747724521906 0.5188804996266935
Ni 8.888663042026002 3.3710669314091266 0.9936354765040941 -0.05069932612708043 3.068629106496212 -0.11043762252797755
Ni 2.331249510535856 3.0873035160508664 11.565228624531319 1.1481767674044936 -0.8368192598965654 1.1055473627697412
Ni 1.797621271308652 7.255043193573405 3.3869123356242317 0.3321579891930473 -1.0472015758409965 -0.8170906711193864
Ni 7.077033703668634 9.221384884411666 1.8754837856537165 -0.3892645043980522 0.44375749323960995 0.36005085894857347
P 2.2044043691804465 9.449907184863529 2.815601930651696 -1.5846960910244516 0.6780623814379096 -1.106456761957888
P 3.877284036112433 3.8498915169600285 2.9312043183937213 -1.8691223213591743 -0.023657748628256026 1.1803122144864575
P 4.34961185701217 7.952579778799197 6.21213282872652 -0.018817646927135334 -2.512718293589098 -1.4851141802640553
P 6.011648070049303 5.000312167560796 7.406465279142855 0.12422567745100542 0.20083966656131863 1.0289801677369634
P -0.5346260231392456 7.460547587173792 9.561718552200942 0.001764290989274381 -0.6952712891170284 1.2265247084867779
P 3.7211383000265545 7.433108529592654 11.878115788590863 -0.07769616643089845 -0.044269511341336665 -1.0484166791950202
P 8.011320583546334 8.613620928212356 5.282612414719682 1.0229514450443802 -0.2724919407909823 -1.6473461617555047
P 0.5970731483507009 5.177428119633888 1.8817087658810792 -0.04283226467417785 0.5344570139087119 0.1060250952825787
Ni 5.819360590209165 1.9271470261590982 13.651891699785159 0.15898107865431974 -0.30717766509862576 -0.6467417169477571
Ni 4.250578080667764 4.618110667745916 0.6723202030009557 -0.16360546480020854 -1.0185314615998136 0.2557131786707467
Ni 4.892454705128562 1.6046170996660212 11.511023455048528 -0.9738492882010905 -0.41316419383378516 -0.07930593412017956
Ni 2.9338104704027845 5.2618115986130585 11.458657484269272 0.04247102468001718 1.7734073497533522 -0.022470413188374203
Ni 2.7466142946660663 3.14118570883825 9.306864808771792 -1.1136895322609013 -0.6446778924401929 0.07083003543868448
Ni 7.194850389849789 5.024093304643499 10.405988010917023 0.20648915153761213 -0.5555102350345852 -0.39958645514935054
Ni 3.778427105797214 0.24488800430020774 0.6944017566663192 -0.5083088947584343 0.5598296883455456 0.22930589232181156
Ni 0.4927730834108383 1.7620938348136712 2.249931983241633 1.3141237358536852 -1.0459155100397215 0.4746621532382664
Ni 3.9605505928020053 0.877375966148355 9.438011031710731 -1.1530914310972915 1.561855438980852 -1.8043145808551697
Ni 2.0560957044932513 5.8047754466441575 0.2773522814159645 -1.5521346121486623 1.0358810086218546 -0.016443747378320064
Ni 5.054669052321259 2.1447886419731237 2.1923211315441393 0.8837591189812135 -0.8089798690867939 0.4700539650422937
Ni 8.65611982133158 1.5163243926732553 8.958026708515796 -1.5217053491245278 -1.5944400577850928 -0.27325247310609063
Ni 5.842629804575801 -0.15476540628964947 4.912604914001495 -0.0906414137376568 1.2597701008034692 -0.28448819392091
Ni 2.8256644697124043 2.2173699754255365 1.914621673449825 -1.3341513439285217 -0.2895476107216884 -1.0738567165346795
Ni 4.396401593260602 7.492268180198391 8.268771171298802 1.4038799187729114 1.016136736115392 0.7949473022531276
Ni 2.7792284255223443 4.582173693078083 5.16545657422654 0.4495134218867806 -0.41750961528667446 0.21357254074695478
Ni 3.83302599038709 7.089273310425485 0.39231430037862003 2.1425182620216647 1.3657525157735704 -0.027396132624765722
Ni 5.013194004634165 3.909274552023685 12.020405172905697 -0.07987543347040436 0.5912835359794527 0.5781418563911721
Ni 2.4277515963571714 8.97322336703436 6.642897178924571 0.15560830552734492 -0.9980284565504555 1.9446348498751929
Ni 4.556261095959396 0.4654066257785243 7.073552629199385 1.5736516602848318 3.1269175578244597 0.7696833854800164
Ni 2.5237324517766746 7.1887538556857296 9.719252064231648 -0.3365957132494268 1.4847933065895267 1.0131002632819133
Ni 8.289769310343255 5.733916035054874 6.945239665801728 0.36618756797393065 -1.1993147237308892 -0.2760940563199439
Ni 1.7062663357052366 3.7160190728658944 0.31062167334880686 0.5534852341847564 -0.3902242972081602 0.038484015007811144
Ni 8.265820634917112 1.458169972128157 13.753926274014287 0.13788054923027868 -3.151144548692625 -2.365510296310307
P 8.88604758233119 3.376279235427253 7.991466359080145 -0.5682860466430149 0.8479547076880944 0.06985533023024099
P 1.1885914698477984 2.6307894532346956 5.348763998858305 -0.33592954042033757 0.2762580927016339 -0.43063458270440674
P 6.832530106789763 5.4553183852860085 4.635749663004401 1.9481066104738771 0.6027216026130653 -0.7789622396787811
P 6.138046442488874 2.946199000131582 10.478256606128346 1.9056307006978535 0.33711276209516133 0.005943104957312345
P 2.824761624194979 5.245904763672026 9.185594971178627 -0.1419529195274394 -0.30096022343400425 -0.4036310575323694
P 1.2458616602469645 6.459319831406152 6.1686212593980585 -0.238856255014408 -0.3649408400510231 -0.37518334371463774
P 0.19714050718844406 0.8935369009102714 11.42875561303957 0.5303334786586414 -0.007429973915483978 -0.09397124944183816
P 4.823233446230691 9.238362103213563 2.6349509195320255 0.9825918102804111 -0.18993433250272448 0.3188874973363863
