# total energy = -381174.333650933 ev
CRYSTAL
PRIMVEC
9.22466934362040 0.00000000000000 0.00000000000000

0.00000000000000 9.22466934362040 0.00000000000000

0.00000000000000 0.00000000000000 13.50123602826087

PRIMCOORD
 96 1
Ni 8.387244764084485 0.867817239028862 7.941832520489331 -1.0607698014437346 0.3982906191560624 -0.24953764598765413
Ni 1.6910018372236164 3.693991221084623 10.060540770699433 0.32677512761457916 0.23967360870938076 0.44684101726094005
Ni 7.46425200946761 6.408663855679631 11.891443022858978 0.8603993612093505 0.3946134274147914 -0.08652019248043163
Ni 5.115660383367467 5.6371493986687575 3.8368896536030337 1.7296250624610792 -0.6423885821853841 -0.08116689858831828
Ni 0.3789217484173763 6.392917344869483 5.361233077116852 -3.369371043271823 1.5371463662699463 1.394420058911592
Ni 0.7637491302387694 0.9580095999802755 11.935254668108957 0.774539428020737 -0.7404116330990925 0.5061162579824897
Ni 4.055256952108547 8.785565992427896 6.41203454990929 1.0885153469881188 -1.3013039583811974 1.3113873107591285
Ni 1.023938312786444 0.7893992462075442 3.650613135300416 -0.9215324810752451 -0.43438762198893577 0.108563031213084
Ni 8.787872159799038 6.607759897164946 1.2860342345165778 -0.8733332956621991 0.7396698698370615 -1.0670569200040267
Ni 4.548785994202128 5.59417166354018 1.5000142802152332 -0.7501214041876887 -1.912355678126513 -0.7495827580753994
Ni 7.5212973655601445 0.24400818980480346 3.059825635430246 0.17498722427458896 -0.232831903197199 0.2205335454458202
Ni 2.894664385577793 1.2413268738596452 5.352983455196807 -0.9097784258631106 0.0824557926030709 -1.0443365955883754
Ni 1.603708789891201 7.832777555375884 13.031595566745837 1.884538655914245 1.2982325185447254 -0.7664247693334026
Ni 3.8813073596381504 3.295430151334613 4.5271403072566025 0.2663387767053929 1.66664331942222 0.15445079488413402
Ni 2.917191028459095 3.575961575029645 0.4421725396721764 -0.15141792159508113 1.0820029997908978 1.1282777144877214
Ni 6.213765038809793 1.9096818520246566 11.560784745184831 -0.7292245061340216 0.773787637456377 -0.36270192341817536
Ni 5.206744769858037 3.1776034480082958 2.2832071687935636 -0.3107872368267551 1.1078978652797888 0.14869538045759553
Ni 8.19324074015465 2.388488321620876 13.142211345936072 0.23554621680456855 0.00770482484342544 0.5300378017950936
Ni 5.407870238629955 8.14350132229389 3.1838208752408907 1.0448554442063231 0.22894002434196056 0.4666199996600802
Ni 4.973157689169945 8.941167717293498 13.18563094273296 -0.5017705794192843 0.2366191381537731 0.3660924371569631
Ni 4.904729090933459 0.47783880176728905 10.173829859106295 0.5258425327668235 -1.1049567803735938 -0.004635441889482339
Ni 3.8691031219100744 1.91456170218199 12.775369302208729 -0.8394993778318897 -1.7470183182368622 -1.0158855393365342
Ni 0.5741240569132561 5.861668629253526 12.405638091998824 0.19918773278019244 -1.7376157939760397 0.7118878146277868
Ni 5.754551767198785 6.826642854694645 6.992155564454461 -0.06570531261760942 -0.031730241223745355 -0.35802277277495115
P 3.585564455963075 7.430369798450812 0.7392687023606374 0.08558353959877518 1.0380736453977994 -1.1915651616924574
Ni 2.6895261855800907 2.7162223790684146 7.713053337536592 -1.0298720834236132 0.20531107206911095 1.1423012824603231
P 9.207511599321274 1.8911218170217166 5.959040550464774 0.7850048463284351 0.26771637377920987 0.5938844639374095
Ni 0.22159224295731644 2.7387859206276546 2.3685353615257676 1.1029526054593715 -0.7534445550236508 -0.18978186608526024
P 2.3880916608330396 4.280753997658678 2.438472193222978 -0.23347107944309467 -0.26287472941619244 0.5477858698071341
P 8.762282926648862 7.964533509623891 13.075421049000044 -1.1298478871883186 0.2560438225372881 0.262807880733999
P 2.85339321430386 0.6100200132785344 11.269981652018739 -0.21367692753530299 0.527161508688563 0.3090219173962162
Ni 2.9972703842545823 5.6159695575322015 12.644879895080955 1.1148974365260735 0.5495247068751117 -0.22621876875605557
Ni 6.961977980702662 1.9244505478694411 6.3078991010319605 0.9682525108396034 -0.9585928762626524 0.4252854025773514
Ni 4.286750032823644 0.7445636626447762 2.001139837629352 0.5281920068356065 -1.2667974399638957 -1.6496555266149717
Ni 7.309803368287579 0.2569356416204694 12.62086070067705 0.3561319835101415 -1.1275480354105485 0.5139583797347277
Ni 4.935096702876639 3.8724055535855477 12.389517059607602 -1.1134583900867019 0.6845104510560985 -0.9926119135205745
Ni 0.12230251296022732 7.553851224171166 10.956725713327222 0.4734863877626103 1.0682493976502312 -0.5980352528809894
Ni 5.903991412848698 0.16673036613177752 7.748008377614444 0.7045817678846769 -0.33851761286248794 0.26459968252709914
Ni 2.803626122434645 1.9739224503151502 3.0052940017722545 0.10440401473938793 1.2823485003246173 -1.5841168214822139
Ni 3.4251566782960166 5.23378227611729 8.65191621353471 0.3678479863954891 -1.3323479721711957 0.02605941609121318
Ni 8.900745215612146 0.6094084176917078 1.027148497767072 -0.41214963652634184 -1.3504701356932032 0.3932188610601099
Ni 0.16857530002869003 5.031476049651348 2.924624267129755 0.6890816153665487 0.6208257684129437 0.5689743309592911
Ni 2.3989583214858543 6.937763223305686 7.573261773700582 0.6749058380867989 1.2401165882385998 -0.6223964553341732
Ni 7.4305819658489565 9.203397396731157 10.27591281902331 -0.8975991101880992 0.060196724094554385 0.11074178403195765
Ni 6.494979088046684 2.032379180838823 9.190183057694522 0.2562510534520877 0.4230351730905941 -0.41268082643946347
Ni 8.02031508599704 2.235543301566829 4.1336334339171845 -0.4509015604835589 -0.42359695913133494 0.49583544488177184
Ni 1.8926992355035768 8.794901357946275 1.7772893955822147 0.9844190932971368 -0.8272660689904914 0.16090323537769707
Ni 8.96104688003273 5.125493881038011 10.204801686900712 -0.21023576306423788 -0.10111634512705167 0.9056487199654532
Ni 1.2875885913247267 4.864352712599529 6.8672009590174214 1.316368566023804 -0.9623492579812909 -0.11123800694208584
Ni 5.455921541975041 5.2887613062452825 10.30318463188747 0.05923256040907218 -0.07604911774577872 -0.17555646651449766
Ni 7.65962128448116 7.058172834087681 3.2756026467444945 -1.4344644764279877 -0.7748806134102397 1.8854285147183656
Ni 8.549396004284127 2.088917180109707 10.588628192083032 -0.8338249531549318 1.5024400731370124 -0.256225599530791
Ni 5.850543677855143 2.0009691812438875 0.40124452610306915 0.5820625316018169 -1.609369168291099 0.5267663301326735
Ni 6.421486146263173 8.838451022582895 5.215324634945629 -0.07603857622281744 -0.24805694767706954 0.7906216782945803
Ni 9.110800164445118 3.5200785272921653 8.360924014644183 -0.2502084468024336 -0.37114851152363176 -0.6975616278131019
Ni 0.6090523454496037 7.684703160809686 3.405754430969136 0.7514246963801446 -0.3009067444882495 -0.5753933471117575
P 5.915070240899658 7.419272521060882 10.86451222729174 -0.6546236907989952 0.9544809109768079 -0.19007265785280167
Ni 5.680468446568263 3.8379329637217374 7.844353593112062 -0.9441566462326644 0.9005587070370555 0.10545559593235386
P 3.7747993257693913 0.7952347721234784 8.302679451518655 0.3664472493932205 0.7042796632632258 -0.6647756916313325
Ni 3.925936310604464 2.5171171129136165 10.330282098498373 -0.6344392454313202 1.0118558493518508 -0.13638493852135866
P 7.08087474568919 6.139792414213086 5.3113183905358845 0.009665033893589808 -0.19308239121340295 -0.24841741634028183
P 6.6563462313401365 5.84732426820503 1.7283746631733732 0.5598721115477067 1.0153026702498709 0.7277589773320886
P 3.597602649640429 4.249639187487249 6.453847209281967 0.17954579017954886 -0.031967811155848166 0.8385264723956591
Ni 4.656004327621199 2.0648407927549988 6.651978350339196 0.356140982371206 -0.31593972756197203 -0.5232572885381505
Ni 1.4519537522006625 3.056049978210215 4.5242373037698105 -1.4988117323558057 -0.2804721307829815 1.0122173464563278
Ni 3.462368994996742 6.997917293014519 2.901456509719276 -2.5656629641069295 0.34843641463809666 0.8345394627234531
Ni 8.896142105539347 9.061817169482092 5.299829064692862 -0.3661276612702727 -0.2742356629549664 -0.3940734957509213
Ni 6.4677570883977396 4.204585901724645 0.43390262347926606 1.3781251784063107 0.9644642474417648 1.0323827656606093
Ni 1.7307509380325967 1.5343485000367751 0.676148901412518 0.7987101117296697 0.8530845727154921 -0.4723288771193994
Ni 1.3064807144291108 0.2302597424050114 7.095844539328739 0.3284286040576021 0.3006956569187079 -0.3139548359214593
Ni 2.1152997348355562 8.063412741828916 5.352025012037362 -1.9274261993063906 -1.1026764689798494 -0.3845848395341957
Ni 7.118705115245381 7.051014490567661 9.064014485753315 -0.3279421513394868 -1.3656113622100159 0.9100759024988714
Ni 2.1143403692091614 6.259399478749924 10.522809252843729 0.27561197447720276 -0.0654947392687001 -0.8521214374712743
Ni 0.22701358121339385 4.2511981566301404 0.6696436644920045 0.3110194074422192 -0.02754422816685579 -1.235779908536459
Ni 1.9047651031893846 5.309987270729261 4.398986586442317 3.099871352339945 -0.15044861570327636 -0.6238061911975064
Ni 2.244297512907679 8.867158194018852 9.243094839391025 0.14919725979467854 -1.5283606496575164 1.2638614972640234
Ni 6.582447404099306 8.1926134626297 1.3097536271622334 0.9771927507520266 -0.6740182932755231 -1.8614802314328844
Ni 6.1029675336307125 3.727153907881626 5.35577853005063 -0.9944607938038551 1.3179675350798075 0.2098161590283161
Ni 1.8085149017874589 6.122791348353038 1.1758686191971894 0.7407913850360145 -1.1254392165976617 1.1104710253236036
Ni 3.939478125407802 6.208673021254315 5.690136822655033 -1.0868245895492572 0.3952739438169257 0.34395189650418184
Ni 3.8588545141127253 7.8899705061801715 11.331155970172563 -1.3154943909489667 -1.2605036365353839 0.4560028862658662
Ni 4.600767006747638 7.597779100256652 8.887445087149302 -0.7238650415943212 -0.628606183689311 0.32347588803801713
Ni 7.628045240835503 5.123399881065014 7.22599632355338 0.02079662503037709 0.9740305509739614 0.7865878745448389
Ni 5.553103434994908 6.511131484314152 13.073030937136595 -1.3116757885338248 -0.15272635599385956 -0.18989139507993105
Ni 7.318622152314821 4.071446247053954 11.773347881650658 0.1696843240044368 0.3056193194725704 -1.480912997698514
Ni 7.8638646915388595 7.8295212470478335 7.076916440013364 1.164811033527065 -0.03854469304241749 -1.0061518569885382
Ni 0.9795584278962137 1.5748263497350357 9.074140405446519 1.320380001176042 0.03129289657601063 0.8766716160068128
Ni 8.613203043108847 4.083834978171722 5.450732665389975 0.9479654784557932 -0.17633422522078665 0.14792044996478396
P 7.237518858206547 4.138491144867754 9.35308979832495 -0.7139405833917576 0.13544160077148287 0.34418483845059433
Ni 0.4045358881751611 6.355917195566903 8.413024947892993 -0.7279363834502173 0.6734655060958467 0.12529088549072614
P 3.7270339871783267 8.63925350973325 4.2708596171695365 0.7625424035598609 1.7158766025267354 -0.40904862900351485
Ni 5.464094599138363 1.6123154065202978 3.8698327932663035 0.5482306706540364 -0.9916091832876729 1.4176103809851262
P 7.4429430229582705 2.197712932010638 1.9389258992246166 -1.0549850764411572 -0.14024133615297138 -0.26316757806626284
P 8.974985355623906 8.352126447356756 9.069076984366443 0.8526989072412992 0.40023385892536234 -1.866893689138972
P 0.42304979983067814 3.5908686409166983 11.979188078996136 -0.01632316264005576 0.3466358710942482 -0.2773652097228836
Ni 7.279389632996976 4.40966875370544 3.5326526742665725 -0.7002052360835361 0.6259620611982446 -1.8211895022336375
