# total energy = -340870.1949225791 ev
CRYSTAL
PRIMVEC
9.25850446667187 0.00000000000000 0.00000000000000

0.00000000000000 9.25850446667187 0.00000000000000

0.00000000000000 0.00000000000000 13.55075715094875

PRIMCOORD
 96 1
Ni 0.6004436470283203 6.2805065588384394 5.738054480884992 1.1977759184888597 0.7997547509441001 0.15412040812790875
Ni 6.333215225219315 8.56543141277646 8.467637532657957 -1.365893669337125 0.9014789048584798 -0.8855244384117523
Ni 4.721531787854591 6.82292530617552 9.456883745445127 1.9170170881579245 1.215143720343346 -1.0360720415867382
Ni 0.960190247970186 8.822225294866742 7.498392467241696 1.0755258767069864 -0.8598820552532999 0.7229232465063421
Ni 3.541748329060303 7.51168397636806 3.205865523585978 0.4285183076923524 0.5953278812521553 0.47808814820067985
Ni 2.9240023887362545 3.7297885563913398 5.413933679586017 -3.0752723228443424 0.5717416092917831 1.0553874540858985
Ni 7.778032635149904 3.4855214309519136 12.299399258119903 0.6623534553430852 2.259715571870979 -0.6496187813852361
Ni 4.267985425655405 1.3124948629579067 2.4734872609254563 0.3217437358382588 0.7905257761466643 1.616160994401952
Ni 1.7307848398455927 1.916427114499193 1.2762302265013366 0.3401685182023496 -0.06257602296000837 0.5169233759003227
Ni 0.9831605977490291 1.1894123035222197 12.651298350608505 -1.162130144260792 0.6670727151956254 -1.0670888016832267
Ni 5.681240593588381 5.941960081606205 2.0546880662877354 1.1716308846623757 0.3594026838416133 -0.27785526198542465
Ni 6.496905585594142 2.6636347238911826 10.199464880115437 -0.063946935165606 -0.5360007042467478 0.05120711900143439
Ni 2.0458702665580417 5.07228097407857 11.494700964748985 -0.13023588820082732 1.6585587426418726 0.3827922664101472
Ni 1.2481019638398683 7.496796301057951 1.7334262911925917 -0.38197337005327764 -0.07574187091800504 1.7201981127202246
Ni 5.423548636557128 1.2607120470316395 12.019657246661689 -0.569662101054935 0.9700918780411872 1.2650735152942536
Ni 4.4049094493874925 0.8267992695728853 5.23953585870364 -0.22699344213855102 -0.3923588270526598 -0.1192883880503881
Ni 4.179501897708447 5.13179464130082 3.576275144213572 0.15672647829218814 -1.1505666077929089 0.9627716902306902
Ni 2.3121541158080636 1.7675688784071983 10.520997929393783 -1.3499772552171847 -0.700351017632781 0.07733158400262811
Ni 5.394893564986988 6.907436935672206 7.063969546182453 1.0137157853787253 0.9021111391258398 -0.22489902150336752
Ni 2.136075876350572 8.568181188626648 5.031911116706264 -0.49375670797587223 0.6573819702704228 -0.09186885838685468
Ni 5.874539651501596 9.121617556373572 3.677296539016842 0.9307354877307519 -0.2895458109494755 -0.7185695975233367
Ni 8.137031148924446 0.7212032476733938 7.490560698246161 -1.1977900595562467 1.0406434630075045 3.3359551868155384
Ni 6.9832177953819325 8.634314686599351 5.941600851629817 0.06742023842618712 -0.10627474939953954 -0.2133357421458003
Ni 6.664503034887418 5.935182856278468 13.152026051974556 0.024074524450700473 -0.5139799770012826 -0.21140792899546815
P 2.710603117453484 9.34988598595736 12.234572135138652 1.3721625330649723 -0.3688471170839648 -0.22139023701916066
P 0.6263767182619113 7.583224440995678 3.9634880247418613 -0.053221321217985756 -0.3648883895465329 -0.9534879509359192
P 8.470068815951759 7.410905154383897 7.2256563661735065 -0.8122140597533755 0.5951756719450072 -0.7488363668276782
P 4.083167157906407 4.850391654127038 13.387389273592007 -1.5073326253426236 1.6664222045503494 0.8745149746751261
P 2.674680119814665 7.842712547908872 8.810675310445498 1.0300582312924906 0.8443384510917459 1.4662700509743587
P 6.6683360557694975 4.853650647727259 3.83273664599065 -0.06705514177728451 -0.12459283098243704 -0.5272468693135177
P 2.2696946139597065 0.4192389736036601 2.8507268803567 -0.19961582145654655 -1.0101429804258022 -0.2690996272799817
P 4.697357832484758 1.9995221928003277 0.5110129740662975 1.2710479877101335 -0.2042224669906225 -1.102626075357888
Ni 1.6623644912500062 5.2793381697472705 0.5267440991405548 1.1058556380387792 -0.8382233393329435 0.15489045352471387
Ni 5.181235055576927 3.142623456583018 6.1760150765312956 -0.40336829078928593 -0.5856967859202945 -0.1134769235749336
Ni 5.454647953327436 3.736380611628154 12.388332749387802 -0.1548572862939333 -1.1764959260641608 -0.8381228091993372
Ni 0.03678866781387858 0.8511389521740947 5.706250591918727 -0.06180494912193872 -0.836130975580289 -2.1459437427634462
Ni 4.430120357266488 5.936941972142225 11.559608636719783 -0.3402376808773882 0.12097194640039811 1.0014117712003914
Ni 1.5151450104626694 7.566105466089962 13.026573315375067 0.3953911861210804 0.29189734190078764 -1.137500261527254
Ni 3.3512083055018227 9.060742888983047 1.0031182301485753 -1.7274910468372118 0.7618572045673782 -0.009673004313389794
Ni 1.3361688590822525 1.8107227680965121 4.179948157627568 0.8805838065770253 1.1057237404466054 -1.1090512621579416
Ni 6.190949044364135 2.602213804732438 3.499726754476976 0.8613501551583941 0.5823659217748487 0.4590100485233063
Ni 8.840862664518017 4.228599747316348 3.8317339499483087 0.6890597609896778 -2.0807660205145324 -0.23568582770622634
Ni 7.621591683834664 8.305054489426842 2.113132376234913 -1.2041100882370037 -1.4060985236907848 1.6975896312920895
Ni 2.9801737358173668 2.644636272562611 12.685730729015404 0.5468024228479422 0.6125128776718741 0.4583608449750816
Ni 9.092592144621587 1.858135569877026 9.991392952348487 -0.17297045095487631 0.22061942029140713 0.011552480724289781
Ni 3.098562233448188 2.6240546169566583 8.142772347593475 0.23398272897219058 -0.5252635203349018 -0.6928847911627228
Ni 4.021829565288576 0.15038403764118968 7.761196044632844 0.07812862598262674 -0.33185125658590586 0.33082975729992703
Ni 4.871251064869372 8.98860988006448 10.461374085967435 -0.26415591012146117 -0.46753299839265294 -1.1233972464669686
Ni 8.668821133042618 5.039218854344491 1.3016151942657994 -0.45915120208686094 -0.9121883208561838 -0.23539349327678813
Ni 7.380028041722696 2.4541610585359535 5.914322519685679 -0.24347087096828393 -0.5051410385534139 -0.5726263258895815
Ni 7.955545942812039 5.246877852808687 5.727119261165609 -2.8710637398107908 -0.5674033869277454 0.758927432515093
Ni 0.6750607127166032 6.136407194083134 8.387593131604756 -1.016844560815694 0.9553638278023935 0.002731025777917877
Ni 0.24227747281247167 3.2222928882021007 5.877234802174962 1.8834919598172855 0.9747766851113665 1.116880014173741
Ni 7.803475005642553 1.2655727619183355 11.975956179353702 0.1011274008706452 -2.0648740318746244 0.3940796663985084
Ni 7.408164637038256 6.147730345142999 8.794035000224815 -0.8062465293160308 -1.495560829518676 -1.185571406002868
Ni -0.12781458110919222 0.1813157754792133 0.9596115914360556 0.9590551606110514 0.4814048712787387 -1.053349083499631
P 6.562715035907732 6.957627288816546 11.117244696311362 -0.3550084114286595 0.6460814576559388 0.09884760369753298
P 6.252536616604709 4.886203549711304 7.235047267334603 1.5445046064072303 0.005906081071789828 -0.8978438792090536
P 8.553969384148402 7.104078313726558 0.523570283782156 0.7518530421668148 -0.29114220890231796 -0.5346591026171889
P 4.117219937626916 2.812742939605921 4.185774534538421 1.4482250205471896 -0.8917953590221286 -2.365701072164874
P 1.7530422847743872 4.7885448437591736 6.957175473794698 0.2084935835621506 -0.32358515992237175 0.19711670918377666
P 0.7233021506539918 6.704759012653805 10.562530654937076 0.18775815078701213 -2.203400185108702 -0.1421562937874971
P 1.387553559313038 3.8936918623707264 2.3023817642596685 -1.0584272693534866 -0.5286375790134573 -0.44811911264241533
P 7.148121019852296 0.6216696945506804 9.993602031533182 0.23589974348924536 -0.16500285936836742 0.13095553997567122
Ni 4.597143779277906 8.320997634255205 12.795641214033372 0.20101244469375704 -0.5981658649215827 -0.8780219593871201
Ni 5.05006056316796 3.8498991358677324 8.54738380986477 0.3856227938804069 -0.7363654880541769 1.6533064931039978
Ni 2.7251667451044796 6.976514638090565 6.960007650335346 -1.3880223829153646 -0.06801210637391514 -0.4567006836638393
Ni 8.359929645871503 6.295431268166732 3.229375644179858 -0.7547802431159388 1.6632368648438323 0.2500786060927887
Ni 3.591049865768219 6.746875949833957 0.8953510889330262 0.2823454365462944 -1.4543732995367726 -0.6285689026934723
Ni 6.128935580914441 6.847793649386311 4.625456286179842 -1.0030333659642143 -0.4673406798761887 -0.18772678332844445
Ni 6.39617305613271 3.6965320080617934 1.1373554358613884 -0.1083653133799811 -0.46861003350691555 0.0685101290562562
Ni 8.310396646549934 8.077286019088543 9.379265072583005 2.266850383143548 0.9337660470269595 0.08263217027993511
Ni 4.042040880712686 5.128081980977838 6.898419152244318 -0.7693589122610621 -0.8656922341771738 -0.1745586213776026
Ni 8.756008470353123 4.571275517576138 10.242082702391533 -0.32222016125404507 0.35022950198277747 0.5199503356521046
Ni 1.7456539981466093 5.5563063332434774 3.531001982833659 0.2264905343602035 0.7307972499377801 0.20324184824490804
Ni 3.55185861602463 3.587179810867954 1.5052726670651762 0.1831175666912072 0.7410394964910786 0.7270316122477608
Ni 6.952785090938943 8.374409946981583 13.253331682867389 -0.08984437175765816 0.60482656477121 -0.08865497943524732
Ni 6.859931548846231 1.136509208545876 1.520761219320326 -1.2438796548254578 0.683757632050474 -0.308917530607868
Ni 6.182662682795387 4.942171209692402 10.364960648876751 0.4060522653793523 -0.08861049935055706 0.4563751820036205
Ni 9.089231307471358 5.561833660457491 12.436789910481115 0.04050593053384637 0.6562226598549988 0.29544829247683957
Ni 7.881496423452432 3.487743472042975 8.254443800176109 -0.3810598571000728 0.40059972690521334 -0.5041043697587834
Ni 2.8930419495341377 5.675898436465289 9.116800356458244 -1.0802713618117716 -0.8590541600353657 -0.03880566001328801
Ni 2.3430682624874497 1.27684962045547 6.334382722642577 -0.8191832919823568 0.7672495792275432 0.4223286339418727
Ni 1.5754734260849754 8.660303308860218 10.453420104711892 -0.10442946866068467 0.7231533602392771 0.037495682952612845
Ni 8.801532537206237 8.055037832664295 11.598147161892873 -1.76638900945399 0.7662604758413964 2.502139746742303
Ni 8.94757618791622 2.196487618513793 2.4755204285237773 -0.24001402276793501 1.048450360646433 -1.0211588719203315
Ni 3.4170640483381427 3.748787007719911 10.302464817340207 1.7882120188663524 0.6184539257466575 0.8042107298329246
Ni 1.1915880520905504 3.83502071906217 8.879878928525685 0.03824593085507607 -0.6261255833593024 -0.16000797725693733
P 0.9051771398077888 3.359939075288783 11.903134337696905 -1.0236721252604886 -0.66942141793346 -0.839935951148676
P 1.0647835738273361 1.7297293703273386 8.209644674228956 -0.17389090588661665 -0.43562277994761756 -0.5399740870721991
P 8.037622585613105 0.9647639492159533 3.8826038773263316 -1.7663861812405128 -0.8453139276311378 0.8902827790323442
P 4.057141501627354 7.857470604155335 5.6247970464736134 2.360506158227496 0.3185828216117739 -1.9900454167995083
P 4.3275083513822015 1.8351837371072752 9.807781067741843 1.4166683287868311 -0.31018688423859486 -0.5607480863947568
P 5.80940607201987 1.0849485967287147 6.8248520009715605 1.2664007187461093 -0.2063117454194834 0.7358232423974618
P 8.26012296686468 2.3428275413692514 0.36798296658606516 0.15318118414309104 -1.1448410181630413 1.2759467105633315
P 5.266857705619144 8.068907072474333 1.6295866076054928 0.723630814096328 0.5398144215658832 0.11959743465037466
