# total energy = -381163.90932066494 ev
CRYSTAL
PRIMVEC
9.26702250199447 0.00000000000000 0.00000000000000
0.00000000000000 9.26702250199447 0.00000000000000
0.00000000000000 0.00000000000000 13.56322415666658
PRIMCOORD
 96 1
Ni 5.858760030643444 6.125474211306301 5.335392875875725 0.18129594010143618 1.0974884970210068 1.2786111447693722
Ni 7.235348453385026 2.8589228416453487 8.317037045886387 1.0324511570046992 -1.6168917019203894 -0.7646172838110187
Ni 1.2633546722284148 7.844247447674095 12.89897927370599 1.509377423686794 -0.6451604885035663 -0.11356511241336571
Ni 7.5290204031159575 8.035611466668849 2.9168797283860313 0.8841440131244579 -2.3103614190523047 0.7807758958487522
Ni 4.861202103829437 7.232281068867484 9.195716678653586 1.5354952038197685 0.4087676074279864 1.4629926657746675
Ni 4.024019272062559 9.063472557749822 7.639093172182195 0.8899953296989125 2.11432714429943 -0.12731717189213557
Ni 5.975580118946005 0.5186205857348324 13.073103850350334 0.6556858135149224 1.7333410778600857 -1.876687278190626
Ni 7.823859997708553 4.802606719223926 12.298765333102242 -1.0557317247991949 -0.545996382006879 -0.3126880533938937
Ni 8.60912896824499 3.5845677880552853 10.286172801342403 0.6705218500864903 0.06835586286657905 -1.0228897385685092
Ni 2.40764663665806 3.8745792638151304 3.562421457179079 -0.8269665354722016 1.877537027785431 -4.442558758763936
Ni 5.2410851658464805 1.3326442010431252 9.265160966747581 -0.18666774593631077 0.6456150595424817 -1.1126880875795804
Ni 9.04982223329562 7.93479552658924 0.9757572558849437 -0.8791378181591182 0.01024584609772429 2.0232069911531414
Ni 4.607026204895389 1.2499267563192915 1.0214807459440292 0.02281442679135426 0.7562889664509814 0.5795402794005955
Ni 3.0230232798225445 4.226716859833612 11.92811037230142 2.336378669051673 0.029552773956452328 0.04338376630227367
Ni 7.148395979281986 8.680383105874562 5.089844575086186 -1.054050737552346 -0.9325763975942325 1.8953334325369033
Ni 4.91554392501032 2.813634901653709 7.253612828447339 -0.5656894895604322 -0.00018614786887709875 -0.5362004789623798
Ni 6.46631530663933 4.893303070502456 7.663303269016277 -1.684610702533918 1.5184199935050366 -0.21042653891880533
Ni 8.684831276776135 7.295621169101341 7.276723856387824 -2.578747308094714 0.4581430725373207 -2.4669647415030673
Ni 3.5809814502658917 6.986945909600311 7.267053718188258 -0.8799921957396134 -2.3226281522348 -1.548570548946488
Ni 5.15884960630365 1.1297520057951285 5.156506902962156 -0.6630651366981289 1.002712749400002 1.9112727294749794
Ni 4.406339561052755 4.29714623244185 1.688811098536615 0.6183593091503222 -0.15308271089201378 0.9977430640995526
Ni 0.9193683493870658 4.786343094365049 11.545328585580187 -1.581161852618948 0.45119646601615837 -0.41218974573565786
Ni 1.8056701083345637 5.688506289385739 1.811599149465452 1.4134649913581852 -2.036882945978337 -0.33282827578719454
Ni 6.321175196930089 3.858213701706427 10.179349050438857 -0.6733156107815436 0.8081681718187759 0.9497202563633707
P 6.820751124290291 2.373173312170869 0.2516978970609639 -1.9852500522933938 -0.7354648306167785 5.084629295488269
Ni 3.4122475007328905 8.067341752433402 1.0215113271189775 0.9414428468459269 0.028343069919067317 -1.5245217355274001
P 3.177847428265419 8.769142649406366 12.526587672849013 0.3213534423783756 1.1518416178505906 -0.49342066479269214
Ni 1.2651061395209091 6.506951201229741 8.051103148535848 2.9286775336695174 1.6370756330674323 -2.19090076709011
P 8.365508208179465 1.1001253341861104 10.405557074829266 -0.5250681164946441 -0.7207928304269006 -0.8893011318453652
P 0.565945417318484 4.826469302706322 8.743315457109107 -0.3633660393647355 -3.7770407896499396 1.4297390459278603
P 3.98690484610256 2.2025766910728346 3.380877702151819 -0.3600809408555605 -0.7287838190521772 0.20009533219612635
Ni 3.4305313365428978 5.717734479018159 0.2690281562339464 0.32165169034508473 0.4297611789605179 -1.5624853592553671
Ni 6.01802308296518 2.8150249550604505 2.7221666073833015 0.5717698914265573 -0.6760435512356681 -0.3662567306489692
Ni 8.258140483042748 3.534377593049203 3.108826643109345 -1.0691364282408748 1.734667252870677 -0.6472484813808466
Ni 5.103710821169568 3.5513640456795854 13.133243120939602 -0.035007112202804225 0.17614344936621923 0.37220909157766224
Ni 0.589354843390283 2.3469754389651474 8.688981049546394 -1.3579191357720808 -1.7366655142476284 -1.8363099028148442
Ni 9.170590073273326 2.6634813326574864 6.114749485922156 0.578809571882158 0.7302184946161746 -0.15849076928146252
Ni 3.258989479128279 5.554282732430775 9.356807187854052 -0.20882602720090487 -0.5968222064094947 0.46799296874820695
Ni 2.0915114238741848 7.588273746333995 2.7639136179968347 -1.7708246766278404 1.4148063358774279 1.1342964098779755
Ni 0.26626843687042884 8.368686796969548 4.685849646675805 0.29077736936373144 0.907268000736431 -0.5077730768596223
Ni 3.4198835274472574 6.909529201867518 11.448351973009997 -1.3249354817572085 -0.8394626110566834 -0.38068164782504765
Ni 7.165354630844233 6.623882493804841 0.27152932566381 0.2120689596182348 -0.41760577454490666 -0.4242433344660823
Ni 6.078694280658093 8.409804576740964 1.189389930455697 -0.5365663469422307 0.7650826534832114 -0.37152980612245046
Ni 4.6925886255916875 2.3765279743924728 11.289403999460456 0.34803018033861355 -0.2901410213313132 -1.6510441794323825
Ni 5.345478176692771 0.361457440759548 3.120192646465135 -0.6694041915422794 0.33401612544770864 -1.3299733012914319
Ni 8.974592542922768 2.832261617304046 0.6178129434353672 -0.47639276277612796 0.9108001822594057 -0.5296225686345458
Ni 8.276127774125984 9.20250569949211 12.748711720330414 -0.2193459528956222 0.3657486806642991 -0.8327263207741141
Ni 6.793042726382576 0.2846060214121634 7.627699367758269 -2.4885846337656883 -0.8779437978510171 0.49371197078086576
Ni 2.8340223516192515 0.5176095535569957 2.465183727269906 -0.7007896478320963 -0.10581375060272101 0.770140527622093
Ni 0.8549134263210024 9.10678662190389 11.036843342585042 -0.07262337989368138 0.027765343038726374 -0.7304964308679097
Ni 7.995587195577404 5.753996338888689 9.429153907461323 -0.3644338185076175 -1.0544392312400162 -0.3617909815681317
Ni 2.9767993705370324 8.615671486279387 9.812016317280147 -0.2644762695753574 0.1930106574352031 0.19391491441702732
Ni 9.076316651228113 5.968620584889584 2.613931488920777 -1.4431877152335983 -0.05953466503052327 -0.0801471990745523
Ni 6.6394140238695 5.482398437256814 3.1904366786191414 0.3825133017171477 0.15150045400655843 -0.4962511922629518
Ni 2.2558342705964596 4.196024480612759 7.435386405637847 -0.14769085045248112 0.4837679721942765 2.133283116576642
Ni 3.099661557647562 1.8094047184873427 12.725112320293027 -1.3123221638685723 -0.8727157166828582 0.44317925213863674
P 5.514981289110835 7.774040483610936 3.9084196506511186 -0.39585732712422145 -2.0721263425616634 -0.1538645833633608
Ni 8.512789000135088 6.13812369730765 4.837391415674226 0.05419088422010668 -0.00799098862527656 0.19036010718623345
P 6.749830599478337 6.987372192645045 10.671436296745807 -1.3151619473102125 0.4630777908347767 1.1114804404247245
Ni 1.887284777355716 6.600473994435314 4.919788221412238 0.32409783789273217 -1.8481390342392878 0.7873792600978826
P 0.5095166626229464 4.1465941814690295 4.454976603052371 -0.8103371544456367 0.6304170116458045 1.0253698246778857
P 1.7848656423469984 8.269613057159722 6.384182611048598 -1.080969416320061 0.320780343483725 1.9943378735272748
P 6.86223031794746 2.1020758297654205 6.151139230706107 0.5040331502012158 -0.17803552418260954 0.7191946327018452
Ni 5.302840605196652 7.711033996194697 12.464603338037865 -0.20022311602324225 1.591173728328995 1.5121452162399183
Ni 8.700399874931641 6.842361821253767 11.780352328676148 -1.1817756864058615 1.343443310753409 -0.21924979363739017
Ni 2.535096000010837 1.5363796953578788 6.694821552662218 -0.5787712624450548 -1.311824141186231 0.009975623155473142
Ni 3.870650046185408 6.0989797933738075 3.284294011344602 -1.6236842993621907 0.0335544389166777 2.8303996864325254
Ni 6.85591020845814 4.362293402104472 1.0171725070854014 0.5613780066692718 0.7907304359583027 0.612586668332603
Ni 1.0832964209418259 6.652897541914893 10.255574019050936 1.20844573949788 1.1982479730292719 0.2282180585742715
Ni 6.0742739108246555 0.011766338736931652 10.832160758549161 1.5038516087725582 -0.6855003257731936 -0.6730721273121699
Ni 0.41885923283980475 2.1322307216690004 11.750201143581654 3.9367767441924135 -0.08747407175326871 0.8724470364025039
Ni 0.7641633263107448 8.759606883036119 8.550704096857372 2.8033043728776303 1.8605101542101314 -0.9137988598764134
Ni 7.437054469725937 0.841894186113461 2.1425421378402096 0.5972834623166293 2.3171103077403643 -2.4961866144826623
Ni 2.8531587535187275 2.619787320572244 1.5357096896158293 -1.8212514658198247 1.0176341465965246 -1.632802459613375
Ni 5.191469526248518 6.530748915553157 1.7383850365323745 1.2556805041151278 -0.09885171746259104 -2.1821345908617067
Ni 4.723883361288795 4.047001488387353 4.222543919506574 0.47622127019527016 0.26150561698280766 0.9985053961868737
Ni 7.0208354116566705 4.082688792849764 5.086914342504775 0.3323341097595954 -1.331294848316333 0.8540749616532195
Ni 8.205772537699438 8.02376821164341 9.394459101131323 -1.6948056407890488 1.633512341196206 1.759242885327512
Ni 8.693542278125047 0.45378386133305065 6.697696183107359 2.563150482097721 0.19698172626780913 -0.8267333364154729
Ni 1.7356299506802129 1.537565874264965 4.400615321123794 0.06618945134287955 -0.3650794225114164 1.1528512900620274
Ni 7.996449028689584 1.4355637552782698 4.301020774637575 0.28124397595199946 0.34822352729634226 0.47245820360841206
Ni 8.568335534268481 4.892052022436388 6.819725264876116 1.0578402865017653 -0.14092010738755087 0.7414791551316585
Ni 7.625934926633978 2.4336406353641267 12.108039811972318 -1.669267130198312 -0.21005167207788986 -3.803236217098386
Ni 2.9618609299259164 8.791346435823383 4.798872109071146 1.6768570267304284 0.5152490735216932 -0.6297572665746186
Ni 0.206242223958244 5.789600240146696 0.16971347383361832 0.18204593089358326 -1.3458375220171983 0.03249257331106663
Ni 2.8881695653231914 1.6332293497169186 8.933132810013294 1.02700196096467 -1.2678575057972938 -0.14275381816217994
Ni 2.721298287355224 3.431031755769325 5.508554608860335 1.1658700709191985 -0.7563254761158715 1.7840406610974822
Ni 0.6551571915586145 2.2680296724849383 2.618245287993032 0.9629012738300191 -0.6865557636209015 -0.7550430098590222
P 0.18591408293805556 0.1737909638267269 2.620876195740858 0.8897703581722999 -0.9793373078988553 0.5877228152113878
Ni 2.078639529327758 3.352002586084712 9.915191641342131 0.5362434163851733 2.526203729670043 1.690511384289069
P 5.905966244336388 7.413951782105892 7.311730961383203 0.5402227127478954 0.318267090143568 -0.5144749143598301
Ni 5.424924362399406 5.689080844793859 11.928421744264531 0.3089951779233388 -2.935669905826951 -0.7755429295845869
P 1.4798879249079022 3.8928538326024267 13.359844067092983 0.4908806719796578 -0.4507856037309849 1.521843931584921
P 3.9278368433387554 5.301079870881446 5.846387628621173 -1.4790957419841173 -0.38225567718038683 0.11386593148323615
P 4.428135598470463 3.643478251432992 9.24021784841701 -0.8479685916451655 -0.5663595190442633 0.1546037755222305
Ni 0.8727135235454636 0.7692898432748075 0.5586105688422445 1.070648494010027 -0.027291488726101383 -0.03930162581310005
