# total energy = -340865.77302344836 ev
CRYSTAL
PRIMVEC
9.32342623240672 0.00000000000000 0.00000000000000
0.00000000000000 9.32342623240672 0.00000000000000
0.00000000000000 0.00000000000000 13.64577671749386
PRIMCOORD
 96 1
Ni 6.624900282888492 6.526733929242404 12.112605499422155 -0.21334859766160677 0.7078717514898584 1.0562873401923485
Ni 7.003142357261003 1.9650239364761064 3.1194104682586126 0.13429745986471064 1.0884145597441968 0.005533271113403374
Ni 7.773303972128051 1.6129620426561848 11.392094858029026 -1.3228235776205282 2.1431085873074958 2.06816375836949
Ni 3.5451395489019593 4.0355610863830025 5.117684539316166 0.6705295633959742 1.8285233168908894 -1.2343244070368549
Ni 5.142559440211574 6.22252918171039 6.0988847014987515 -1.0435824910311704 1.5881714511675615 -1.8770827138568318
Ni 0.25185091282512084 6.7905402713846845 11.446923130028889 -0.13433268397802026 -0.4725512775428507 0.11587499149346496
Ni 9.193336358026851 1.2183760022905508 13.448963865240021 -0.7112067294003622 0.9411458844307985 1.204611967574087
Ni 1.9912134404548187 1.191179568290585 1.775083370133664 1.304664133102682 -1.0609914305362371 -0.813881163043153
Ni 1.9618260013160143 5.506527349190206 13.317308697303744 -2.112898896493335 -2.104473648544117 -1.171643483067866
Ni 6.464872996918176 1.9775173274805473 13.373092620481184 -0.6969067678379223 -1.2141607876047866 0.5848033275717477
Ni 3.9353156087115475 0.6319931014414415 11.332817447083402 0.160243233196195 0.5556950973518817 0.49219270592286196
Ni 2.993742804578346 5.217659637630061 8.930874453931466 0.8467604302696772 0.6647391819664423 0.06472289409968209
Ni 8.735695986793282 0.32814823815776417 10.024378080790017 0.7761522810338117 -3.5228381340864487 -0.8280116889072644
Ni 0.29422495221025785 0.5019574126226812 3.1350355980976743 -0.48581894118603436 -0.3699899724391564 1.1968742326101969
Ni 2.0593863322641264 3.303905221402776 3.2171283651081986 -0.25445719477645856 -0.38471365180257616 0.26815063310315107
Ni 9.269900333346603 7.668751071587901 8.757695543072444 1.172129164455033 2.5233816868402155 -1.387008339828553
Ni 7.437297018091448 3.771838655075826 8.23361550494578 -0.27967071792760867 -1.189364554496713 1.7147113785740404
Ni 3.110789096122936 2.8773491528623447 12.171268496586292 0.1195570683307425 0.7814011881375769 0.9431395178220596
Ni 5.948094133788211 8.962646825472461 12.6030344956441 1.4475544768427264 1.4432877311465724 -0.5178335464194178
Ni 9.266804955873862 3.0595009290218695 4.264482897344525 -0.6745006322285804 -0.18410538452577327 -0.07173557797208935
Ni 5.320375823224035 5.897085669470826 0.8448506491935226 0.8417079554474343 1.3824762562861548 -0.1865816139804077
Ni 0.7016251094389544 8.24477098430161 0.7252609270026545 0.34959598216383664 -0.46836629292722565 0.5916990262503165
Ni 8.820119610334485 7.0496662536133625 2.676264295275419 1.1978605077828661 0.8281379300724834 0.09678635029313008
Ni 3.6168366957856537 3.308744079560466 7.297515551946613 0.7411084020558011 0.07084880449176185 1.5466717892618782
P 2.442802908134745 1.360763366036687 9.708205783486884 1.2380123974114032 -0.9478752327348321 -0.8490607962680796
P 1.656437178666415 4.3673072346815225 7.131364639698895 0.6210620527934659 -0.3543586936598026 -0.30237741549650504
P 3.534827839610234 1.9533043898398508 4.082338579925898 -0.9989993051041571 -1.1718944227364074 1.2913905559222276
P 2.436845238842329 1.0795408638971702 13.052881414981687 -1.5905764610646285 -0.5974852939147903 0.1513742128413393
P 5.723558062474815 8.436898826412444 9.102251146520967 0.9499439423384026 1.3887770016932017 -0.936092124056975
P 2.5006734140784506 5.605141227290185 11.064705546757652 -1.0548752903361704 -0.9498938058267576 -0.23330858572330143
P 9.213931806331933 6.442515421075901 6.047398877763884 0.32106702148620836 -0.21510234712791984 1.530685441135951
P 4.897978002734336 3.862378446153532 0.5836474076247042 -1.990997239189816 -1.4011818031154577 -0.8264201760504283
Ni 3.1118333198486803 8.302305846904899 9.846519742360003 -1.5476218118799734 1.480287191189057 -1.6953334882680609
Ni 8.552742395987202 5.769998047992068 0.09443325382655265 0.7013167239801599 -0.6714381912531726 -0.9332204589361348
Ni 6.272735831381222 1.1766629938175146 9.509114274404995 -0.3085148958528106 0.6602950301521596 -0.1940758654749238
Ni 0.709937876169969 4.274902758379273 11.531063321415962 0.17570301939469096 0.4368160289247703 0.3025396521059822
Ni 4.428431616342056 3.015774060506326 2.5269244526695727 1.2750743352607072 0.005521701149177587 -0.13516289318879948
Ni 0.9125424522148979 9.082368940314272 12.102194029470919 -0.10311126406989339 -0.461310928742341 -1.0927761791470019
Ni 2.298644093425293 3.396626694193198 0.8294800488876111 0.034426814219302 -0.42729883346295444 -0.40741392161356926
Ni 3.316538463799058 5.165560332456318 2.204011318279714 -0.6741615037216068 0.8506062863783286 0.5503844837722457
Ni 0.45018629204845767 5.524325769658472 8.599813577452965 -0.18146280469660359 -1.183674188980155 -0.43524868443765036
Ni 8.433309307355197 9.165319462528085 6.8029516162392465 1.1744480423961967 -1.099336605973339 0.470298476952932
Ni 3.119627704087272 7.004419666639816 0.5572499912434552 1.045446797933419 2.4171575881729535 2.205536771835731
Ni 3.7422833942668126 3.1079081574510163 10.001548739585933 1.6024989235338274 -0.32798817408607384 -0.6589984228279232
Ni 7.199521681683795 6.395693175087614 7.364257297846083 1.1552426731123393 0.47668818252935974 0.6772990209093239
Ni 4.220043719073206 7.2278835439491 8.061120001221553 -0.3419415509423724 0.6465733096906928 -1.857951906564652
Ni 2.1953032382810966 6.823936783756258 5.744422025452231 0.48157225009453836 0.29191122585785856 1.3745711425064648
Ni 0.9086573805495617 5.338957411486611 4.205409669430989 0.3549261361274984 0.39762316077539267 -0.25593120821882376
Ni 8.086356651050524 4.598891816143693 10.195496514475918 0.1458656243182843 -0.039669293565163945 1.378560466171516
Ni 1.0667304764045569 1.9707019029848412 11.224551958261188 -0.7459708723544249 -0.22202247128652086 0.26436905457353177
Ni 4.120917052536478 1.4464642989567027 0.6392774942711205 0.6122701655334488 0.11004578640619758 -0.033383717666768314
Ni 2.5656949878582798 7.554986626038508 11.888460079663302 0.9737089059684844 -0.07197469056608893 0.7965056478791831
Ni 7.630907284955793 1.661080244875528 5.538943969476281 0.8732785311648639 1.7119119614520322 -1.6864577830449858
Ni 8.773688948243354 4.649042525257789 2.1508332927035725 1.2658708143845683 1.43762821886795 1.6829767664749207
Ni 5.336579937825318 0.39399307046422927 3.699342490573414 -1.1651061961699807 0.9880659460211049 -0.5088531972976785
Ni 0.8225807135568004 0.9680047171911054 8.221470810078328 -0.2760241223139569 0.8373823314888869 0.6116114489035273
P 3.7098565182120025 6.224673569718615 4.378397450054495 -0.5945364956991116 -0.621848039029871 -0.8962773060528821
P 0.39563865517488883 1.1763087036248512 5.573562783012541 -1.0463099172646626 -1.7555965468241765 -0.5560211132327327
P 5.8050541302134855 8.341473560046433 5.242461815801714 0.1641590233108334 -0.39785378872896 1.0223454360292652
P 8.013932276929257 8.41973439892052 11.94028620845165 0.7239352327106241 -0.1741752698962549 -0.35788316187329333
P 7.883264459819377 0.43150214609853255 1.8806879531404561 1.6763381781124806 -0.20926311473832346 -0.6746137607676769
P 5.312161884809921 5.246907225377025 8.13775483457984 -0.4116379869972459 0.10712938409035097 1.040295849860099
P 6.922364193333782 6.196479529123518 2.3949979730331252 0.8101726038433145 0.6139465247946072 -1.2508794831820587
P 8.838374878682766 2.3098042344941856 9.374635040696147 -1.1539692057165545 1.8937318923777386 0.1628531600152163
Ni 4.181118415010862 0.7090670681701072 7.974345941954812 -0.7911742083639406 0.11010903554396521 0.7956170746266427
Ni 7.378167849621177 7.714985941730456 0.6754020411262003 0.44145815568247193 -0.041067202353955085 -0.12869579740721707
Ni 5.96147325027431 0.02922800855210591 1.3430246154956051 -2.167821516673144 0.6776641175582264 0.3139088131748723
Ni 1.8670067576479812 2.577367917363922 5.807055869802032 0.46786929868614907 -0.183646956832116 -0.1324717195098815
Ni 7.562762363424854 8.606892854907944 3.9118215072249125 -0.6517124306894713 0.4705321902302929 0.3160091473473267
Ni 5.6687176700209925 4.987165897024249 10.524755172684898 1.6504443410648544 -3.469191295295271 -1.7700798280420158
Ni 6.578441650518994 4.222719542370426 12.750340899012581 0.6729556563389636 0.4613726352182118 -2.553094126302984
Ni 1.5007639326954072 3.3619249021644446 9.108487586254451 -0.8334647416020355 -0.630123648775102 0.3693644230400155
Ni 0.4147647315230307 8.160226156220812 4.91680572944655 -0.23240355741052876 0.8070844518362941 -0.13068505992310395
Ni 7.636296225254723 6.93501608258231 9.989404044718482 -1.491645810734986 0.2820777847072045 0.06657537392738858
Ni 8.898557594304904 4.1097662348937085 6.5854519346206635 0.9855303240834448 0.7128674049322369 -1.6507814126892988
Ni 5.5414808737242724 5.181503391126164 3.527078207817031 -0.8399927725285404 -1.315105383040664 0.8935527080328676
Ni 4.859295107751183 7.438667561731489 2.9448405022220823 0.7760741194977085 -0.6674085012684894 0.3148503511525352
Ni 6.90687798254395 3.786252671861546 1.24259826335737 0.41956212694032896 -0.3221741385074581 2.255445483740716
Ni 6.356161848327295 0.6962324397695747 6.938372515986488 -1.664773870313649 -3.0439514012438735 1.5477537094721474
Ni 4.235418048749566 5.01249764579967 12.286220746623721 -0.4008869191283289 0.8740310930601721 1.1079906821039112
Ni 5.159798455112479 2.167109197686 5.494935533491831 0.0002609669708705183 0.5804702474140326 -0.7112540376985299
Ni 4.883433457982898 6.911110818003663 10.213263235295369 -0.5978593894247575 0.9625847710308647 2.136983705356681
Ni 7.78891138745748 5.875436674013876 4.6458688310056155 -1.1319649335313213 0.3678649556763536 -0.4721733253781417
Ni 3.7616761206020644 9.239916194935946 5.5816005086729366 1.9201049830546286 0.3387209871225457 -1.3734092609878799
Ni 2.269014245207298 8.17411806114366 3.3430244527284723 -0.3452785857354054 -0.7488757047060458 0.4863727568069752
Ni 0.048587170553315746 2.5436730553564217 1.927847707154384 -0.605340528293151 -0.6494506312384879 -1.3594047191786718
Ni 6.406564289946703 4.41516438096943 6.316820719459877 -0.12984148097588608 -1.9156420621872685 -1.391108992260488
Ni 1.959457851080844 9.268026324695938 6.684820077893971 -1.1960231974638111 -1.4834496480774386 0.14086482866958322
P 2.017542795825372 7.229207470458525 8.083485035804728 -0.23612548634680625 0.5953942157137165 -0.1803330619675346
P 5.723259712838888 2.609291328408105 7.518713836708076 -0.451699373794506 -0.2447024293825399 1.3545995844805445
P 3.6441543343252145 8.742436823880006 1.8958758142943626 0.17366053504336545 2.2809688248228004 -1.8989879985703555
P 4.633873310956129 7.43359561792073 12.745387362713581 -0.3460139212395331 -1.184533965877289 -0.20592762260718728
P 8.938331330144415 3.4668787100278715 13.369026674349067 -0.6477719579844844 0.1673739307037053 0.49067318395454207
P 5.584527132132857 2.624591070675484 11.43849009110089 -0.04218383245690155 -0.332191413534144 -0.9429569694976083
P 7.107312997330122 3.8613621927061557 4.3462484120981415 0.5929766074111594 -2.170596251204804 -0.36103533434902985
P 1.1479468413595457 6.1137154754321585 1.6530359928168477 0.6799434005107065 -0.31351183484676975 0.07386239450710505
