# total energy = -381166.2232748422 ev
CRYSTAL
PRIMVEC
9.27058136867504 0.00000000000000 0.00000000000000
0.00000000000000 9.27058136867504 0.00000000000000
0.00000000000000 0.00000000000000 13.56843291777744
PRIMCOORD
 96 1
Ni 9.041560984730896 1.1156588514117305 4.1264183019272975 -1.0734211716591577 -0.9902668103271655 3.696626195846614
Ni 3.677787981923952 5.658790715600898 9.933937882441143 -0.19562366957801794 -1.7239601508658178 0.11621257733854179
Ni 5.140351990384034 0.5775674206249365 4.072334656932526 -0.44529347026816213 0.14486520807822792 1.045984929825076
Ni 3.16925950825398 0.5570145415983144 11.460020206615614 0.26345271340684945 -1.2629904075129799 -1.5671202869242171
Ni 7.178368799845251 0.0549560067071789 0.6986560470092968 1.2444165011655342 -0.14813102331369327 -0.07507184143417393
Ni 8.453898827988644 5.3961180614104105 5.7509671796847055 0.3281753503962154 0.29345465908557844 0.27090968390552694
Ni 3.980945265211984 3.621404305676809 6.6182606652243 -2.295313266469931 0.03159268720461656 -0.7784071385062593
Ni 4.936083999192068 0.15013057682491013 7.314755739702652 0.1890107922471906 -0.9816340743528321 0.792404738336932
Ni 6.252775408877276 8.422499368690868 2.7589370848288057 1.23848213795897 -0.14286694670127653 -1.411191879053292
Ni 5.109100860389112 1.0532863795618823 9.705241909185508 0.6521263782984382 -2.097190741729459 1.0743902204406464
Ni 0.21164830106706561 8.69100321859978 9.099439078704286 -0.20001639932907486 1.8307959149751505 0.6754617105902689
Ni 1.9227834823069931 6.068105426824812 13.016835435283166 0.8276563624503744 0.7997197839411065 0.8632846531769455
Ni 5.0848582899540125 5.578099574848657 1.5890944661428767 0.09391417095165762 -0.4061959900460682 0.24379097331186397
Ni 7.577319001032285 7.674993846961239 11.72343821555294 0.9985167090407835 -0.6480414095957872 0.31837096271128396
Ni 3.8742223318089746 2.479194509054323 3.890625698588273 1.0068900207061433 -0.1523427474021957 -0.36817451649697236
Ni 2.9862211485329038 0.2872814125920063 8.86142153582246 -0.960985801974861 -0.06898089804508764 0.19327059596480908
Ni 1.1770949945373166 3.373666558167372 0.7822896703068919 -0.6299578126211989 0.9887616865365488 -1.4293850050225512
Ni 5.052281466814838 5.125111154515849 7.8106688061649425 1.5485124420150427 1.3031330411701365 1.9292712229349291
Ni 1.4306175848580354 6.499743698128161 9.56537850129248 -0.5541627198677552 -0.9190552231793463 0.4713148340325883
Ni 5.24386730261284 3.7773632970457145 9.787290263058857 1.8811576552571536 0.8288156728657985 1.479187016146343
Ni 4.500950718690237 5.61185376182923 12.135674086984922 1.0278370552714557 0.3291307723309493 0.04824495104931691
Ni 4.9547271384444525 6.9117468779662925 3.771685065920858 -2.1188689980338413 -0.5267868989579637 -1.7079275228829875
Ni 5.904424041126102 7.93886240615598 5.505391331764356 1.7064295981812225 0.39953246198296355 0.5293765140620108
Ni 8.775680709366204 2.623991720383511 8.742236159805337 1.4110139587145312 0.2429574216669751 -1.5807695022765356
P 6.257197476218592 7.327829113632892 7.5052698962875395 -0.6216212677310455 -1.2002866007258555 0.17738683485501708
Ni 1.644684580619754 7.845600356986915 7.6516597935061155 0.7588245883886415 1.2817368348825473 0.12026257903819934
P 2.1383801240043874 7.691838493416525 3.9796214261840177 1.357159631898237 0.6611082700820744 -1.7306558177184388
Ni 0.3375131310033049 8.41412803366108 1.8721318065569907 0.041740317161579735 0.8814775220358883 0.19037810490836246
P 7.165278738868439 1.3738445441909024 3.1893822323023273 -1.7976546523364911 -0.24856242655857838 -0.5806908480652709
P 3.8978901261955174 7.295604572587994 13.33992724981655 -0.13785689508119484 0.9169718582877562 0.924369179193092
P 0.9006981716003201 3.9462176671814357 2.7963865255667137 0.6621130571975049 0.33279485144609783 0.9822596237519728
Ni 8.764750693862196 4.755622861108069 10.144018528188676 0.3372577723134579 1.0275848300513335 0.17032915667728732
Ni 6.38054256212261 6.684469303669195 9.612828118217134 -0.7835933106928892 -1.5378148530918807 -0.0786292197681291
Ni 8.39451148335872 4.473101892079514 1.6027574490519592 0.5845307906366514 0.8616275771894966 1.2487938042976234
Ni 2.635005171120375 5.819134691985407 7.366614445154624 0.9146668643036635 -1.1657476864087213 -0.2888757814656444
Ni 5.373470030980984 1.3556834751727913 1.6397452148347365 0.11750429956677182 -1.4531846785453102 0.14664338302457325
Ni 9.170097596234783 1.7581008738140231 2.1743277305509046 0.1790706503153432 1.777711633555661 -1.3538112842512944
Ni 1.6230192318217316 2.5408994990413305 7.0225321801512 -0.079740707664753 -0.7751894028999102 1.9900600720875274
Ni 3.8977510674740925 2.494917415156781 8.75668714213583 -3.4764356355625097 1.0276668482421787 -2.332593748087944
Ni 2.4774330985829387 1.7671489612880795 1.6655526594149395 -0.056137723533832354 -0.49285759320037054 1.3209577280563831
Ni 7.4416162300842945 0.888410942975203 11.885309983756837 1.0137031869732347 -0.15038845188930228 0.3714223340103087
Ni 3.216622908771351 4.061006006427099 2.149538195811533 -0.32902895664576237 -0.13701280191334467 -0.3743209957143424
Ni 6.158252560633956 3.99261692723026 5.67853890815954 1.1152321941576728 0.02782447841143595 -0.26541317956732996
Ni 1.3941471175189595 2.118902632423452 9.956163174357435 0.06407497610303804 -0.7980035725809482 0.13088612019031653
Ni 6.228384509139322 3.246325851667742 2.1632021057787583 1.9768782832899312 2.450267997573677 2.7875532806909606
Ni 3.6050417294557953 7.966182809625288 5.830965808004249 -1.6708794689907547 0.04304103825087426 -0.24420852046525685
Ni 7.1746883790182014 5.923910803288466 3.8125664759035365 -0.8537566590818523 -1.142851241426522 0.3638797457763604
Ni 6.371290521857129 7.0501288469470715 0.14831354286495618 -0.6062077613894528 0.3443977257923488 0.3975876795517669
Ni 8.187035870992549 3.502119734438403 3.81480532131848 -1.370374330816298 0.7229947231742258 -2.0236525633309923
Ni 1.4277993281038213 4.159172193171754 11.869732625782806 -1.5060226482819483 0.3312128516709586 -1.9255127843337612
Ni 0.5469068266669991 6.367007513237238 3.2735470599157663 -0.6074989693970506 -1.2318777452685752 -0.4377873916991041
Ni 0.6190541995748852 4.480054828150766 7.772106895655634 0.27205305348135084 1.5054891443759815 0.38704384259764957
Ni 4.973648395139688 8.001633513007247 10.892629103224564 -1.4699786101741974 -0.6990667516037187 0.47330615343100424
Ni 1.2216215971376168 6.951693813340994 5.63665256715003 -0.6285257081603627 -2.43461435019682 0.004158759363379934
Ni 4.617917644571558 5.808408629272821 5.721808419918158 0.3611623468451974 0.03125484424922359 -0.23028753950879047
Ni 9.073053149842956 3.0561120619211324 5.639556113253385 -0.23641293568023797 0.33629180885576276 3.18859292334707
P 6.705596958744373 8.83979605052458 10.170693699190572 1.4644620512313424 1.5770722559306065 -0.9309180360552033
Ni 8.407017497705546 3.1117819033982936 11.666586374943666 -0.08186083933154933 -0.4330701887290929 0.31485215092474805
P 0.4373081589049191 6.693035320908977 11.651580084785618 -0.49278868763564815 0.47328249928192034 -0.8861368751847707
Ni 2.8995690239222425 5.448858399156217 4.0886026732229706 -0.7202310443861596 -0.11269042311789625 0.3578415100020805
P 7.894020603787117 6.928860371283002 2.1528895109978765 -0.19266690094253916 0.923423784560687 -1.0218147603367758
P 9.193246238061338 1.0967283241350672 0.27653310048399293 0.987252448980874 -1.6765592929843514 -2.7996613768084044
P 2.0594967466306717 4.107488701708777 9.458202236457625 0.30855037707643634 0.5750922709315708 0.2704350582619536
Ni 3.2458901343406095 2.7673149092655938 11.263549701463022 0.5649001608899175 2.1108736385331905 -1.395473439876771
Ni 1.7704585588579957 2.611967776270958 4.541639300579205 -0.7903979923195484 1.3867828540813083 -0.37398675230337525
Ni 2.737547072299205 6.498149158122486 1.7845201767684964 0.23571513828226504 0.9518779261363219 0.22771437946497558
Ni 8.083279523646608 8.150611756560615 4.326552540860369 0.7317076775671915 -0.2139504929116638 -0.3256736670202843
Ni 1.5413175976938016 1.881928029952314 12.478222997820101 -1.5714417971177064 -0.818267722146623 1.1013148127456323
Ni 1.0783169494183908 0.02659637105975465 5.680438450294206 -0.17088040119506698 0.3268674302180693 0.9700628245754649
Ni 5.431661470606652 0.12266184405274902 12.63173640980821 -0.5553603397202823 -1.052825092675361 1.373239311068919
Ni 3.9174788647535923 7.41862518814202 8.652508056276755 0.6766806705990346 1.0747979974020263 -1.0066305963971696
Ni 5.314518403678193 2.287312014650613 11.839610652605854 1.9173443895903561 0.6438160586605299 -0.0013837677214040686
Ni 7.643279187894899 4.799407817194102 8.042322094896216 -2.1297889873804547 -1.1556051986580809 -0.9283785574628011
Ni 6.604445644779792 2.351102885458997 7.718145622335716 -0.9958605023648591 0.6302843427226822 -0.2974103012992168
Ni 8.94790957114184 6.630848260687696 0.28793128035013266 -0.13971040335016585 -0.20206916809304554 -0.5966892803760562
Ni 7.568113313673947 2.4972906840024356 0.2212201763918231 -0.6888898110707168 -0.31891603658147655 0.3385700633669782
Ni 8.649804754732251 8.022900226803852 6.631096712269975 -0.2318571979887555 -0.873452851959199 -0.2800013617941501
Ni 6.99312404174423 1.6907686409000147 5.4373322852663675 1.059831605900181 -0.973124494219924 -0.5526311137145773
Ni 1.8448549748203962 0.5923762473985612 3.58448143396403 2.371123785842342 -1.9534334220034293 -1.654360388289809
Ni 3.861438200019298 9.021388199542836 1.4788644717855273 -0.12272183921196927 -2.205160105222602 0.5773386437635863
Ni 7.284238839756854 -0.10504495816448113 7.936176718716191 -0.3709554216762192 1.6660738200719953 1.7831515736243095
Ni 8.44517521086458 6.750095749600388 8.71756899674082 0.8251891318568046 0.18044901872010857 -0.7842836518916945
Ni 3.0611459876367193 1.1499507321151472 6.13476368846898 1.2094885789400975 -0.9567969607044942 -0.6650687973917191
Ni 2.7296207251779774 7.619518687694073 11.170741910783944 -1.0002450045858 -0.4591272908274609 0.6458400310690942
Ni 0.45323872603137255 9.25872435468968 11.39770057707991 0.33312420976105855 -0.6158385996109975 0.4256294161803315
Ni 7.044724097974352 4.729489092061588 13.496235742105306 -1.6993613784805313 0.7579149320901786 -2.0443178049898276
Ni 3.2259676548511145 4.099979530751825 13.229167905259644 -1.3213871022843178 -0.30298342451162014 0.6673766195892893
Ni 5.015866622964332 3.287746809489549 0.41944004025994325 0.8676634989709314 0.21632182135731778 -1.1506506828662828
P 8.915165877536957 1.2810645652561106 6.944106769500044 -0.40418641581520715 -0.5375179122222227 0.1906943505972006
Ni 2.0087959367990993 8.695239874312529 0.02591961861548608 -0.3567565044680179 0.02687265602112791 -0.708381087026109
P 5.038681523859468 4.296701268661126 3.784384835419536 -0.05220753524149073 1.8551434905815791 -0.5132474697106323
Ni 7.108060710292746 2.0813938599644026 9.90970458258747 -0.6371018798651479 -0.15894971119575205 2.012291115571586
P 1.8430008585347288 4.380433160121862 5.833273255721762 -0.2948952481868469 1.0257374924299496 0.4531733872368712
P 6.463384477766224 4.931977131619314 11.212071089849612 1.1357835359464632 -0.16459688217920038 0.29902778229798177
P 5.031876917091069 1.9120017961058378 6.1786441315437255 0.44871792256867876 -0.14749904615664922 -1.052392890233949
Ni 3.6755537717997226 1.4311460079994507 13.445951181379865 0.4158245142747677 0.711438385795194 -0.3785463466495997
