# total energy = -381168.82371985674 ev
CRYSTAL
PRIMVEC
9.26666695038563 0.00000000000000 0.00000000000000

0.00000000000000 9.26666695038563 0.00000000000000

0.00000000000000 0.00000000000000 13.56270377093620

PRIMCOORD
 96 1
Ni 3.325760490478977 7.5275453556843495 4.810378787295402 -1.805705804775742 1.7667692756115443 0.30074810742319813
Ni 1.9981250944134898 5.250678914766708 0.5368597253671806 -0.7485368333093882 0.8644462775852145 0.9044906951016101
Ni 3.771811511555352 2.391828713016395 8.508372028696098 1.1199362845015615 -1.6178527802820784 1.3723060006213719
Ni 7.297027744792152 1.5227821386197071 13.504899624787226 1.0699324417796088 0.5191319535158673 -0.8987571350519424
Ni 6.837234256399766 8.207459254477655 13.309000428864119 -0.06170956119465501 2.2740147621024707 -0.011152674182709824
Ni 8.375890195769527 5.201528512444301 10.928012789693309 -0.6557002116926256 -0.062577308511589 0.7243121564340688
Ni 9.427443778789861 3.7649449112308977 4.081207919507987 0.7383017858449414 -0.6949267612934161 -0.34719071515645367
Ni 8.88339775308312 5.896398811944312 3.9834612615560228 -0.10532446967112828 0.45631604663091085 -0.20387896760827467
Ni 6.915574660101431 6.15674582424598 0.12784015937391388 0.30321096714139395 -2.786450791655401 1.0348669655350435
Ni 4.704195755611477 4.59790708392256 0.36682101733267475 0.3608026495129335 0.9118453356944682 0.8692169595009805
Ni 8.698184877664952 4.814330094148772 8.667191582867154 1.013603428170577 0.19154975661896043 -0.11914749159714966
Ni 2.42187124776927 3.93460831924767 7.8168914760229224 -1.2827105116497264 2.373618527239738 -0.5697106949046834
Ni 4.104058593921039 3.3318950241021734 11.053346315615448 -0.22083950672201322 -0.5063785105049408 -0.4137522051267713
Ni 5.18422764496015 1.497725070769068 3.8598911823838744 -0.01142701089001903 -1.095981573458177 0.8810041819438957
Ni 4.198967798405597 9.215969168797466 8.620631214000461 0.10938758399690837 -0.4489200112771559 -0.4923397730236876
Ni 1.77020215031056 0.8073342781473847 8.35012330121868 0.258688973469619 -0.549161409998422 -0.3923058623275373
Ni 5.890440344996102 8.015898712092888 10.135178065564375 -0.3857595765685873 1.9351006851325123 -1.542166702302673
Ni 8.571018404989537 4.854464029378476 6.284387676943856 0.7506186555390815 0.2070221412229467 -0.7898081812543494
Ni 2.8569042016583626 1.961475426015088 3.2952759357052166 -2.58231522795163 -2.2603084682599714 1.7326412235795836
Ni 6.047130419066538 1.7258982148838198 9.605812293884625 -0.33624038679253704 -1.1454048610863112 -0.33453266007281096
Ni 4.818286961002405 6.129529622959986 5.2778311760496806 1.2983153080665188 -1.5236154216630469 1.5023259161566513
Ni 8.889411820033956 -0.024476974489895845 9.756900667690376 -0.2095238245988779 0.8985005389564462 -0.872731400412142
Ni 1.186346522722774 4.368056673061889 11.84087772616046 -0.5688174936664526 0.353409699482972 -0.8229808113515762
Ni 3.7366445098936745 1.1747446555079073 10.790677076537387 0.16560963971443093 -1.1249537923208108 -0.5859153296890038
P 1.286713794131899 5.877337277710301 7.411474790199896 -0.3912393687362359 0.20439061713737058 0.720371940839398
Ni 1.5091972046444715 2.9174989378548606 1.4446317015936843 0.19853647234943872 1.0281841541982293 0.825257780311211
P 5.302451783879698 5.116275175082659 2.4962566379507236 0.22604341952045584 0.2978782420745708 -0.5696335618098448
Ni 0.4655147286627219 2.5812393886329135 8.906831300857046 -0.7222627301042077 0.8477081388949272 -0.4997090689045652
P 8.283204991390054 0.8120408183697735 7.582758938293249 0.3643392019112822 0.38579197246841945 0.4237676803812444
P 3.7650097779006293 3.138610881635963 6.059111292965979 -0.2736617927293674 0.37347947364965356 0.7468324490237719
P 1.9267439577073233 8.004528511555634 0.7366638948081355 0.8522121974128678 -1.7655827115026108 -0.16006582707806624
Ni 6.411597702954663 3.9429019863062216 9.889978347311768 -0.3516919454609169 1.436733217857506 0.9340684087587268
Ni 3.8960682507599453 4.282868202369978 4.100792093766693 -0.43021754977164617 0.5827911822377254 0.4753195843166072
Ni 9.198918501325137 7.342730946951677 1.4915451304770593 0.7893440971337374 -1.3442460091603623 0.5096759503092899
Ni 3.239052286381924 0.9850745132124623 6.294044470733483 0.8182399542324811 -1.2117112976230293 -0.16930174385403748
Ni 5.085889773646917 2.2808789077739013 13.136211374032987 -0.5444781455901397 0.16749400122133734 0.19577253645105638
Ni -0.02849870801326027 8.730738679203153 13.112517432913425 1.2387970980962277 -0.5925469760729085 0.5100369331931345
Ni 6.465103438816198 3.3340448908704237 1.7096871074511615 1.7377559190983296 0.41269111085210863 -0.7050059999062891
Ni 5.656058533921317 6.573365910598379 11.747011021725159 0.04420471954167226 -1.2494080408428545 0.8245358145435219
Ni 3.7590142442840007 7.991833177622433 11.10392100467182 0.6123858651757066 0.2175328109462834 -0.03252471210058269
Ni 7.817962702740205 7.531798755885327 5.554144655772447 -0.9925705187596777 -1.9637772271315983 0.23155715024983345
Ni 1.6803154793966546 2.536509186519365 6.020199631127363 -1.355320521806969 0.8186197061694029 -0.4544841356284947
Ni 3.714969775536187 6.703988850103782 1.499180864171189 -0.495471890894766 -0.5487415488521841 -1.262571060587374
Ni 7.103901135666719 3.504236498912154 7.705080797406418 1.141585230229905 -1.197998318912311 -0.4234514346924062
Ni 1.4135096001231326 1.4875410036211936 10.881221680815713 -0.5066595320804693 0.9160843134764803 -0.7831060866438255
Ni 5.6220313323134965 0.3071881611816269 11.773051282955588 1.3699578121041696 0.7227399268509423 -0.02724443753824985
Ni 5.019864770527167 7.199885273535404 3.3066276029082613 1.1598842856494087 0.14181073752262027 -0.39077785571878504
Ni 8.766081747539817 4.8261821613754625 1.8069046387114573 0.5204535005407682 -0.31139504561408304 -0.4999093578408293
Ni 1.6811958127715847 7.196947740063269 11.63064299622665 -1.01064254577004 -0.029758205099039068 0.6989050292148736
Ni 4.3570849392101305 8.833626484064709 -0.07380529682071041 0.524797893552393 -0.8847662200894891 1.1344961845936075
Ni 8.061481447580054 7.4780984200145975 11.063029982739677 -1.0741325959038854 0.31672519957774486 1.5465555753989881
Ni 0.5297846250328747 0.2059720630657276 6.108953915321096 0.27860422433630727 0.18954635303568645 -0.5313938016023558
Ni 5.6254785324763805 1.6547950781907892 6.974322549543997 -0.4729328292519855 -0.8197281087422333 0.9929255881062512
Ni 7.215277207596022 2.5737982549479788 3.868462849455561 1.3693656870461255 -0.12746552454454177 -0.2205474294028911
Ni 7.138243403956095 6.479744772841349 2.579137708533607 0.08895502717416938 0.7222408757273368 -0.5835144335569951
Ni 0.01558097406955057 6.155874757538154 13.039793556143813 -0.46576870740337845 0.17440666918077058 -0.22885723482016715
P 6.747875785510818 5.882137411270445 6.639756947068758 -1.1336808877811637 -0.09567846194093199 0.6696687580575758
Ni 2.29715117520945 7.993677244376234 7.073085760877328 1.1763028362167482 0.6095941613631823 0.15934540397227395
P 4.625447618557213 8.603414673186961 6.153127190741662 1.4108872033286797 -0.03616308018411837 1.658181304697796
Ni 2.808356132697749 3.378580492974777 13.095564065445693 1.1108201811329061 -0.849823128355401 -0.7683597815725864
P 2.2896081081863655 3.915259518333419 10.011282726376859 -0.21563225148946089 -0.47158120032009754 -0.1589887919638036
P 3.08957167931881 1.6289781436375788 0.738090034875522 1.597612027755171 -0.756106161016214 0.7919625085931908
P 1.8463556205755576 8.786347948497415 10.077671909513818 0.4049428343652574 -0.37034349912383313 0.3781115731050262
Ni 6.5705766437999165 8.82918775052164 7.940285488520085 0.07659753405008099 -0.6415432034659533 -0.3278938146000547
Ni 2.787784131725701 7.071625334141655 9.08767586940214 -0.4293112359072928 -0.6403877497052713 0.33432028695168875
Ni 8.969865023835455 7.739677899041166 7.508393934779425 -0.33331961360131623 -0.04903813637457361 1.411013187383583
Ni 5.0370266380047495 4.275825535370538 7.735380018838088 -0.9640055626377915 0.07938486698723102 -0.2591481724942246
Ni 5.677279201590682 0.8988889491401048 1.5035751177121552 -0.2233918408302217 -0.39417454010515984 1.0658528723935965
Ni 8.72639261233113 2.1720233692970305 1.8357527000745584 -2.0245239101923524 1.9649748469841257 0.5549566765239604
Ni 8.33280019373348 2.8415864009345806 10.823444938085702 0.23881306048129844 -1.1867726253998208 0.47028870676091905
Ni 6.88674605873925 6.395696102203295 9.097373436527027 0.551828929528256 -1.2402543993680446 -1.363660409131232
Ni 9.04587022742678 8.24131038941049 3.7844419788188213 0.4302556020984332 1.4774939447146362 -0.8408602627351582
Ni 3.6075598371276225 8.8006464158397 2.4745022102561376 -0.9325470870181939 1.7008775580147417 -0.1513518442438361
Ni 4.122462194790628 5.278275049403988 9.801060969776996 0.3127574731792484 0.7501412016820307 -0.5062643535245798
Ni 3.501595498787364 5.707182736336988 12.204263589997485 -0.508310694530647 -0.20672877835224396 -0.43078807756313553
Ni 0.7785019701183614 2.1572708352666248 12.991782027208552 -2.081427051137299 -0.28870506021573505 -0.3392318653206932
Ni 1.0268579151867716 0.6050345952551808 1.4654233225761102 1.9329152474454192 -0.9527595574103268 0.6700315407136331
Ni 0.5728357070670832 1.481758603347969 4.071496452382443 -0.8448493292898933 -0.7771305857866809 -0.8297561824021968
Ni 6.812149388547813 0.2428459848080588 5.395351974935994 -0.4212623974608874 1.138396290978962 0.07450002809110394
Ni 4.623112418446872 6.534668308769877 7.498330334303909 0.32955191902876796 1.7274601935992768 1.2387469615845828
Ni 1.7821839508767126 6.604186845388034 3.3791068396663144 0.08814718656089335 -0.38593466869387083 -1.6272912999871587
Ni 5.807151541060619 3.393138426995988 5.563190776199886 -0.23720946343960436 -0.8193277879800211 0.43171855979720486
Ni 8.077503515003778 9.313834440088367 1.6952023801000762 -2.235147652723628 -0.734930041159231 0.9772788827079297
Ni 0.942336644526387 7.052044866549791 5.540758028473249 -0.4732832706128688 0.0649110988510882 0.06419093285561203
Ni 6.586005644528953 4.979971768642181 4.396309814396879 1.9637548585340954 1.0057055134797388 -1.4944845657353618
Ni 0.37712369781948707 6.764713319639743 9.652481082756442 0.9376607540956755 0.11882893191546631 -1.0925432372005892
Ni 2.3680597118932853 0.28181231998259204 12.744804962205295 -0.9639034898422884 -0.28116787129842546 -0.5040766018446415
Ni 8.102718116195195 4.093198060074534 13.082191338147153 -0.4575370635222056 -1.2134172245705426 0.11615138508330321
P 7.974810310151418 0.32287940858972136 11.815501884961424 -1.6079406633746889 1.6494992035427656 -2.0109407721912786
Ni 8.58576167235284 2.3822099125618967 5.9984044300975174 -1.1656924076907536 -0.2274603544726405 0.48717931186867064
P 6.577387644121743 8.774403214599682 3.3476548448468413 0.26715098819404315 0.449813983846335 -0.7920553254173134
Ni 4.351673205621086 3.023796876210882 2.3720082387465236 1.313071897550403 0.4861881515999949 -4.141927379424261
P 1.9822142269950178 4.453717743776131 2.734010589184845 0.08339347392599186 1.3096829264735121 1.5525105074308423
P 2.039352496361527 -0.17773560173152542 4.037765784121968 -0.9080501303180942 0.6139804633563362 -0.10792668318066573
P 5.683441535215192 4.264705534845107 12.050841869414816 1.9027904030355811 0.8794851741962079 0.05648405112965756
Ni 2.1141066998937412 5.009004236680662 5.4086839288992765 -0.4304381504228845 -0.25190743177141134 0.43153395459022453
