# total energy = -340861.43209845707 ev
CRYSTAL
PRIMVEC
9.39394390835400 0.00000000000000 0.00000000000000

0.00000000000000 9.39394390835400 0.00000000000000

0.00000000000000 0.00000000000000 13.74898646427585

PRIMCOORD
 96 1
Ni 3.658621695885186 8.941775659943227 3.751507132879875 -0.555835736694804 0.2003089908688292 -0.08091055960313807
Ni 5.65450595437308 3.1768438968085846 8.462583074186163 -2.400423563247724 1.1848610101994046 -0.6442708868097614
Ni 0.9449461955877708 6.70977462534118 7.278369373751053 -1.172084941480659 2.552507143451262 -1.6672822385577994
Ni 9.184956681756118 -0.1055099579980631 6.48916443217239 1.4642561058681234 0.9266001254061398 2.2929013145943284
Ni 2.43439355265971 2.9722719838013085 13.199962057987763 1.032256781605706 -1.8483336667485974 1.8644493413635375
Ni 3.9031272637665917 3.9609563814812816 1.1467111982030471 -0.3978764144367793 0.5541259530925489 -0.937923777949075
Ni 1.162293872092769 8.91073806979876 2.264746443719957 0.29128567645871767 -1.3549268859129762 -0.29645025137879266
Ni 3.072355060495964 8.011737653084047 11.518103248090755 0.38106114265165336 0.15080342793953386 -0.07923805699672161
Ni 8.711539492615525 2.9854516868802086 5.894231883675338 -0.1329329754170162 -0.0963538907414018 -0.9158192327405518
Ni 5.006746563207322 5.560406819846108 6.9801952658410915 -0.3136146789732212 0.722203337621182 -0.5880578299533034
Ni 5.75691872911732 2.475031753314964 1.634039878640534 -0.3123373549226943 -0.21060214526472115 0.5940137904264221
Ni 3.721711422098937 0.11888035813505422 6.75957943630605 0.15675090377222037 0.0035969733226389666 0.06895158746904899
Ni 6.832553470131789 0.14072503492740943 7.556690320943305 1.4170156848239208 0.568734189924027 -0.9766769874578727
Ni 1.5244210096469535 1.871846625235009 5.949296363744896 -0.2148344381785139 -1.428446809478998 -1.1410051893567188
Ni 9.295269763192701 1.7396080790898365 7.934237617160366 0.26335269749387547 -0.5983748956085952 0.7521680023040724
Ni 5.357948544182205 7.882523956825836 10.385406874565835 0.3316280848315063 -0.38648462766006986 -0.21515274074988108
Ni 0.25138475288830436 5.96859246359833 9.227701004599748 -0.08504283660395677 -0.7481141439496729 1.1647601256844715
Ni 0.40676621885185066 8.858282287908112 11.898826636689124 3.077761150704467 -0.9966935397891158 -0.5966126615018499
Ni 2.518102985401035 8.090759507894958 -0.10279604764917198 -0.5392253818316326 0.8286418662920955 1.3931494197292846
Ni 0.6689981585863459 6.9914050589159675 0.5659578683997175 -0.5328027661347405 -0.6561133879706442 -1.155797517174545
Ni 3.670514428670566 1.1718569068285638 11.1785309694763 0.8296474247384744 1.3166120494931777 1.6134880755554792
Ni 1.4437082449613439 8.972493856000249 8.469595653194288 -1.720898995441991 0.15284745495275612 -0.21599631969709895
Ni 6.530425451298157 1.027068051835629 0.05928893657317908 1.3025699695778146 0.2921513668931227 0.09619885322077626
Ni 9.026866002415556 5.3595830903944135 5.784982196671067 1.258892326184206 0.29197318944404554 0.6719562685401718
P 2.4369487053592542 5.418248269102703 7.049793116283682 1.7095894839664427 -1.442401214776561 -1.6827057722017216
P 3.5019964717693615 3.4622976654889395 10.773375811977287 0.563141783437914 -0.05908549330824663 -0.3595533504868646
P 6.906944110674776 1.3566263864143702 11.053566153975455 -1.1883813646478374 1.2094818940718783 1.2501534036493116
P 5.174156034746224 8.42822754310979 8.259497283079874 -0.22589506686804964 -0.8536319605785299 -0.4848460357498038
P 5.398220381031274 6.361165372840836 4.42216895890405 -0.2098344138607612 -0.6856039412305934 -0.17518854165211764
P 0.3010946850213163 3.6387628988012266 9.582561926664603 1.3662834485763762 0.6182862898205417 0.5256733541788108
P 1.9142039175962071 9.100627248727404 5.625232546864549 -0.6929796648693742 -0.5575488627311688 -0.5899193086420743
P 2.057780953845608 6.985214449985821 10.046590808423117 0.1879137025282699 -0.41555763376662624 -1.4008521876901812
Ni 5.134626319453272 9.050247528405135 12.491490547770955 -0.35103142905878254 -0.23307950043163086 0.10539517500806364
Ni 5.538434385418775 0.80613564639627 9.47281811821917 0.4013201500110056 1.3516302174395756 0.4898843695046595
Ni 6.2536516866412555 6.34521445635618 12.035243609013552 0.07963889197956607 -0.5667888932721981 0.9776318951719744
Ni 1.6964147257350377 3.2379139251164464 7.696833870752693 -0.028293704738370624 2.433130566562442 0.5691545652908973
Ni 8.332606589695589 4.783405550590893 3.504149563676478 -1.4999463601808813 -0.8604222440274858 2.693917045991038
Ni 7.710774483275207 4.8392243643434405 10.760561533310195 1.306175684651202 -0.5898313769139583 0.2055427284639428
Ni 3.997771247030967 6.329535964240225 2.1654928522582786 0.33456248486948187 -0.12342117927183906 0.35840303893250536
Ni 7.701652963895584 7.102281776977448 10.285066403812475 0.2694279571536779 0.7825535565744652 1.1130719532815605
Ni 8.347392657155451 0.19887730430704118 9.884668339427613 0.6374826602433343 -0.3308953204305398 -1.6460097023322686
Ni 7.935130041816456 7.642480512224884 5.726246563384665 -0.8924401916949792 -2.0279079961732367 -0.07082823566647156
Ni 6.802088910555971 8.154506810171092 0.24886999414687774 -0.3095361380284734 -1.5584500128437289 0.6777654190227811
Ni 1.6349125760147534 5.395345834244288 4.627674629919909 -0.2809318440282194 -0.39548297450393827 0.17557446423662665
Ni 8.203345923718635 1.6287407549721038 2.0497124955601715 1.248378828247392 -2.0102206061958023 -1.3753938955180767
Ni 4.3818614250687355 6.786927085346175 13.649196417737043 0.6719608965258621 -1.3949589621341978 -0.5624995218682248
Ni 8.926463531633456 9.347697363252102 0.3843156326877285 0.7105086748920731 0.07255601699085569 0.6164672343339318
Ni 1.1014305105473705 3.2275242233307986 1.5518889011670558 -0.1864288904526273 0.6057992130971245 1.2687378515197183
Ni 6.864398939438612 5.062828407384823 5.563225002970605 -1.7875437891547343 -0.5225697755528226 -1.159666770321964
Ni 5.589960166878338 1.9273930146188554 5.61123651007392 0.06815146016525682 -1.5655457433482456 1.338926653829978
Ni 3.3446667018724128 7.365791293061717 7.923087005931103 -0.5136426482665217 -1.2789042505297588 0.1977214326473111
Ni 2.8207946408595665 3.9519288015391405 3.220521038266422 -0.23163813999941396 -0.8105546697730815 -0.124392799156489
Ni 3.570750746063353 4.951002901004761 8.79404368237394 -0.691243656014874 -1.608022424455218 -0.6697878001339432
Ni 5.860656049930074 3.2792754594403215 10.711078934615893 -1.405595101691805 0.5319116217790387 1.352113070613265
Ni 6.307084438681728 9.517661987490548 3.2912874953113054 0.26849490381644725 0.1517529363369967 0.14526115796506597
Ni 9.302136736072725 4.663360343431046 13.563292559736109 1.386651984930399 -1.0028531316326084 -0.9720616001730484
P 2.3384532051580655 7.008971733725335 3.181322929187786 -1.5122817418177825 0.8247602718495022 0.6297127864899283
P 0.4138915251849552 1.9950294096067964 0.050814659917814996 -0.7415431756003744 -0.4817920794148283 -0.9003123953542043
P 8.38436721974886 7.904336694209446 8.446950612394577 1.295627991042343 1.0063045805163184 -0.9194010365545392
P 3.3073821391353104 0.6334627481751818 13.458016510937378 0.874072744931385 0.09151327481964884 -2.298675240963628
P 7.3269849114373855 6.277005030799592 7.333447944736234 -0.830790537203982 -1.4905980861967618 0.3344971788491852
P 5.333383381280335 4.507496028758836 13.278028548719469 -1.4095260613150948 1.9013377297494545 0.24767308197508955
P 7.266685186516886 2.460057806980134 7.592438034483181 0.8988895468647486 -1.6662242296069305 -2.864591758933202
P 3.581365902498961 2.2359558849200902 6.420611188274613 0.044099561422375665 1.4588696447452294 1.1102414258113007
Ni 7.966984905067027 5.760460245910439 1.2076177718896877 -2.1443820547032812 0.2539018364936208 -0.27582434759832497
Ni 8.281879293454633 4.31430957557453 7.999572495929966 -0.13228685719258507 1.4189584103725885 -0.7991104324918819
Ni 7.842881514207904 2.6339397057616316 9.615037729596938 -0.13579409901489517 -0.3831995291508949 1.132433645637624
Ni 4.057526123214063 5.687469302985953 10.772907993578619 -0.19574708252975964 0.5748289899678551 2.2148181971376566
Ni 3.3760048982168254 2.1042809753998175 8.869347414249265 0.16288889834915818 0.3230603977671533 -0.16022729235659502
Ni 1.4535437040658405 3.883503315276341 11.589804402538595 -1.1863139405958472 0.8579377870427353 -2.4411074141203315
Ni 6.259222295284012 7.184384845337811 2.362309125306937 -0.774199271072499 0.00663113216327245 1.0492306904558832
Ni 0.8843392887067016 1.4681606805382343 3.5055379885624802 0.9077652520878238 0.45255915069163993 -0.1662668136824556
Ni 7.114954207093939 2.426089306386191 3.8472135711821864 -0.4214086932307645 0.7961546922976674 1.2826048393097975
Ni 3.094120828160834 6.9797659626117925 5.389038740411661 0.9629984615295155 1.1970259276967126 0.34532306582009564
Ni 7.069628428508271 3.5476980081049634 13.05782511331498 2.1134563116587017 -0.6140200583450199 0.16424309838420745
Ni 5.8049875392775 4.828975571714017 2.4141984523895603 0.6035458982865736 -0.15142666334582955 0.543980894238747
Ni 5.895864551098796 5.587611680941256 9.260080049911474 0.8554227339303654 0.18264499793016284 -0.1830437760304783
Ni 4.965554119870917 2.3951080799042144 12.80689220912097 -1.111631364180292 0.12245855824825362 0.38592669827407083
Ni 4.821441628827861 3.776205689782971 4.559768628746391 -0.03778750316141879 1.3241001303401065 0.010891707211839305
Ni 0.6627399132612118 6.0601834151444995 11.558469963771683 -0.33603649831184706 1.4663281579058038 1.140061851606843
Ni 3.440165534017886 9.123839683729514 9.461460840227444 0.07918149272717331 -0.6355623032921699 -0.35440060264133155
Ni 9.187446076849424 1.9020575483296225 11.676794200436836 0.3339199661894765 0.34410719113512356 -0.0795545597958759
Ni 9.10726876695747 9.01180751058699 4.301053781551269 -0.08621063165981281 -0.23783064196337106 -2.7328898277098093
Ni 0.18520911615322813 6.220181065065972 2.7035178289223514 2.8430844809890456 3.157197182644608 0.21272227693151755
Ni 3.0103080620382774 1.4783155337301739 1.5138180653382187 -1.4642087975699558 1.834868542382627 2.2243456770121175
Ni 4.591224249387658 9.23105276372915 1.3399267726129727 1.3235979938927076 -1.4171205858329015 -0.05238365580803882
Ni 7.691526292534889 9.187784258824363 12.081357539479704 -2.2008594209647194 -0.870423578214572 0.6527367581889275
Ni 5.628860487940152 8.194806828851407 5.663262049340894 -0.6883635062536017 0.22657100988915171 -0.25677324450414485
P 2.28536802903628 5.334313381711418 13.428318497171423 -0.8253279714275141 0.10769451256520163 0.32478303688521487
P 8.108598607073027 8.248728065966793 2.241056796375431 1.3355302265539193 0.5388492294391365 -0.004418697892985939
P 8.379792369143425 7.1112248114258545 12.742821755179893 0.02847522462155741 -0.6565116518503273 -0.2759012235828474
P 7.400079187743103 0.6097308280837881 5.333837108763379 -0.4694237876574625 -0.4058542904359333 -0.7699865185427319
P 4.265940159214405 2.088555513565121 3.2588943590839556 0.5642504431210604 -0.2640407246998356 -0.10959610046328867
P 0.6234751071819624 3.4886382837592436 3.9226816970731053 0.6831984171128943 0.6330009703228969 1.1079927389864401
P 1.7687293047096444 0.9711271168143529 10.38476057123595 -2.266244117018116 -0.8898899144692998 -0.6548255223971561
P 7.692569020290954 3.6034416703075243 2.0023745342236117 -1.0825277619461164 0.7779427972753312 -2.6034615230119416
