# total energy = -340877.930083891 ev
CRYSTAL
PRIMVEC
9.16604747840859 0.00000000000000 0.00000000000000
0.00000000000000 9.16604747840859 0.00000000000000
0.00000000000000 0.00000000000000 13.41543700292504
PRIMCOORD
 96 1
Ni 0.7145135471490924 3.3763684947140824 3.634161739944606 -0.1266923938239431 -0.28886755393552827 -0.778230503719079
Ni 3.4764159002668746 4.867345235844067 5.97742230116562 0.35165132203096855 -0.020344367984306895 0.930955831271674
Ni 2.17829279292807 9.006063045009022 0.7601952933510168 -2.2099716676786323 -0.7326569288543383 -0.5764328441198653
Ni 5.074910375444889 2.0721499659650533 8.708925458633761 -0.4763066308202249 -0.1204196734413539 0.9523188703284825
Ni 7.083979604349539 7.9440298162614456 9.232731143649016 0.8965182184190946 1.5153369837043387 -1.7868850725248129
Ni 1.3858146812209442 9.033561186709285 6.184194577680751 -0.9494232939482422 0.049881201101159255 1.4297295328461634
Ni 1.2772886819772378 4.372690330845262 9.951745219989718 0.897270523204087 2.6022549042983507 0.005638172122383838
Ni 3.1511495481416913 3.4543348924815627 3.7305913066543663 0.30465232757361077 -0.06683531245699458 0.27969205808384734
Ni 5.2957571174869384 3.8557161008330754 7.381415087259884 -0.187176053031297 0.7455109019988708 -1.5648417753026858
Ni 7.897640451213101 6.4802304051785535 0.46150589517913837 -0.572151186025376 0.14260160885503184 -0.2412126710617265
Ni 4.9591615309812465 8.364485568905707 3.6403185738712946 0.418438297748531 -0.47386973924395803 -1.2024956925620323
Ni 6.674055639976477 8.855199073594141 0.790623820351805 0.2389544711551691 -0.4205034078076758 0.2999009289315545
Ni 3.8754689326210974 0.927933957722624 2.272279608050124 -0.8635559045604613 0.7867038312974128 -0.04274741826985541
Ni 0.45203461857284427 7.614492086125488 12.439584594037655 1.4745299769903057 0.9715183260750687 0.2537221163826469
Ni 5.569666106963263 6.389248220339615 1.4726528961056529 -0.4298591379909629 0.27006327674483166 0.08331531238988878
Ni 5.510260954843461 8.971827858592192 6.751505989284716 -0.34996364991590057 -0.6347225809996939 -0.9246538003130462
Ni 7.095373001060681 9.293180308548704 4.645524142981105 -0.2412880043843522 -0.8991525707181481 -0.8402483401827724
Ni 7.130103154028113 3.5166640136688265 12.20861120301212 0.2900111806216683 0.41662798401266954 -2.1197033210096783
Ni 3.7477950607067747 5.600757339179028 11.162099758649621 0.12743055754154828 -0.4969795857885442 1.423780000130948
Ni 0.4809195832195244 3.4442522405247993 7.414497184934749 0.9401963760333356 0.15457626471840474 0.4398812981136554
Ni 7.133054621237275 5.428041511159673 6.568143797403743 0.48473187876944257 -0.38522067334598176 0.5336352893383648
Ni 5.155599089240696 1.6441230583059858 4.100428480056783 0.45013254352801835 0.18551717727163533 -0.3371937518447418
Ni 1.9163913253275278 6.9732904179587445 5.199219391419823 0.13962992782121758 0.15330819663925854 -0.5285653310146252
Ni 2.056860999179707 2.2260753971558946 5.604620828087914 -0.5635225638161004 0.665204808748951 0.9230550883673588
P 0.08027074204196241 7.921637162870198 1.3216367683066992 0.5480872030976368 1.2098888997023096 0.08678527321636022
P 1.4492895583123857 5.6506664663650055 3.5252819312776893 0.6011671136417517 -0.622879822728495 -1.3637668528021094
P 9.166230554365821 7.745374074571508 9.965053403967923 0.07525978907526393 0.4456585669170647 0.6687321051759193
P 3.8777696104766863 8.180303015797342 9.625267116420277 -2.17187691768944 -0.14410261888059053 -0.43664710744707386
P 1.8364542274048619 5.196296338957087 7.919119249695176 0.933800756919637 -0.3383764592989334 0.03306721486761402
P 6.4850425799761 0.8529941887516191 12.318322372163108 0.3987778432051261 -0.006603621359446691 -0.9109235952111473
P 3.2041842974342662 3.0932384617209365 10.075006556765873 0.9882554363240916 1.3147461999290324 0.41225248065279324
P 8.412818135967536 7.896348038553188 5.6632862801959805 0.3637159665049865 -0.872277600704175 -0.3865933853237923
Ni 7.5094400187832475 3.0090666499764303 2.9458016753666336 -0.12961290990484775 -1.2743888791579085 0.25119652174731577
Ni 2.905820293939174 7.088085993510111 7.544224251429358 0.32937322735905855 1.224261623484214 -0.2107821224860112
Ni 0.952902270386463 2.2541418337846304 9.91968238676721 0.7992875814996945 -2.2925493305715485 -1.9556304296547482
Ni 6.995371425744056 2.113360514326515 10.210287331279211 0.25421859640309125 0.2727241114064464 0.1275567987067674
Ni 7.487615660320472 7.46028250747041 2.69281327209587 0.3106807931558779 0.21602563027313762 0.6784133370194251
Ni 8.231073751423262 5.996831406182389 8.90247021238634 0.10567182570821801 -1.9186376544804828 0.8381197238755437
Ni 5.154022529116547 3.507131324546069 2.2912093287965853 -0.023084392623289273 0.8722557463273043 0.9405825557281607
Ni 4.815657895494805 2.7834718954674686 11.92539775898915 0.332543397556924 -0.3481232542730521 -1.5134557075212258
Ni 3.3598421115522243 0.8785949586745645 7.43276878348985 -0.23477977095218922 -0.7223177517118593 -0.04639632787635235
Ni 7.4290721166406115 3.339795966252732 8.023772593982763 -0.12648104914408542 -0.2830866855876931 0.34401668830384624
Ni 8.72879011619803 5.0376412273938 2.3877461382589766 1.2086375437937118 0.6603716490263659 -0.8896464309999259
Ni 8.18153126612662 0.3962986351605803 6.914785371677264 0.3006771449759467 0.02471035826248648 0.878073895670978
Ni 0.3269474051877925 3.0815334194038573 11.989778241547254 -1.0566051285430833 -0.1990157259787024 1.2328894743625411
Ni 3.529743963070919 1.0803194929782505 10.451295710815893 -2.0615130858221917 0.3713002066101477 0.49281722688073837
Ni 1.3847880839308009 4.95528429300151 0.7883643897087667 -1.0851040073137248 -0.7426214962662178 -0.9338097557807014
Ni 3.8633605842257484 5.9967489117572885 3.962813113313091 1.1792781167949884 -0.23872461453255017 0.4202920631278181
Ni 4.498677650068635 4.769735998855365 13.24938011878288 1.310624464451175 0.2846483736478582 0.632197500584995
Ni 6.182627183603835 2.1837190928902555 0.5594561091249235 -0.30275331077868506 -2.4175982752547975 0.5100261345598571
Ni 6.324435100352094 6.83339820508227 4.825116339634973 -1.0309617169433665 -0.24211152872691205 0.14647677553972194
Ni 1.9708193137995826 6.664999585309857 10.022095549110949 -0.3625710542672659 1.2149866259401914 -0.6140162016902779
Ni 0.5800577168867609 8.733354807720275 3.958063267636732 1.1216581522886746 -2.3565726275010443 0.7834200183398186
Ni 5.394108804301548 6.776385391290391 10.090192863822203 -0.13313223591201587 0.7719690961903996 1.4717431582737879
Ni 3.0870422137911437 3.1929925537622585 7.845119000565598 -1.4854677069487319 -0.07293782581030664 -0.377145352537015
Ni 2.7019215732317208 7.546113373764166 2.586482541164568 -1.2477954449400963 -0.48533840200518996 0.7670318067897823
P 4.222724632059258 8.235895092268041 1.2565028366660085 0.6808371159695694 -0.7538034810249663 -0.9086466262515126
P 6.722681520549777 5.148715387768396 2.9781734043809074 -1.274046151106509 1.0700414565536474 0.8913341031149938
P 1.7356185417899956 1.4139177820386135 3.541742318899467 0.16038001588437542 -0.17823452756729302 -0.08401002446406822
P 1.7787906242594094 5.480260482248473 11.935204512924189 -1.4271746276347936 -0.04530258059154134 0.8690788912612193
P 6.674092304165411 0.7449622394537941 8.321555470083256 -0.21514605588166172 0.5694278735569418 1.1443841331312807
P 4.195098165697726 2.667209752358755 5.702083408320882 -0.4426244080764313 0.3174204258725566 1.300487118906857
P 1.5797224104439687 1.0607591481821297 12.053675673416155 -0.37103204055042555 -0.11680341684500528 0.11853299794160231
P 6.472017626857409 0.8020520480424345 2.6022188110549056 0.28830422523289057 0.5562771951075968 0.13776125004359502
Ni 3.9992747326029168 0.9293363629493374 13.158946980173225 0.13652429231270036 -0.4620053837062043 -0.5698395071730638
Ni 1.2157570068992816 4.699661567755861 5.482902137061145 -0.2995934249934647 -0.8113378277960092 0.4638946303091172
Ni 5.104718361047975 8.009356234894037 12.619190539762371 0.24672100247446543 -1.4402723413590162 -0.5635732145483777
Ni 5.539134003628737 0.25453288222959536 10.423968974198894 1.5743751687144176 -1.129812920185325 0.150053951368019
Ni 2.8155713928789092 8.347940853649382 11.805087889422158 -0.31683087191767373 0.9988008159401056 -1.8124505796987431
Ni 7.424947395385572 8.013719273377147 11.58837503468238 -0.7927181558122929 -0.6475590706427299 0.6858433109349092
Ni 3.3123253226941687 0.3088783762765494 4.957580387833483 0.11177793860595588 -0.0015961408425262833 -0.5983525270110922
Ni 1.779936380163587 2.1148087497893955 1.380126232307883 -0.39542229646933186 0.972220494348416 0.13002737173444703
Ni 8.699605421806817 5.579162131897087 11.924471988218576 -0.4561424971675241 -1.5382421704372864 -1.571208598060978
Ni 8.815170945325791 0.6687456401031739 10.824151263572276 0.22937376944526952 -1.4027524900366872 0.8855830595638298
Ni 3.872627457978737 5.1834547067830625 8.867898632036047 -0.9684126905665517 0.07742440082675053 -0.25394220281325297
Ni 8.922303705390018 1.6074680354195345 5.017185359782973 -0.020031978950210663 0.8195285911369177 -0.5578288558654328
Ni 5.718128574002986 3.95641429573944 4.701292207558687 0.6513223943399041 1.3824880833606965 0.06113311986589471
Ni 6.544869370268639 1.9649255454284926 5.991844159882684 -0.3734113394158795 1.1227277312037696 1.2686062110378604
Ni 0.3682102000184845 6.359733548247999 7.01045140665248 -0.7872244796875733 1.1385991510183875 -0.6809289043524274
Ni 6.953390929414987 4.215125978902752 0.8463634701829623 0.8127794453385422 2.6888679136029046 1.0846098412861256
Ni 1.8052896668112297 9.066980594922336 9.118364539108173 -0.8120549084676918 -0.44589382285632234 0.24532849300231296
Ni 2.8442152904833504 6.752901978278366 -0.09805562348896947 0.7865673057195486 -0.9738210060663164 1.6020217267870926
Ni 8.850533555552332 0.7796951422353969 0.10580826623899708 0.4774219753715907 0.5115497702932351 -1.0080971536403671
Ni 8.687451243175301 0.7138966721702833 2.520559412857079 -0.9316245752039245 1.6251284880078851 -1.835763543393071
Ni 8.55268285070231 6.05984798091216 4.61650627064954 0.5231493022053765 -0.5570716659844342 -0.28956458000255286
Ni 3.366111687859884 5.205499050379441 1.936934270387071 -0.34047036571348455 -0.45423885238690803 -0.5736892199364572
Ni 2.5556314593863187 3.4090637851956958 12.51194687052662 0.5020384883686901 -0.36905100556465475 -0.05752380524808158
Ni 5.772345743388672 4.416714855707383 10.195436501551624 0.8775802438640111 -0.6227854632424759 0.04856891004763894
P 5.878690223390824 5.75401364892183 8.351726431156784 1.7480053647404799 -0.06213919253290589 -1.2083135847953899
P 8.893329830085174 3.027242921640304 0.9579830103679485 -0.22358004558162783 0.32551143041080716 0.3339783302312377
P 6.2543606692525895 5.9791317689746535 12.037215285794378 -0.012546983427075165 -0.6960858145985237 0.7891247820340797
P 8.329278781482136 3.879584487828904 9.944768941440362 -0.5605315995085767 -0.29150087779331735 1.0634131526038524
P 8.093876356433414 3.540394909956154 5.760776358570648 0.053111535112998855 0.4779598501529317 -0.05473492964903476
P 4.0064242494449855 7.498147448591673 5.534095427464526 1.1340035612279051 -0.183968858947909 0.7803964010221464
P 3.9203550659231605 2.7381091277092673 0.8212934143948322 -0.7329415499742926 1.2776546943933738 -0.5690365516557941
P 0.8877527564654756 1.35477844528858 7.701560368795755 1.0050743076536433 -0.1721654385550777 0.45405090474581805
