# total energy = -340890.2880633961 ev
CRYSTAL
PRIMVEC
9.07681774060947 0.00000000000000 0.00000000000000

0.00000000000000 9.07681774060947 0.00000000000000

0.00000000000000 0.00000000000000 13.28484026218062

PRIMCOORD
 96 1
Ni 6.637441244272786 1.9253019987708602 11.164938952336016 -0.0705487567528398 0.8654886028067998 1.1535028076030973
Ni 4.661908135233775 0.4738498324688537 5.87199228293846 0.5421998910789243 0.6070474836819287 -0.4926007399945581
Ni 2.7765350584126067 1.7793739973648146 4.384927221599032 0.43855640865464474 -1.2337397381779787 0.8610210539537494
Ni 3.2554642781792658 4.633506772019275 4.5311266198603395 0.7233665046913478 0.47965060759179323 -0.44018623094858383
Ni 3.6487537210431427 3.0801636940432355 2.45782801288363 -0.5192821059404864 -0.5804728185171938 -0.3694760089172153
Ni 5.372504978306182 4.57772972601317 2.791397440044892 -0.03878740518084288 0.21670748683151064 -0.5015075555658847
Ni 5.2743210390632145 4.3827778311199035 11.666481248541244 0.5691093138752585 0.34672585970489317 -0.4306417817932584
Ni 5.918375730098068 7.997729482297019 12.503040724363059 -0.8005710761978083 0.3076906001793024 -1.288562599555129
Ni 2.226997272188422 6.565453001494198 0.04747901908034725 -1.4729865437625858 -0.46365191817069185 -0.48022447781739236
Ni 2.6637102118941547 1.5403450747407679 13.598894026456318 0.4079361126656264 1.529538214905385 -1.2069339308390439
Ni 8.070062644155872 9.179204407657254 6.889478154631795 0.6194438004637525 -1.350956074190686 0.10820179121892334
Ni 8.75983726696172 2.5876827851492994 1.458197149684779 0.9306928074182744 0.2838811564645304 -0.45829811005794624
Ni 6.974753951136719 0.921306093843069 4.902092536776712 -0.698675429702571 -0.4344768392686324 -1.3914697180340165
Ni 1.0554251551589695 7.477645970163935 2.2452707219881765 -0.9098804986586136 1.322533042963303 -0.5091838411642199
Ni 7.822047671809116 3.90982115753258 3.847634970406066 0.35333539460161084 0.3210901614146599 0.2186954637958169
Ni 7.568777221897261 4.110709291333575 12.59424095991244 0.9766345642557115 -2.3228220134131607 0.5844166336562903
Ni 7.975464047984086 6.958125220740757 9.043668455066895 1.4355759643246113 0.8270225855211176 0.1523229499078538
Ni 7.148629474862179 0.9951187770199033 0.515322721143629 -1.0484490750948523 -0.6730772695184924 -0.8519962247473198
Ni 1.9947215020832592 6.636061567951723 9.207018500753513 1.6367205637208586 0.07482218731721307 -1.6340756698988437
Ni 0.23227123169621205 5.138304922805853 1.1537634003062667 -0.1292454992631 -0.19578384930496603 0.34046342373494914
Ni 6.406381767766454 2.2457136707017806 6.909883748956665 -0.17596810013061953 -0.5786270235577067 0.5399861712570572
Ni 3.7913777607329595 4.511995410768871 0.3371493241417027 -0.8746954661170484 -0.7541132989559012 0.6098967802052657
Ni 6.2907612613342705 5.714347017303076 4.700389304728141 -1.6351478199171 1.1613804105789611 -0.2932307160002305
Ni 5.40857625264764 2.9676656129692462 9.021456573979583 -0.5724808014506527 -0.5756597133992667 0.008673616514597965
P 0.23072454192575798 5.436632696781874 12.250642556651561 0.5084060824579308 1.3169714897151255 -0.8884603811116247
P 4.133900561072484 6.157776802256087 12.322738813563179 0.6656179850269698 0.7442914277694731 0.7152937549855424
P 2.420869025751383 8.579344742985901 0.8610832224286988 0.42803365474644994 0.03398844113030275 1.6528542360579277
P 6.6015787367430665 8.06468916795805 5.865191023284696 -1.4215652518678161 -0.8348510804266008 -0.7880572600015137
P 4.877319177677531 1.321639147398685 12.572361290360329 0.023646435774346372 0.28018159612575616 0.0949914631762364
P 4.117253677040718 6.382927270308394 8.131930234974034 -1.6992310235502543 -0.17634091008900596 -0.3846002661531634
P 4.735630050231592 1.3426701344769836 3.4165151658913766 0.29698864038076594 -0.09181383677920317 1.538271738123641
P 0.2380685952900443 5.830067368732178 3.3655678946907797 0.01477355876474875 -1.758792428053655 -0.3889978810002268
Ni 0.7270649137915078 0.03491398005898824 4.615353136215822 -0.534797427967266 0.1086375932047613 -0.6841890631609379
Ni 1.8268003709013318 6.588145046248513 4.481932989878356 0.9152029393127915 1.0352783420408493 0.6563213902163921
Ni 5.99922294714874 5.667265562846825 8.74506474582666 -0.17319927913623076 0.18018573775639288 1.1755325337096272
Ni 8.684744752460743 2.822082530643466 10.260028314668832 -0.16773285670502078 -0.9976111665073787 -0.2074854540126104
Ni 2.4620868558431197 5.589794922055596 6.624538547625483 -0.4554482993139769 -0.18097866597133347 1.4545532767580627
Ni 0.5977057357832726 -0.12147505397879622 8.890334677934831 0.20849024112804093 0.17384514025034575 0.236117001706374
Ni 1.7440288684554945 1.1720441115603422 11.131766813632368 -1.102639959314959 -0.3171028946321377 0.8859108752168936
Ni 4.306577944834916 7.174489329064195 1.0978356791229928 0.5793639017237312 0.242103301196796 0.8625002096024372
Ni 5.744836048634973 8.057019256831092 8.015540922065576 -0.5168786387053163 -0.03962918435584788 0.2459357875690087
Ni 4.9197896086397055 3.0979542571306182 4.885579989649892 1.449732972551284 -0.9895391881325215 -0.3066395332069687
Ni 0.8870683367177594 7.72182144853826 6.62247992532537 0.006026922920370266 -1.2123679573704218 0.5514234665597213
Ni 4.984434705735798 4.800474837321521 6.755939101979816 -1.2799118658586668 -0.42372731406161224 -0.03161839823622942
Ni 1.0758389186199508 7.358748732469229 11.317116342867399 -0.6751832601179018 -0.05992110183566454 0.07835102640607798
Ni 4.794393369327364 0.5521900324150686 10.532606971621238 -0.39621522468427245 -0.7821200685814724 -0.9361427747892522
Ni 8.302302106989428 6.918795368772579 4.820337637935868 0.5381488609380022 1.7313006503912893 -0.3248501426777244
Ni 7.473824629827309 6.1311998794398335 6.82759785626857 -0.19030302869605292 0.7302316072422973 -0.043918298649505014
Ni 2.5752838518955423 5.6451816648919255 2.2363037335830613 0.3873171508636942 -0.8460420640464139 0.9201669681862863
Ni 2.5635566031665125 4.903614719138831 11.31602712471919 -0.2723507872274277 1.8483331525279652 0.21952001657964132
Ni 1.3203774697103452 3.495010579423711 3.5048997725276414 -1.3281133652645578 0.9176035783344842 -0.0663851122934534
Ni 1.4842594169260042 1.1615694637017508 2.375050156665261 -0.17484941314514404 -0.29948543866069066 0.7289758804583252
Ni 1.2711448094113844 3.46896918886366 8.15078097039234 -0.8484635290037129 0.2595595490000304 -2.1032096942300296
Ni 3.8020974826748977 2.5125539633767153 6.958280434326877 -0.11249939015301269 0.8726936051956713 -0.30081135656096586
Ni 4.428488686072995 7.191190674003371 6.078611519562605 0.09558384534459669 -0.968575441396661 -1.1590736168226554
Ni 0.4267765471487136 0.1424779029215995 0.37653454469908104 -0.076105682015327 0.25322692191378326 -0.43262127411713236
P 0.4493614854517877 5.685627965462016 7.909315829843469 -0.044985306461438654 0.7738547432488866 -1.6255732888547876
P 8.705222053647036 1.7223715809419768 8.076705059496355 0.49801316925938094 1.3508997670314542 0.8447937934616095
P 1.8232513351017572 3.136721346388889 10.143453834675178 0.27797996048874707 0.7324548401458612 1.6256357666616066
P 4.319848252607239 6.410738640359282 3.5581589092478074 -0.20270654456672832 0.18742005072130302 -0.17112542732633754
P 6.748550572207811 4.172967185321512 10.042303591341927 1.661768507828422 -0.8787992038727768 1.7891049629942672
P 6.527539133118689 7.927393220376546 10.329455079435553 -0.23146896141140136 0.2176084013792252 -0.5478311212227727
P 2.6792043400524004 8.601619254116738 5.45770452954073 -0.7231878130216384 0.13236090496363012 -0.692173109807679
P 7.183847528320874 4.098101591268077 1.6483428694990816 -0.5892675339906883 -0.11001878982300409 -0.973205998190137
Ni 5.486673193874088 2.8648434197784964 0.716809924926138 -0.010378772131162771 0.5826441151368998 -0.6705311060578709
Ni 1.5602777668529577 1.345738098927767 6.613167110158201 0.8476446326468433 -0.38324760878001096 0.9062341601552779
Ni 7.070105923194349 0.6755730335168076 9.068856624744184 -0.3747843085040061 0.4574663581852702 0.6674871770252246
Ni 2.7638002828964847 1.7176879429046863 8.905200690294278 0.004229721810631425 -1.3398049426698733 0.6886825801559172
Ni 6.674184203138971 2.084482154313425 2.669827987159918 -0.32456269334429266 -0.1923650534314042 0.6144615167578128
Ni 4.4453443369164996 6.980780958223465 10.387549437051968 -0.010533809651788309 0.3686180317922942 -0.9396137640569882
Ni 8.26070305054582 7.235875848533566 -0.1287873384804265 0.6085302388750423 -1.063614469981381 0.8334027780158485
Ni 7.816656041975492 4.174827932991366 8.094001843689883 0.4606527263330519 -1.5692558452099812 0.037957710190695916
Ni 3.4809052044044293 8.48854933351494 12.243202289017516 -0.41694268703961096 0.0034159676600844396 -0.1870187015178263
Ni 0.5450937761794994 4.997523477150086 9.95838296374973 -1.0104132033680533 0.08655078860805093 1.1380473922799754
Ni 8.722867387647991 2.211276223582633 5.888704520059117 -1.0728020500179203 1.9036393812994372 -0.34587713855135266
Ni 3.662405255167338 2.86207499031847 11.3015069391218 0.2929872325308567 -2.00146959947605 0.21543196255319672
Ni 1.170473822063344 3.4011472055019647 12.579708066769987 -0.8286904601418437 -0.5734495931218253 -0.4797177133843028
Ni 2.940925307430762 8.758884201082038 7.560163321708524 0.9702242898539936 -0.9582159525392078 1.7093022917433274
Ni 5.6940330988390135 8.318694840119944 3.263833104284657 0.06787558079605086 -0.6909166116927585 0.7495809583031865
Ni 3.250290491975282 8.458468758988621 3.2013546436217077 -0.39349576887058035 -0.1493255578424267 0.3042561205764566
Ni 3.5135999024864453 4.364079586242348 9.09303454458901 -0.022065978661103932 0.5615854946943876 -0.7320064397545328
Ni 7.247058488188492 5.946241561056366 11.240343709372812 -0.008198219540076204 0.8975754560390153 -0.5400327082242764
Ni 7.897839101288526 8.908098010568509 2.537882823731481 1.4023693956656558 0.21038000195158607 0.6186171907973991
Ni 4.603725732483713 0.621275508828684 1.438615730425386 0.23018726648550034 -0.4903006311064717 -1.0959808021272286
Ni 6.130755115362648 5.667492483294367 0.3532053073280654 -0.5150667823075581 0.23801910382509328 -0.043766603562989136
Ni 8.13196654224564 8.842291080780996 11.495758103673053 0.36537561359559656 0.8704788569325397 -0.7412775806438137
Ni 0.19635335557729292 4.598025490841429 5.770496212843152 -0.09299654423339468 0.9149134330968308 0.3686805095991134
Ni 7.329485071554064 6.140884844140975 2.431045953982798 0.439464779401527 0.8993759995828641 0.598840265280788
P 8.75979188287221 1.8450266212479973 3.743920526015577 -0.14285871917116041 -1.0135982859642543 -1.559797785120875
P 1.8493199561155138 3.6218046486929185 1.3419013280007075 0.9076045581402433 -0.7792003238315162 -0.06768223383832216
P 4.728468440907131 0.9925954216432235 8.381551804089396 1.1163053726171936 -0.10093199703038747 -1.7313428164831344
P 8.621325025781385 1.7510361718756269 12.392338037870031 0.11113799102911183 0.46150350436912135 -0.6073027942258444
P 6.60506423481733 7.830834031537987 1.1714477646241988 -0.3248475715745631 0.23908508319576244 1.4690872087081797
P 1.9638240139457843 3.365293774790148 5.736673266295951 0.5395776229647288 -0.22156404359286358 0.8035165319793774
P 6.781662803913307 4.082897921282687 5.93116315115802 1.7044431638788131 -0.5068202260280498 -0.10188716185480517
P 2.509522306197539 8.524175843779213 10.013315865690975 0.45518398990899667 1.0033174728635366 0.6721709556541392
