# total energy = -340857.029887987 ev
CRYSTAL
PRIMVEC
9.38963359205868 0.00000000000000 0.00000000000000
0.00000000000000 9.38963359205868 0.00000000000000
0.00000000000000 0.00000000000000 13.74267788068317
PRIMCOORD
 96 1
Ni 0.19134758728020737 6.455288593272209 13.132132164079067 1.317192861697312 0.45213389022876327 0.9812705203658261
Ni 3.59230480194107 6.874535733510561 3.247820741315705 -0.6736938200565687 1.0130470414464747 -0.6781179172661934
Ni -0.010445028416598915 7.602269896042097 4.627956974969637 -1.3837065291488297 -2.7419318833074198 -0.2263617220918231
Ni 0.855746793253274 9.101400017345002 6.051918384488037 0.6274088209471002 -1.2257983718437147 3.71167820508373
Ni 2.7171627815237125 1.260558310795042 6.2905042794462975 -1.5333776432561335 0.8549825610691534 3.223448083353042
Ni 7.023305088268375 3.7800974739403315 4.627255569339719 0.2003951228247323 -0.9521352935627668 -1.1783229519705705
Ni 3.7715059591963653 6.415307533403566 9.204075660760598 0.9638680086186627 -2.2349257665208087 -0.418250350107441
Ni 7.487181157007351 8.8984524767154 10.851547908492519 1.2185907983516822 -0.34228685009693305 0.596486677446947
Ni 0.5274617285145653 6.090435600478445 8.823184234814736 0.5892317956567465 0.04514959995344482 -0.12108558916012695
Ni 8.393224461602186 1.0508502339734667 12.898314325062866 -0.07798824375002052 0.30942609481317035 -1.5923212116698768
Ni 0.23088733436965184 8.858142779670759 0.48270322307026137 1.473440857691185 -0.8232587476033112 -0.5459182204707759
Ni 3.384418314037888 1.0664088568486054 4.249607322839285 2.2237154996272865 0.25815264135017474 -2.1381928951734337
Ni 7.506223333948076 0.7653603022933096 8.949891706466078 -1.022886910355032 0.7767431205402753 0.46847993568695445
Ni 1.6742373983086147 9.047390844878015 3.9106302823202985 0.6742550918766774 -1.4096903548071011 -1.5038899182096614
Ni 7.274928489480185 0.6720836821112764 4.524212791250365 1.0030909586750274 0.2925719993703091 -0.2464353529132465
Ni 8.837513754651638 3.790970669649089 6.299093916263544 0.007122212867078056 1.109859874102166 -2.2973148702809922
Ni 1.0636389149366163 2.076292119425433 0.4827116737405014 1.4147659695577959 0.3469834842416541 -2.476121982522303
Ni 0.5709620230564743 6.913972194630405 2.140353833624541 -0.5878647401058908 0.4741137369339641 -0.4115076320669687
Ni 2.33391549650762 5.699301023238383 0.3386127227353081 0.8674369847824221 1.5048106302517181 -0.6154845587056884
Ni 5.481161055444041 9.25643225771399 3.1365188415118235 0.38640518057238615 1.3924045711434603 -1.372627902737165
Ni 6.009694141152362 5.917140522757526 13.199195744140084 1.2712773301121203 -0.5055804400836778 -0.07939566562050843
Ni 2.9596876277771584 3.6958161227470634 1.1427231039323054 1.2903911681234357 -1.349451978841334 0.12664559974640768
Ni 8.123920380321646 6.35339228944541 11.48924956925081 -2.172374426151149 -0.4401828885144742 -0.6586819200287688
Ni 1.3505579488506878 0.903326883594367 11.09989244965122 0.6360361576047949 -1.0396821275354997 1.1298342603415639
P 4.357165575726862 4.52284566059821 12.9666567732202 -0.33714104422993546 -1.4563273379393498 1.0230756293270704
P 9.071700606268317 3.0903068207862447 2.9725964960503877 -1.302062690924093 0.22015996415648534 0.5594939022726817
P 5.630118202873855 5.861854360120944 3.5556157476125745 0.8620831766696767 2.456461013758266 3.2512751328676393
P 1.783222875503386 5.426053295845858 2.9728847578019066 1.8147527454693584 -0.031542807803287616 1.7872529973871931
P 3.819468207624977 2.98985652053384 5.636889067662788 -2.2130605910166015 1.9445088658202898 0.6208337388327436
P 2.0081139898561013 7.514354756645644 12.421291830320582 0.025061313844002 0.10578186892352104 -0.2684725352189441
P 2.5541869111291535 4.536714149425356 8.994101857308143 -1.0928391711744534 0.14900314150600144 0.32065898741451226
P 3.6323891477793127 8.803795580394171 5.797184197664558 1.3920119636907315 0.7393327982126171 -3.3167341338023975
Ni 5.738859549595028 8.405750232824538 5.1060095125178355 -0.5107144188761333 -2.054072056163114 2.3205753834708296
Ni 3.694839600852667 8.242661686826779 7.675945656084209 0.12779513996981862 0.2706386896323274 2.5883282669149295
Ni 1.9979074581329415 1.353863099877875 8.859808500671392 -0.16046151985458817 0.102598586099533 -0.8180419792890622
Ni 5.853394300247376 0.3891787165611892 7.411178645759169 -0.7163795318505533 -1.052836919749903 -0.45130110991482275
Ni 7.3116419568560405 3.177264217555503 9.009644517806162 1.094396488359244 1.062641821655467 -0.026867770925121468
Ni 2.566571837847505 7.907057402696899 9.996259329358923 -0.5804684476418196 2.3269427204497535 2.029658146095124
Ni 5.403236486197947 7.6136876904996535 10.883033227879913 1.8164100785671233 -4.376906667981766 0.5194595120586151
Ni 7.805367670809299 1.7260681757804108 6.941935462454455 0.05335681835458552 0.16243638419277187 -1.0275730029767915
Ni 4.104406028849456 4.684835619464773 7.4764431720224325 -1.477301883308488 -1.3049621239590752 -1.1860074650990218
Ni 7.654448089957093 5.544109159098194 7.880876287330122 0.7576935601079919 1.0835397481503983 1.2156862231103773
Ni 5.689441907958422 2.1963855331689612 5.6871602269936306 0.595801221344148 -0.9583730469423625 0.9146275264252957
Ni 6.29231272287765 3.8977589725814688 11.495200719026466 0.027440612709455966 -0.0040782838344316855 -0.03293608860638844
Ni 6.268416105365744 0.5153152984896531 0.909398220680103 1.7737037979478485 0.620956380453537 0.5200516371166592
Ni 5.276692394171245 9.392450490043057 10.003350380653615 2.811270421802242 1.5938355914318743 -3.970913795085439
Ni 4.933811144001393 5.231753607761822 1.8193795376067639 -3.012997633174837 -0.5358816621703804 -3.4927770530350104
Ni 7.7543537914607 7.614974070302848 0.7133079294685543 -0.2967140465631406 -0.7891808320829956 -0.7698425367656999
Ni 6.965464945292602 4.7796896980916 2.4750013140905853 3.9091186161555136 -0.9971594236819405 -1.2681691235004418
Ni 4.1200397687933945 3.1696867832403326 3.358312315739911 0.10724765483577015 -0.22101999816393547 -1.3778097040484207
Ni 5.6279679767794635 5.115012293213481 9.23931213877118 1.0546217795644677 -0.5759654175651435 0.8012544754180781
Ni 8.658791468709943 1.1797886825681596 1.4605171310497753 -1.8765656650110971 0.551872638281998 2.448546901117512
Ni 9.565970918970374 1.3628208103322395 4.812781583787951 -1.4575668667734056 1.6418013206778757 -2.5154966276651836
Ni 1.2165115395776152 1.7225282839132248 2.6901704018138988 0.9600162389727402 -2.1769422480274896 -1.5390980906796783
Ni 2.469933728836685 8.160887367804701 0.8792631306043815 -0.2750712714823843 -1.0648519419329079 -0.08495156244173112
Ni 3.6931588564382736 1.036052171419925 10.568064541512673 -3.27071935763518 2.976091247066791 1.6287439732732851
P 1.5609326896578604 8.670105977197897 8.291671818365147 1.1959684329664757 0.349642776241372 0.3163503327368294
P 9.097371864530617 8.820161711758908 2.8770025142958837 -0.70889505054805 0.8530848298258084 -1.6932835477175674
P 0.6106238353827182 1.9042928111413098 6.710907283580804 0.9272215610402225 0.4206229641046756 1.5196443528304409
P 3.581722684873912 9.122864719754517 2.4915336419700402 -1.9725315762854612 -0.7193635541795418 -0.40723265884069865
P 7.031990499348341 7.7468890327487285 8.994307490283983 -1.70763184601944 -0.6290643542726521 0.1251736431865715
P 6.766169972133387 8.821532598264502 12.791436820611288 -0.827021557079853 -0.7810605169687065 1.3623254923698924
P 6.946666898825477 2.707491458915751 13.283204795958952 0.7207115835670039 0.14523981780882728 0.6927847752497488
P 8.785457625973445 4.734488001941378 10.280649734944523 -0.9552962077892516 0.36771248925888933 -0.9897762438439923
Ni 0.7891207701180161 4.368564590917217 1.516284981890036 -2.278650461102269 -0.560040775915087 -0.7841664095875398
Ni 8.869785925334712 8.52194694862408 8.25557055510001 0.24481812902479771 -1.2950461503969437 -1.1248072394406177
Ni 1.655890054254287 5.598860112619578 11.086011754300396 -0.1128544594995863 0.051019428470660516 -0.5968165499825399
Ni 0.3455826477565607 7.949761456309531 10.860013602146244 0.3274199602874297 0.24956592812242825 0.15356325007285812
Ni 9.084404780529068 4.958092736490898 4.1308566267005515 1.2197673351582865 0.18429873148350195 -0.5716459642541832
Ni 3.9794675641683472 8.526144114843264 12.382166166072896 -0.8131306580303739 2.0043584909880705 -0.137691316037608
Ni 5.402250574669951 6.392631568259656 7.20264709002767 0.8451342075201639 2.2023995117583297 -0.20952331037824562
Ni 8.892743579486622 3.833158293413723 13.056835753277603 0.38976946905892873 -1.547259286334232 -1.6721092276327976
Ni 4.364292307629234 2.3476900889987657 7.880656569903883 -0.12024021044069615 -0.5368959623675077 0.5461077107737626
Ni 1.9682362159570583 3.633853930620907 12.520610679724193 1.702955780700009 0.7823995474951041 1.937122857768864
Ni 1.8336827664695874 2.975631225629896 4.280967760099802 0.8065774302928883 2.758061698989747 2.191011838746678
Ni 5.439114276183406 1.3833653286489587 12.606488268629453 -0.6884277838326338 -0.06511293044924915 -1.888012216285142
Ni 4.063335771483217 5.004637150245915 4.647746566744919 -0.9228365445986494 0.25309553854224154 1.4310999308311287
Ni 1.9354006672579875 4.846722292361736 5.967098068326129 -1.1083375239203686 -0.8627272380115788 0.5797480245360274
Ni 7.091858803181705 6.003928906121985 5.430212903530641 0.03553907344687428 1.221038488561226 -0.5746999205891586
Ni 3.9152424703446 6.3595800579877855 12.08187535494912 -1.1754014074484014 -1.455561920528235 -0.8142922824386428
Ni 0.3825552690197753 3.3614606598859784 8.194813991928086 1.267541774329088 0.7606441580958836 2.931528372854751
Ni 5.279866090328033 2.798420670697793 1.0284399954604349 0.39588252393520207 0.1702833910410164 0.41196066044398727
Ni 0.7412683804025243 3.2320057814432874 10.809180003762766 -0.666280044091001 -0.6504713591935185 -1.6008901842858108
Ni 5.397846836511568 7.712635649376064 0.721782073792521 -1.351841047898801 0.27790462716612135 0.6045769106542491
Ni 4.034434479262531 0.447197262575361 0.5114608538968682 -1.116198414725684 1.8100134310121603 0.4110916275754727
Ni 6.987483636084516 7.556702004181477 2.9153854585258125 0.7959104374973454 -0.8181401954298233 0.7887684271359254
Ni 2.915575129124532 6.868657822876983 5.7210492925826175 -0.0923707377239377 0.38160647363216216 0.031178996705965658
Ni 3.931777615114135 3.9703314506755834 10.673112945338978 -0.38749352854055846 -0.2176713934066767 0.07166358708357336
P 0.7128393867519163 6.711465966780002 6.588335945530246 0.7116769841685614 -1.1369217633159645 -0.31297653116859003
P 8.86547608351233 1.4431960739479235 10.385699077734191 -0.3330928423024908 -0.00935624440391937 0.47318813979590124
P 7.88901991655137 8.492914201532995 5.95192629835531 -0.9462904047462154 0.2688736273121047 0.6577128712472802
P 8.061019224835494 5.303556135900739 0.37179568787757755 -1.7116797908365684 2.0188767392089035 1.8447012122023327
P 5.893065502207221 2.0638320756382824 3.4751522214410513 0.557477386063285 -0.29089049790282806 -1.3556172271117815
P 2.8406740218976267 1.712810013137263 12.587798202948727 0.47838048263011806 -1.0511505331864157 0.5126088076853689
P 5.5365223351494235 2.3777556957858477 9.777599175863141 -1.071796234461225 -0.25738902371127287 1.0406519476479368
P 6.731832082058322 4.067241859060802 6.7676366329017 -0.8699026727140955 -0.8205747730132448 0.018635098602684034
