# total energy = -340893.77776718355 ev
CRYSTAL
PRIMVEC
9.04025976197902 0.00000000000000 0.00000000000000

0.00000000000000 9.04025976197902 0.00000000000000

0.00000000000000 0.00000000000000 13.23133396512037

PRIMCOORD
 96 1
Ni 6.402592163544353 1.6014548840638032 11.526185562034444 0.8696764156359021 0.3210893900837115 0.025976369459103654
Ni 4.836502775404599 0.44658521279388447 6.042181418234317 -1.1116627316388596 -1.2043486866103712 0.5907158364014407
Ni 2.9408326395902353 1.5721011608364543 4.857341478025899 -0.7038906553549232 -0.1199987838538514 0.39157541191941597
Ni 3.320541627269665 4.487060577181642 5.049751653281189 0.5683140716674728 -1.1370490329224483 -0.986112678949476
Ni 5.016250258906101 4.653536959451931 2.5803088910340213 0.7853794560590346 -0.7683980910096896 -0.4406749976595443
Ni 7.240759841100143 6.144574111609717 2.627133820146549 1.0805726951022745 -1.366804868297485 -0.39339369607507735
Ni 4.898256789376271 4.547006539214457 11.257933032099904 0.742391896753915 0.07825820958195555 -0.3207978269852217
Ni 5.575444562555898 7.949923012818462 12.307706972345834 0.3353122185513129 0.6054670265686863 1.121070655216321
Ni 1.8974510669741378 6.457791989237667 0.4739401346028265 -0.13470138017134867 -0.5805720630992195 -1.1113896804831311
Ni 2.4703142432816967 1.4969585222575434 0.28788706996455943 1.2134637615377617 -0.2055519844353234 0.5223311771794552
Ni 0.9777944885340478 9.0081125308138 4.608380862278969 -1.3359310615367637 -0.2729190010260719 0.11170054840080117
Ni 8.595632601742583 2.2028310394471418 1.651323668615397 -0.11463649110067353 1.2889246108802384 -0.2882116655190843
Ni 6.605636396278031 0.783776955105114 4.569269082737606 0.7349992038342695 0.3699676038416531 0.11854019703045392
Ni 0.8214251166019709 7.354947361298677 2.587347637231993 -0.11570864111892976 0.25901010425446364 0.20384168661243604
Ni 7.566163988795992 3.723230955091971 3.579353414005459 0.13782089963693683 0.04450039640522014 0.6698124827242917
Ni 7.69950781928672 3.7960050456309786 12.46116447663038 1.0642287065266123 -0.2646721876362474 -0.342252654424888
Ni 8.05234915515473 9.149646836587554 6.655651633036673 -0.43576239084927526 -0.51602631800735 -0.4533842176960966
Ni 6.981720239820052 0.6398722932395198 0.5874975487006698 -0.9401575523756002 -0.9753405280346366 0.164030211042453
Ni 1.9470911329554659 6.347030727463266 9.232493584477936 0.03647392655631783 0.04974570396455949 -0.45479832443480384
Ni 0.22750988754432697 4.812889617083122 1.2015942534998394 -1.0769734077867903 -0.427920011986721 3.045423100693394
Ni 6.3034928367755825 2.1349477294027435 7.094985653529769 0.360473805418605 -0.3163359345591262 -0.21166735330444192
Ni 3.285510620954304 4.247159205674356 0.45013351472389196 0.7236187299114698 0.494524182269516 -0.46490018875549605
Ni 5.87615976102665 5.632814050575841 4.897075227434228 0.7326967809533381 -0.9639322861976947 -0.009755793835183197
Ni 5.224890412390543 2.4936200327735674 9.72964820194972 -0.05388877959865558 1.4374760095608017 -0.4586444376537714
P 0.30107952093643203 5.476806289031536 12.52425102488099 -0.29098948537453756 1.3319643635795317 -2.4113098711429246
P 4.05591251184172 6.118420640314144 12.624571690734461 -1.309916639750873 0.2661055776486643 -0.854791785214586
P 2.249912711934987 8.374101037934087 1.3398044557840025 2.222425834281585 1.0345769450984503 0.720267811161366
P 6.396987202533895 7.775626805912614 5.876604541803609 -1.0047068970118955 1.1957578596175664 -0.8459898706522397
P 4.687148644995289 1.2657810013552444 12.77005026181283 -0.708472875408967 -0.7636178960122267 0.05800717264240332
P 3.9867454849207333 5.8932096908100755 8.293770194316625 1.4768210870173277 1.245787413371132 1.6914328676620738
P 4.559002963828775 1.1148629060188224 3.5523619106362276 1.3030564222959302 0.1165967001508379 -0.09268261253740168
P 0.3494901115993372 5.586048787177297 3.6612952319004433 -0.9642300199437716 -0.7095139150789717 0.3982777636402561
Ni 1.695075813457836 1.2950714427647332 2.752421875223698 -0.49795403388667137 -0.7900413803110781 -0.4955685643736304
Ni 1.9638788952077564 6.478069291731952 4.875614554945961 0.16264001556314572 0.4715169227410653 -0.4125998366898829
Ni 6.140551196045759 5.774619564140422 9.222834971020559 -0.09459731306161127 -0.878465474682442 0.18324766451116828
Ni 8.639016808015464 2.4057758293241838 10.15535312692771 -0.37883996663061853 0.3469996821915701 0.3468320462654543
Ni 2.502940540518377 5.157377752993611 7.077348106866216 -2.0173183935828485 -0.7964724806484025 -0.003796490927954752
Ni 0.5929171843873947 0.0607216163145848 9.208347050834496 0.02627770274960636 -0.4920893475757783 -1.0247882411428026
Ni 1.2502317546810713 1.0708097205285634 11.366734365572585 0.8308640707543948 0.09033005314482509 0.5290399566581986
Ni 3.9977655614880687 6.779796999288464 1.5476689549866751 0.3965893201942396 0.3523190375219545 0.48941051519203455
Ni 5.657710925773907 7.656819713010298 7.875382455535189 -1.0313998329220495 0.814640666916997 0.346827418279764
Ni 5.228542677307035 2.8831829035197694 4.8036360072600495 -0.0620466328190996 0.3348548192989201 -0.08987728187812263
Ni 0.8201938332316091 7.55960076025794 7.087575352658363 -0.21102174930064302 -0.7099072938626484 -0.12289590289598834
Ni 5.196142386562712 4.527416296456937 7.001664860757587 -0.29968212805252903 -0.09285230534604653 0.6238866667264545
Ni 7.913319001316294 7.500721548869051 8.735882286613776 0.8345877994628852 -0.6110298653684444 0.5755779523187378
Ni 4.468464762990493 0.31942853603792565 10.407635134086322 -0.2722137474289312 -0.23871818677464693 0.5387031907795754
Ni 8.13654109368762 7.20030467896821 4.777715774664591 1.1786463967482605 0.010673420553446134 -0.5086068856148273
Ni 7.367513322273736 6.131999110374963 6.756540931224912 0.012753185900610295 -1.3560085490129292 1.6786866237399993
Ni 2.3672643230265225 5.159936146487094 2.624553730029799 -0.1788708755997113 -0.2872978954555633 0.3142937073181168
Ni 2.4453450460060764 5.349573674094145 11.297812329689313 -0.7234158698720444 -0.7946063739739412 0.8025294854757599
Ni 0.9793132521626878 3.436907850054523 3.9211457444751114 0.45442011515977865 0.0012636972037720173 -0.01281952036217147
Ni 3.6346725711267385 2.6936990603275204 2.2510996980328466 0.9058490089017173 -0.16090940602528417 0.7187909695055233
Ni 0.9983882001176327 3.4711433135167864 8.205345606194868 -0.30693186763640684 -0.08698350527009535 -0.30328938578781317
Ni 3.6946185331595536 2.583597737510803 7.052142054786606 -0.14772427479357786 0.3577402085375258 -0.540823579556688
Ni 3.9730946927823605 6.798555538154109 6.291604895277595 1.071132632735297 0.6974047905202634 -1.0959712890455318
Ni 0.4723653213640818 7.215754482785745 11.20738984417512 1.0904683569494316 -0.035501278230403374 0.07024510946949192
P 0.13523776489668166 5.677301168531426 8.163984610041567 -0.026817377303160264 -0.01663118079877781 -0.4921705944356749
P 8.511666669702047 1.6307995670314577 8.099495013486404 -0.6772085180780466 0.7355334790711849 -0.327362624686933
P 1.7640529949252435 3.2717242249205167 10.319527859079834 -1.5767087019436006 -0.23493095181807283 0.5246246011993223
P 4.118127579057802 6.1490219193793045 3.7863184073685505 -1.958427275673595 0.29355364655728794 0.015152796481038419
P 6.854704591115324 3.9346283877831705 10.307513353946128 -0.2622098421386839 -0.04681181814721616 0.35682078204705003
P 6.382043653259238 7.730642473673844 10.329689110976213 0.035101471688823424 0.337665806385154 -0.5361598555324315
P 2.483413579578718 8.343852328997004 5.912368713180177 0.7677108351346779 1.2587527152825482 0.7415359765115229
P 7.059918486175632 4.1633650385680125 1.430267622466821 -0.6886972354439365 -0.6150829523918956 0.5403900915636952
Ni 5.59563146245324 3.2533363367023376 0.004613244521994494 -1.2675471736457267 -0.762442387646887 1.0358588971346676
Ni 1.433685744657231 1.0792442828233328 7.124028391823635 0.1137278632434751 -0.10074867737498779 -1.4321173163520495
Ni 6.769418781159423 0.5623059610365706 9.105499632396473 -0.5377161442759578 0.6970129543984835 -0.3820687579805613
Ni 2.537293527356667 1.4727396665365493 9.121668136859705 0.8236906929344071 1.1963057617012365 1.3119478112482887
Ni 6.154943289479063 2.1602062149885803 2.3561963330828077 -0.1808020311841531 0.08430004490066127 0.045484357585044245
Ni 4.257058290039599 6.907680512923843 10.440687227554603 -0.6614563974501124 -0.13845519078682605 -0.601629397990151
Ni 8.430367614271328 7.202383938697896 0.5137923114131505 -0.9239040666312153 -0.5986206930708142 -0.2188574432949779
Ni 7.593574056189069 3.9144143671067457 8.08628990615096 0.4878634824198889 0.2558566462271465 0.5913436997934267
Ni 3.149373350218041 8.271629694299348 12.468719421656896 -0.29558096139996193 0.3189193790155862 -0.30499274163216505
Ni 8.905984717047444 4.926073668455592 10.329477568899366 0.6460328638061905 -0.6119706320151589 -0.5984049775155823
Ni 8.660261418297038 2.441692781089585 5.839834189523068 -0.3626325036328206 -0.09878152634628794 -0.005164574920074976
Ni 3.3284428142424716 2.7228990991400663 11.58535586978549 1.3182189889689813 -0.6020482306951245 0.03610600169393782
Ni 1.2432978754955535 3.4873524991486424 12.65550655538234 -1.0920002202129258 -0.7863351351040845 -0.8767713748094708
Ni 3.1926852344133683 8.415387903957894 8.252580963097516 0.01474810484345202 -0.8663494081451981 -0.8461227966856781
Ni 5.706130556696506 7.610795750906685 3.703847734281451 -0.6278708481851832 1.8626076601691084 -0.46900932582786325
Ni 3.285637184590024 8.374046796375922 3.437553324596695 -0.7601988430283488 -0.5418664189989055 0.6908261088614813
Ni 3.317070167547059 3.9179310281278235 9.074114562815819 1.0451580630484065 0.8209121017480057 0.23733776148735256
Ni 7.2952816473163855 6.188238565933121 11.673000283495629 -0.3041833583569923 -0.1450616403597502 -0.7082178219753674
Ni 0.5046146397715108 0.18151937440158233 0.6575035117212872 -1.126993448458659 0.041015008959780976 -0.09756230922720617
Ni 4.680079161914356 0.11744291771444774 1.5303622818279325 -0.344110276458917 0.6657892204975114 -0.8353575877493742
Ni 5.887053273958266 5.735330595509052 0.3033070409251043 0.9600018407950368 -0.5922687827108575 0.56603298894278
Ni 8.152198823478125 9.040530902077512 10.93953418164116 -1.1497885919763038 -0.3077633623987667 1.5100083724025737
Ni 0.2546478431206062 4.955671478694686 5.954206131019366 -0.04648785914889413 -0.5727366262152007 -0.18239123004814395
Ni 7.798164173330471 8.590877425143388 2.8464966256543844 0.42208103670744085 1.1168548173627604 -1.1992134222663346
P 8.578519390141297 1.5158436247589082 3.71506760058803 -0.13668935713565492 -0.29840146156789255 0.5228667379679512
P 1.6219401125310566 3.1644977046865823 1.6352609351905882 0.9330893326749092 0.08038116946222931 -0.11631953523005127
P 4.666545893152009 1.0746608711583294 8.234653224097777 0.08864546635355056 -1.0474190911684413 -0.030126901292367475
P 8.451187332347269 1.5588933414231017 12.615005287925966 0.5750673312309064 0.7868375286617998 -1.6456055249153143
P 6.326292371724573 7.614972350885445 1.2873239402067296 0.3274338442445006 0.9454720226099782 0.5885561097459606
P 1.7732921403328044 3.0730645181385667 6.09398210628258 0.25674033438368044 0.797591167633878 -0.5080199027631058
P 6.979044322950543 3.9308043579324874 5.848038225195633 0.0813533035675115 0.39570486070675726 -0.18511299985468121
P 2.2325192522831796 8.259280699556951 10.299971969309155 1.283057353466184 0.6000473982150116 0.9845849294510396
