# total energy = -340867.8831635441 ev
CRYSTAL
PRIMVEC
9.31311365246750 0.00000000000000 0.00000000000000

0.00000000000000 9.31311365246750 0.00000000000000

0.00000000000000 0.00000000000000 13.63068321434150

PRIMCOORD
 96 1
Ni 2.7293662391689115 1.6136738660257146 2.3799447391800004 -1.347244172556738 0.8094357256772899 1.4092535243799986
Ni 4.344884101671047 5.222980322761377 3.8680061240186876 0.8889692024272432 -0.30136234396842937 0.8459649309515754
Ni 8.362635777934091 0.7255995751129691 9.630949592775782 -0.7432143926552103 -0.05134647279277609 -0.31568056036331443
Ni 1.2592726442391136 9.43893368089919 10.061979112582568 2.026220324058168 -0.1253713610196744 0.579999221314885
Ni 8.974004427889502 0.23304483347697083 12.30039619088586 0.4473614085407844 1.0806940511714873 -1.588508779902322
Ni 6.598769330215191 8.828133130868334 4.384732120477436 -0.7946595958093798 -0.35580031120233563 -0.25049461058428474
Ni 4.898083044597523 2.748476748106371 3.2640712012727704 1.7903264941061943 -0.5883946444674318 -0.9430456725566726
Ni 8.93894055549694 7.8536741242147 10.177948796033803 -0.9444780341278249 -2.3785990111734647 0.9725665648339249
Ni 7.060364488585693 4.51509056431287 -0.19834044726617595 0.5107588989608235 0.5738092904540892 0.25251472633810707
Ni 7.806438012455051 3.2557806676196868 11.591996073816606 0.20667555651680533 0.3240410165128677 -1.6770693998515502
Ni 9.177598402490776 3.753305817939858 4.030797485678051 -0.47479713615423397 0.13148158768247034 -0.21207410182455733
Ni 6.219679044494279 8.698429398913165 1.7045307388776016 -0.3464600076380162 -0.03772759645776083 0.31723350667273104
Ni 4.593264839176924 3.646419214102027 5.8044901994690346 -0.6041650199278111 -0.25685320581246085 0.30079747260389483
Ni 6.973668714853327 4.340860836631582 6.6692202400393645 -1.1326653020324557 1.703119302861067 -0.562379965571225
Ni 6.495905991416826 1.6515596118140123 5.09609008239978 -1.3241155569590743 1.2442658345202828 1.2721826155352092
Ni 7.572855812328133 6.857105786071041 0.8521219474906347 0.003063726526988272 0.0702466521313887 0.020366222361177827
Ni 1.9537142667686684 7.293723173988195 8.445420975300552 -0.25997941014626835 0.21079703488434662 0.1349230092638515
Ni 7.737139134772966 1.231053910281753 3.156443273598964 -0.5049983423279625 1.2240397372813951 -0.9400040575168713
Ni 3.6765564494439475 4.9827299333560875 11.556148037265887 0.38725930104256534 0.8776681755921271 -0.5251992427558697
Ni 1.8147812393178746 8.5336431683384 12.834637359936558 -0.6905255469019269 -2.3310534001840177 0.2843825215809812
Ni 4.813017065730681 4.983093144783261 0.06971517385630835 -1.2634501207582176 -0.7439718396465251 0.3579883199925899
Ni 4.7054599177196055 9.085808355664458 13.277825149440154 1.3141905845358786 0.8187570030782156 2.029466341799292
Ni 5.853850632421975 8.496521097858519 8.48037029639685 -1.411165653801047 0.6878024915438089 1.056596129682019
Ni 5.857305797536886 3.3783691808476535 9.474742602373135 2.059732082662369 0.4441688697454157 1.1327622326216362
P 6.041398112432974 4.661176062944936 1.9028162387740257 -2.576242539394989 2.032597688339422 0.9931742137819476
P -0.17557360996183147 5.392581433024577 1.2457071630898424 0.7495706738905413 -1.7758833220976706 -2.5347706454034475
P 2.3207533835982193 7.145998567377089 5.625083311983491 0.2314280808711369 0.5261132699297069 -0.5245945192923352
P 3.2015317813815267 5.64590743380813 9.417915846313392 -0.7522135108300271 -0.9069864649402704 -0.8172853036286957
P 2.655150037549701 8.675724028158035 1.9914835986380006 -0.3206762138056929 0.23466869929562167 0.16877209660281256
P 7.849222455953439 7.826740599922724 12.503316827379834 -0.19496161051398683 -1.2258546790029468 0.339699291875415
P -0.05626517531465152 8.46048866166016 8.098970358523653 0.9638497537862174 0.7506258546279331 -0.6405325028132518
P 8.127125763309097 5.626713106849015 4.9884621547259735 0.15865814809726222 -0.24903859486404853 -0.1908856406724003
Ni 0.5392199595370368 0.3593716304707736 3.475742439227582 1.6479256884080586 0.5021624155410642 -0.5993370024115485
Ni 3.4335214390969897 9.18964025826862 11.556148037265887 0.18239534381320202 1.0667725559943886 -3.715231469652627
Ni 4.507463124342217 0.2675750644649926 3.136951858318647 1.4167431478888246 0.11704021544615971 -0.8897384764931
Ni 2.1898575731128385 4.409572988162079 1.8959738942728794 -1.0791012527630706 -1.3266570924340055 -1.0932569754381622
Ni 7.7080356550314635 3.553856178853774 1.8758408054712221 2.085481680822647 -1.6734580283512084 0.6742995719613677
Ni 2.2034267795075166 5.767415625868092 13.49429450347907 0.18511402829594573 1.108376347578104 1.1249908162063336
Ni 1.9683824205583855 6.537498356385001 2.397718816327731 2.3104889457691047 1.4844804033347982 0.73325651011155
Ni 6.283501811428204 6.6985034628717495 3.3697778336279613 1.5405301951405146 -1.1525332446009764 0.026910708347914945
Ni 8.93103372212077 5.777762494985791 12.414730491603459 -0.9912880525028281 1.739303723201424 2.1648961154962327
Ni 1.477348510359759 1.0369965639221745 0.42143608157263573 -0.49474375447948993 0.6501720827855447 0.6707697044312384
Ni 1.877858957170417 5.0375096670647315 4.734290523235051 0.20722037327668186 0.5940400156786673 -0.30176600716475127
Ni 6.596785637036009 7.612473797230646 6.359272371693447 -0.6797598237449906 -1.8222570242662035 -0.36377741587054124
Ni 1.991125043767585 2.298457789837849 9.566585733946503 0.2662973819444962 0.1277833128952767 1.2949715884052666
Ni 8.175749528982818 0.42967166785596717 0.7686680685736339 0.1211542376145333 0.17300541795786978 0.8718978487672532
Ni 2.7458038845269113 -0.10703561365410741 4.450281538657465 -1.2132956113910138 0.6329361785232326 0.368157804326424
Ni 1.9440938205053173 2.4608412371251562 4.84272310391675 -0.7835465166153537 -1.0999521280701507 1.4531075454504716
Ni 4.618549942376341 6.9957221676622465 10.38688011599183 -0.6917589050883958 1.9491119118099398 1.6717670138020304
Ni 8.168168654579752 5.045919408570836 8.4802883409979 0.7178129218629702 1.0578050623884558 0.08391566497804903
Ni 0.39289511388757725 3.89933543789082 6.45620046324725 -0.9363654323230196 -0.31422043087802015 -0.2640988316312806
Ni 0.49847136265352676 7.961454786950189 1.3032230895498649 0.5517440831239336 0.8571978235529172 -0.7107734985176856
Ni 0.5457465894899473 1.4378795352735234 7.8796521230598024 -0.46179121081286917 0.6664278825227749 -0.5428578363778973
Ni 4.188004704472453 7.4891774873753665 4.3144516406306295 0.714461488892234 -0.7737912370008029 0.7987347943200179
Ni 3.5723147698450246 2.7442299683424913 11.792885520252462 -0.49364923586373044 -2.3737362837645244 -0.9327224362537936
Ni 3.911451798576802 3.465521297142366 8.386604938193518 -0.9768430807220919 1.6173609282473242 0.1494309730720394
P 5.125472024235449 5.710316926893644 6.404553660925818 0.14823798120520276 -0.07918894892634104 -1.66763088014647
P 6.339091786012852 1.5829126520781363 1.1633801709084326 -0.6832624375816104 -0.18582442409940902 0.2067262072490827
P 6.672799269564055 1.578023267481564 10.567050678785792 -0.9802562201686988 2.7929759943684282 -0.13175309617630213
P 3.0817185759817103 3.6109362516011876 3.5516927425837097 -0.4882671456162107 -0.7045586279562253 1.04238178585485
P 2.2260576453545085 2.957248813823253 7.276603808720731 -0.8062434439922372 -0.5019888660776775 -1.3631423318442328
P 9.419748667053591 4.9587207267085365 10.648166966209955 -0.5343798808138733 -1.3860133229051355 -2.9357303267512407
P 7.365741480817328 7.003032961773313 8.37525039019325 0.40352564230275667 0.1998158532824946 0.3648675636109264
P 1.2061972103041307 1.787968785501623 11.972646306051661 0.7319395910723394 -1.0409903048239622 -1.2458969423658028
Ni 4.125709288155362 2.0242424754350354 0.5489456439831331 0.35338630244420427 -0.48777555069177286 0.8198139835878203
Ni 5.760384225162545 6.976574406270719 12.81853964322194 1.91301799430086 -0.19509119411331563 -0.3879172463415384
Ni 1.1570891627275095 3.896578756289705 12.342119870754628 1.1385749826486713 0.7402676513220605 -1.5636176730875977
Ni 3.262122897924955 1.0057045025041114 7.633073473019519 -1.0742323547065433 1.9358493903730787 -0.170682426251648
Ni 5.503481988788356 1.9000707329091315 7.556482427453402 1.4030599939747772 -0.3045543685431658 -1.0298988228964907
Ni 6.658652650131305 8.957427085828742 11.061749299153469 -0.8771531836289216 -2.264340729347816 0.5367257553382304
Ni 4.339380051582334 1.430429044459699 9.710648424322613 1.1364702776008426 -0.574296514503153 1.0112806935746712
Ni 3.0437210728312047 5.484641560142897 6.9619807573891395 -0.1866734023632656 -0.07120155984549029 0.6742165253292581
Ni 7.507477755436823 0.32138995961324757 7.131123662467289 0.6698407648590657 0.1511294438203849 0.503021935327882
Ni 4.40477673470068 6.431319549174483 1.955198777063323 0.13001400199800833 1.0373938457219551 -1.235294484259608
Ni 8.85773951873977 1.4107411224841675 5.550073633092608 0.4912455115182443 0.7874813328933856 -0.8509734399097602
Ni 6.822572761148964 5.908546548108965 10.353267226685261 1.3504727067963644 0.4789512675319235 0.9123166189039321
Ni 1.2767254189704975 4.396376306308093 8.619267002704927 0.6085299817647262 1.8022348155080057 1.0230149512924638
Ni 8.882316825311873 7.958912306959972 4.819237294248872 -0.7457124764867158 0.620436503394325 0.48085439809190733
Ni 6.587090685864521 3.960205947839767 4.411924549325192 0.8692755806530579 0.8442530904667911 -1.574410135717411
Ni 1.3458007819281688 9.254878618457171 6.237863829948121 -0.6658388427885242 -1.4642360512634656 0.4545576691789075
Ni 0.42457273820525593 6.536604297487342 6.314290964716334 -0.21940354560643502 -1.0990311589177781 1.9612122946178996
Ni 8.642885989896103 3.060708191886725 9.336540654333447 0.21237877754916973 -0.7914642288005338 0.14858713701450538
Ni 5.896094915336359 2.319319164116558 12.701234459292326 0.5230040348767638 -0.33421872837681793 -0.6122539675835327
Ni 3.7774360950631327 8.332917632700449 6.897085119778023 0.320748461804525 -2.975357197114244 -0.4125586990393024
Ni 9.166990766194594 6.4123207975992305 2.976177717047126 -1.7551522601979064 -0.8583445355628507 2.599701284638561
Ni 8.995219700481867 2.7108238301560053 -0.15324262637009575 -0.8544508569353995 -1.2575494390030666 1.793569426523524
Ni 5.30355738091289 5.961053882119392 8.540631728721769 0.0023404752077185497 -1.3315059358858747 -1.7840756281004762
Ni 1.754814101380104 6.25871961635872 11.227839365620651 -0.25866634776179964 1.0461952460636692 -1.5257067569744367
P 2.985998395251099 3.7071407142346975 13.556968032204962 -0.1383909132077939 0.6066317363007487 0.9195912981884743
P 0.4525893775992916 2.3806925821954383 2.3419286098024603 -0.16243998373719767 -0.6474305154846656 -0.690935637856152
P 8.175377004442128 8.305108675737849 2.807566590750814 -1.017956820043266 0.9519763993873993 -1.0172780488086868
P 3.7383955231986916 7.23730433230051 12.572273913795836 -2.063597479155046 -0.2684828196315892 0.1396245285045789
P 7.764324113129909 2.569366948942028 7.235602826460902 0.9598619727830632 -2.109981208625908 0.5794623749748085
P 3.602824529727636 8.665153644315922 9.147701445477601 -0.2326624674988703 0.44208190530939995 0.8790838249927312
P 5.794321210819517 4.450513435184045 11.532962109853267 0.1356945973225534 -0.6644571319496493 0.8373458218239965
P 4.731937099449235 0.3590922370652551 5.627332428897914 1.0458417193789924 0.9367492980249996 -1.1078649551593243
