# total energy = -340867.07063243823 ev
CRYSTAL
PRIMVEC
9.27220346156465 0.00000000000000 0.00000000000000
0.00000000000000 9.27220346156465 0.00000000000000
0.00000000000000 0.00000000000000 13.57080701468814
PRIMCOORD
 96 1
Ni 7.756717351083587 8.18769863529614 7.828618652011412 -1.5268169593194802 -0.06229191606068626 -0.9015426682168797
Ni 5.810407688931557 2.5802131168211506 6.8909031093842 0.5838031684420074 0.7748639012396914 0.6780487545911549
Ni 9.161122360269493 3.806276566648517 9.683611946627485 0.588980855988205 -0.29869559576954363 0.9406141802970446
Ni 2.056583976670648 2.395121393419094 3.9547634856398615 1.7933673378150468 -1.6348835105121198 -0.17933264572747823
Ni 8.517631447329773 8.148115599167326 2.704539455526514 0.27039572038358595 0.37096287787538695 0.7116677281971808
Ni 4.925830216519997 4.263062392802154 12.992758403097984 2.031175354070599 -0.7017419844430366 -1.6201482611844742
Ni 3.253004192367348 9.075558467695894 6.694478899039854 -2.5894549243202047 -2.204855943718622 -1.3675862265481995
Ni 4.422887362057802 7.116258448641436 5.260167325147957 -1.6719562469947011 -1.0287983907434606 -0.3952957981937966
Ni 4.811253599643972 5.176439328838941 6.545186225576831 0.4909907151949608 -1.3917630809047192 0.7288846062960995
Ni 5.152173972655033 8.723780344554395 3.7143973763688196 1.233970880352178 0.6372507467381864 0.03198658020892556
Ni 2.136306381129664 3.565004563109548 13.062403776949177 -1.4013653798811736 0.9453840908818621 -0.14217403439931
Ni 1.1182277247915031 1.194686313669038 1.9386851293319964 -0.7342528125865483 0.3582755122157056 -0.1935413331276925
Ni 2.759713701599249 7.9770619916469805 11.480902465315507 0.16415259555293019 -0.057379309250417315 0.07790494000759486
Ni 3.991015946323027 2.4358170939506856 2.577584447169588 1.279346994494132 -0.3238538402027261 1.7149129530618852
Ni 7.0767866789528995 1.3289941792876527 12.975373949024918 -0.19576867979631443 -0.6788265132974438 0.12922595887907423
Ni 7.414795580110026 5.290515246733717 6.920772585276764 -3.508692952934318 -0.6737550123118073 0.2607697672580476
Ni 8.136247178871033 3.74947504888672 2.568858376590805 -0.25912297568324405 -0.5810196921595995 -1.8774465249541537
Ni 2.299237538509733 8.531827190668544 8.960546057262116 -1.5394960974490455 0.4044424976900712 0.468734989120554
Ni 3.311196540632617 6.863906162091473 2.0080180299300765 0.6799680831010548 1.3223360964611486 1.0968961148526464
Ni 0.23077030601741996 5.204478471788938 6.140152275237053 1.990292499813308 0.5399434909445797 -1.4865560549169043
Ni 2.1186799225489956 0.9219119992264276 12.09849611428058 0.7499529969306247 0.9816842108644769 -0.5689874435854136
Ni 4.597761117361017 0.03866416077618647 13.050379583636493 1.6273882305763392 -0.16910813978599262 -0.17399169313053905
Ni 5.464981025089246 5.3668532969676175 10.26251547264697 0.8657179452087863 -0.9579994656530275 0.4375850458803109
Ni 0.7569965903280722 8.139900426993485 7.037956545736632 1.2709878238961594 -0.42302103202320696 0.9895422734563152
P 0.8013010324060055 7.107524033079631 11.635718590317985 -0.5322165546139672 -0.19628572864204905 0.5184935486009199
P 3.9938161517366844 0.5726206810251361 8.365099993234331 -0.7136289656886097 2.262995528173832 1.0338130703492323
P 4.243099338975652 3.416241332458181 5.487341870703735 0.28121389404501246 -1.9464220236826029 -0.6147566794007284
P 6.942126469606739 8.347338160484659 13.552974730472819 -1.2638938931638555 2.111854000168589 0.5636282361560294
P 6.534075344294761 3.90953182322628 8.585733926542447 -0.29319446344565636 0.36966549922020203 0.22155247362863778
P 5.728923565834809 6.916683543596558 7.296642674399407 0.18043256365987634 1.2085187588276607 -0.2817106311757729
P 4.227178965812576 6.5497268235604995 0.01782951983417563 1.358086257477564 0.5714621303781513 -0.17318102430378562
P 8.937068838363508 6.217411055264252 7.882942637036359 2.6465331573904356 1.4846889198011783 1.3758780342433465
Ni 3.4031489813188305 5.349505004487643 12.091426059221265 -2.4975888941468276 1.8957712914052705 -3.5759427272209123
Ni 6.2933689451605375 1.7253994171838911 4.860153345705377 -1.9123801036065449 0.14403705574997777 -2.765720243976269
Ni 0.09470535786275235 2.8477069114522453 7.558994105048998 1.030071086808297 -0.8246036916669798 -1.248352345884831
Ni 9.042493790526686 1.9871073569205426 3.9182310044153295 -0.9147116014986699 -1.7995809228249264 -1.091155098603811
Ni 4.336414793555268 0.7087162274508801 10.61110859393552 -0.42034888450768254 -0.7992369307674171 -0.36143848332471945
Ni 3.7190900384875345 3.090555189561816 11.0452118290182 -1.1159945262449942 1.2851533167632643 -0.6884684072625821
Ni 6.040488143019255 4.756000539842707 4.115957959331261 -0.8484532445910677 -0.5937798200387451 -0.3024185531470856
Ni 7.986742171951146 1.2245891694936866 6.098041636473263 1.7759679113916766 -0.8813643934967917 2.475463265892382
Ni 6.875700404760915 3.3668946661949937 10.861042689850112 0.044398323609717086 -0.43235670760183603 -0.2973912751358233
Ni 7.640898258957795 7.729141818301415 11.763610091213915 1.6890898213511942 -0.8025845070834113 -1.6335323958008643
Ni 0.10169010865118883 0.923364953492388 10.646908571094889 -0.08215677330541335 -0.6126612303242803 -0.6026339279952654
Ni 3.570642062750288 5.121316079884667 3.461844810226357 0.06133418013310728 -0.8625344052744823 0.48708958036834177
Ni 2.957026189025146 6.359563204922449 7.761198606965775 0.13372744629385355 1.2923945717067098 -0.8527379880093507
Ni 8.905033375766868 7.9529357185134195 5.1214050930368895 -0.17532943810535612 -0.026307013325645015 -0.09507965201466852
Ni 1.182595360492188 6.694614273208859 3.7651932880166252 -2.0076153073624714 0.5284755995142962 -3.3293022002753956
Ni 2.587621607302978 2.168286210506164 6.590947330802068 -0.44931801804652294 0.9013992006604798 0.5808906227809029
Ni 8.92136172587763 7.460006843676224 0.3696753300601774 1.742754914974818 -1.2125291655386343 -1.1633740439702223
Ni 7.849495017868528 5.814450369594982 9.655343780254583 -0.9928787940287157 -0.43908554168523733 0.6817408587307614
Ni 2.5483352816815716 4.741406091759607 5.56652741458841 -0.0614352244873458 -1.6195283682122883 1.2325495745246193
Ni 4.402340159419842 7.85915665376598 9.2020109226309 1.6157257066367465 -1.4924109710357845 -0.8622276726673408
Ni 1.1471106382469387 4.35308621519022 3.6297569952495268 -1.5024740116987414 0.7771586108111389 -1.1698969326904045
Ni 7.718386062407898 2.1079612554689042 8.777841926224353 -0.12073977578493401 0.033528727885064835 -0.3537922796333713
Ni 4.024164073322444 3.1042316895126243 8.381139977820705 0.6032512498642901 0.8977371784278603 0.46108621432604463
Ni 1.3324434389362634 5.787681518504824 9.933301256373465 0.8375993325956994 0.0017208393458486492 0.03471374933210151
P 6.572675526867788 8.114819116914205 9.889073773583391 0.973614289372149 0.38568861412133576 -1.662124348505944
P 0.4282969813408517 0.5171803227160702 8.59527409657593 -0.2626605565228573 0.27506175840068753 -1.3944226300147533
P 7.579525544941252 0.12169210573178775 4.268398545833809 -0.12581307654278331 -0.5387774956609366 -0.6292268479924454
P 3.621991524938475 5.113026730083974 9.387578310065143 -2.236793158746851 -0.5272327282461308 -0.08753500689819119
P 4.405001281783152 0.3247292515099756 1.8929917111912624 -0.4951430468004376 0.5988726611806202 -1.221167815050239
P 2.6019008004719573 3.9159945489657466 1.7934091743630014 -0.8725393390059941 0.5386777368582788 0.2058018956626004
P 5.481161019946304 6.703580493854574 3.124624046354531 -0.572844869658291 -1.1097835123382758 -0.5609229214097243
P 8.717558696102197 2.313841258796189 0.8912840570993024 -0.3663318068612788 -0.3374374924244318 0.5852689543542565
Ni 1.178228152711286 0.537137813220558 5.3347927994219155 0.45199736465089896 0.24167984050613214 -0.11190186577832986
Ni 2.117122192385107 6.681661005119856 0.11992296933137134 -1.0003923287969416 1.9970740415115156 -2.7168245467168304
Ni 0.8853479925104839 5.248697609595991 1.0321186266605433 -1.074037207976602 -2.2320283903683555 1.7192753437956392
Ni 7.765145783934628 5.060304981799027 0.44884232953814035 -0.36268726813015606 -1.4992362214877342 -0.001306377516249363
Ni 2.7105153905897654 9.194548653369603 3.2474130537433905 -0.4134804395226233 -0.4285933839046619 0.023031427898166788
Ni 9.27203645681971 4.8515042344144526 12.20075275455685 1.0096562705973708 0.6530440050167011 -0.8334305459299904
Ni 5.986653730331532 3.0006055448006026 0.8131305094482028 2.3008902463370764 -2.1233339757837304 1.5895230800994495
Ni 6.748708307590563 0.3568129295640682 1.8138608733063897 -0.46763764229131716 0.5190751321360029 0.05131947620958258
Ni 3.9122300344030156 1.134815696596246 4.919716125626734 0.4899082807640595 1.0385456999382112 -0.30857943054215886
Ni 0.0794729821887268 0.3289295596304611 13.302213554018827 0.12955454586308654 -0.573089124458613 0.5231055934516345
Ni 2.3678982043644683 1.785325667476822 9.42541353586126 -1.492935476080687 -0.23159468835598823 -0.10120247708295474
Ni 7.068126441017947 6.90013266060524 1.4440965300939903 -2.405502263322212 -0.8326088213596435 2.265633222906995
Ni 2.6240799109006576 9.112906902815796 0.5505964163924889 -0.6215351357751425 -0.23487824420326647 0.950856426850343
Ni 5.427484234715641 8.827100506555652 6.337593646289605 2.483950991648419 1.1688134698182386 -0.39258739812369803
Ni 6.799723970457917 6.8804477728794335 4.929270203965252 0.5531759304744537 0.28542561813351486 0.04842621382218757
Ni 9.150765309120304 2.328305896032298 12.379561632964554 -0.9305812215410748 2.5823399105419784 0.5569819344841053
Ni 3.7026504219364953 2.3238830550312572 0.3785219392825951 0.594775351182795 -1.8140027546772115 -1.1779473137987069
Ni 5.177959970189405 5.024829531757135 1.5305292281220908 -0.08668011509706362 1.645842837737101 1.2465564303266723
Ni 6.851824481117978 0.9506882823432636 10.434485173858937 0.2232128920501962 -0.8930567422330555 2.895461194818549
Ni 5.228493478482221 7.392597925274613 11.304956843304282 -0.7663381231568672 0.14555889171114286 2.852623530827733
Ni 7.933834979599071 3.6784777877861514 5.1231148873358245 -0.7708969461721432 -0.7821077272862982 1.1419338718185752
Ni 9.202596925883029 7.783782912681152 9.592755480378006 0.4422495412355158 0.43120151095147025 1.1957797139944375
Ni 6.047998627738004 0.5806281558437923 8.366280344721611 -0.07284192366239067 -0.35685009262308864 -0.24621038138663404
Ni 1.7798828841065681 4.368830416489523 7.920045358767314 0.3697842841862535 -0.45337264773187075 0.8445197138646166
P 1.3777010635192428 2.957434165972831 11.105737990868294 1.110899371110274 0.42426158929852736 -0.9614416585653569
P 5.231803655080484 2.0880074738457592 12.010680003511691 1.2829146572407324 -0.5316959062238069 1.495544888679076
P 6.17930229946912 2.871740462552242 2.9845868862819476 -0.3126515437290035 0.21549418324969985 -0.2524964715056619
P 2.258597471198281 6.758944820096118 5.359586671197144 1.3996532822860734 2.0912136982104177 3.4863158707906985
P 1.1850524943816554 8.058963363894769 1.8658770069159076 1.0930695420177046 -0.07630879916506858 -0.194937956364903
P 8.331705225625633 5.348967216692968 3.8708964062804982 0.4582469451050366 2.8958427465276837 1.0178555185787115
P 7.137621605174766 5.159044675342185 11.970497055825714 -0.6475534142157751 0.979506743597184 0.11686306643834712
P 0.7147663401409834 2.9766739879375272 5.541598168644178 0.7009313156162832 0.09032953892419282 0.4776310060586032
