# total energy = -340861.03006236954 ev
CRYSTAL
PRIMVEC
9.42311474897684 0.00000000000000 0.00000000000000

0.00000000000000 9.42311474897684 0.00000000000000

0.00000000000000 0.00000000000000 13.79168093816581

PRIMCOORD
 96 1
Ni 6.895807025624544 7.631893625879342 1.659924990504308 0.8244856780318769 0.5530774572233764 0.6184873500877541
Ni 8.88280267148165 1.8086914706024022 7.695233917879505 -1.0600336946086584 -0.43879140748358625 -1.3868396754611727
Ni 2.8070798900301206 5.86594540329276 3.1968425270957175 -0.13878891997716097 -0.5826281742972999 -0.37347304589175034
Ni 9.369044810120169 7.462739294941957 10.321804623828708 -0.9711537436467985 0.6398989829943109 -0.5082168492652602
Ni 0.00739620268245525 6.495908886450081 6.9312294558750445 0.06704151493052969 1.3566945193363602 1.1683136473636848
Ni 0.2835735581656247 0.8168238465069032 10.28549076693308 0.17596835724093565 -0.37070679600052286 -0.88115664836136
Ni 4.549121670770113 8.96959898044852 11.653597916271533 1.714128252377061 1.789746710343324 0.8868863517562855
Ni 7.619228959800581 5.294480615832576 2.3919191320701145 -1.3284283254018154 0.3226060838385541 -0.1529418144387753
Ni 1.8109341718871828 4.551524565003805 0.9270299991787326 -1.9041741707569848 -1.1847085437819405 0.8153014404294474
Ni 8.386100875590584 8.473104493079575 3.64585865134127 0.022774317582038194 1.0888591034807829 0.6294255942668128
Ni 6.553474693797665 3.921579928075769 12.219332507717958 0.2472334233345097 1.1538157108578257 0.03993951650741508
Ni 1.1967355595258207 4.753377103748709 5.928602519481382 0.5442750284403981 -0.6953767043466411 -1.217684998707961
Ni 9.137198497469987 3.5481795872744293 2.086667698670717 -2.0030058336149184 -1.185250018107707 -1.5477981895568376
Ni 5.479277317075575 4.3407954522662004 1.6249774852317618 -0.12424136118028925 -0.7784269360006013 1.9684620342017776
Ni 3.4802954693939254 9.403033984633632 2.6849506704018498 1.6519924022782644 0.2616058900060978 -0.8599219073522997
Ni 9.250087410880376 2.8616868393801376 13.470389496220145 0.48329257521975477 1.2744778393272889 2.666504715416356
Ni 2.0405472063672274 1.837366008457812 13.376551293681358 1.185134061355133 1.6620610993681761 -1.6095519737258668
Ni 8.78494362592515 4.564603848126812 4.415903329831212 -0.417230650593675 -0.0006198929721860292 0.46419082139329737
Ni 2.199091110217794 0.21476785967313933 11.606747132583294 -0.02091978087180268 -0.08108436617684099 -0.3029258318008073
Ni 3.0020912475449775 3.688122262821815 9.789982879667146 -1.6642514221512756 -1.7516910411221833 -0.5866249541615187
Ni 6.816030937065916 2.7554506449069556 3.66501490109686 -0.5634240905650232 1.0526947377450837 -0.5319306479424323
Ni 0.4745489956793408 3.90571140301875 8.041515477052819 0.5758497179228856 0.8704233211042558 1.2550963494768836
Ni 1.983556209012801 8.724126844026097 13.870706963996174 1.1514988897991911 -0.47255744819043777 -0.03458673683593398
Ni 3.844508273419378 6.980633903631247 12.584150275703422 -0.3775227904810918 -0.3278405927646161 0.782069417849195
P 8.131733318946173 7.975818464080708 12.522073623376745 0.5706002965984882 -0.45861898373247467 0.7594452526917759
P 1.5258661077393472 6.638386379836146 0.34967670737880285 -0.08713879990103703 -0.45969858994989865 1.5861595629438554
P 4.740495706033183 1.12545912037422 1.4162677459619226 1.1389236242373417 0.5867087721245767 -0.6975377165537019
P 8.287233556767395 6.744132572347948 5.015923923902318 -0.6909945161185453 -1.137558111348383 -0.3643384305803338
P 7.6648839502407595 2.7324770914099163 5.656078505544892 1.5002798322609001 2.0595515912204463 1.774294894564628
P 9.211179370523823 5.590601993455402 9.290600207660448 -0.721767278525028 0.6500008473150032 -0.44528729962057506
P 6.821835575685349 1.5937313793905674 9.783473392072498 1.4334244651992476 -0.23344999639717212 0.8743344832332038
P 2.463503707070507 9.236659472515617 9.29200707867649 -1.0307084632819798 0.8013398360430328 -0.749298136955445
Ni 1.1356549304167942 1.0726991014940224 1.3237544333417917 -1.973575187058627 -0.03707762157858776 2.0216764134412277
Ni 8.7058365785061 5.919657156751794 13.7629941674586 0.618474751682264 1.356559793530709 -0.46989327109471335
Ni 6.028918171025036 1.7188986111793978 12.23366223815395 0.028805611377782647 -0.9561935227925403 0.16694172826229314
Ni -0.092089272461244 0.5900565926487231 12.961007957266888 0.237762507729597 -1.1641482031320853 -0.6430570690073183
Ni 1.059600972141732 7.0223311859218125 4.706245511244139 0.19019092859822084 0.15155521850389383 -0.1318176308656504
Ni 4.676889682200117 8.433621642729866 0.34196011879852184 -0.5411056295734811 0.6841548674888928 1.6057549685772796
Ni 1.292973829363909 6.958725162088747 12.093910851833796 -0.06656020441873699 -0.2385487510763182 -0.009807473008725044
Ni 6.4058427567024605 0.3374784854748173 2.8617320703304183 -0.8322316405258828 0.07037880683387879 -0.3918906291669896
Ni 9.403891488066048 4.405438018709878 11.77383403216824 -0.44628951563284425 1.1160636889200326 -0.8952696907239743
Ni 7.338947837890848 9.054906437301963 10.859349025512316 0.0826293420664577 0.20913687357310434 0.7208082570458684
Ni 7.537813249294257 4.404797246914226 9.770288570065501 1.650053533384339 0.007687341341928696 0.31159713432256014
Ni 1.9069180176299387 5.982339715349949 9.352152934813036 -1.0103252716399374 -0.19355804529824083 -1.3908518819443596
Ni 6.73094963496388 -0.07799040833397995 13.700269204844556 1.3799642884975782 0.3698084525559696 -0.0797561342837207
Ni 2.38377473408509 4.635164130565626 12.329748795846303 -0.6912752805837579 -0.8629159569836171 0.6217727057072453
Ni 5.487805235826527 2.8795342185119637 6.031901529120673 -1.0948903972765274 0.17919483459803331 -0.7403434988653185
Ni 3.2546589892927775 3.8181141293073164 7.057851616564589 -0.13970654669542393 -0.3888726682762722 0.22851013589339356
Ni 4.667494836902107 1.6086952854419612 10.3069095065142 -0.06243101274171183 -0.4234676326423223 -1.9186283985091022
Ni 1.699449302558443 1.3797512921014938 3.572376261051992 2.6285534329835634 0.01419043256776911 -0.23127330046082753
Ni 5.413673592938419 3.8931598143156916 9.90001282009517 -1.5761561718742403 -0.09873550359970093 0.11330774498692098
Ni 8.386656839354458 2.1773237153949228 11.64353026058809 -1.9418115214937848 0.3250221494792145 -2.696154162851673
Ni 5.837534712647325 6.133053010933066 13.970972673032225 2.174358032240081 -0.1339848137202983 -2.379195764217199
Ni 5.656874758732136 9.15260528990955 9.172350484330263 -0.08810244936588697 0.433626318342879 -0.9657497990224078
Ni 3.6625856221421693 5.580377914068902 10.644971282785352 2.34683354583641 -0.0025747027057116947 -1.467686471705911
Ni 6.079605104684008 5.269886286617124 5.274076745698393 0.4097379417610556 -0.7400856172182416 0.14016908815413925
P 2.519326238209333 5.836893940851672 7.219723764506687 0.4515811030490868 1.3633472487661875 0.035346240709777835
P 0.7616948566057233 3.053381260541033 10.297282852595998 0.4245652365818752 -0.7195203914723801 -0.7977541755743035
P 3.8080408197550875 1.7257209461801593 12.097110941566196 -1.0533058889665217 0.16322905529739629 2.3356335633555325
P 6.852328774666653 8.851480238411858 6.669408215548863 -1.227880451183724 -0.781461351951551 1.339437017807493
P 8.385328180189944 0.649376041631172 1.9254702457369817 -0.1558849562274993 0.6070086600241933 0.39867628463025534
P 3.499443238346338 8.683475527460788 4.711017376498815 -0.5130163275364327 -0.11890606501030487 1.2627168421366188
P 7.456680232227192 4.295272385431009 0.3842896920815607 -0.3484500414848515 -1.3143049986265558 1.047954394846621
P 1.2693877734151442 3.8953930924858304 3.2289084439107603 2.3665094269987828 0.9061328586907232 0.860414273607686
Ni 6.8056372416158615 0.9181788675955626 5.2361911132804915 -0.6140830503724715 -1.7244160074563142 -0.5558020552433911
Ni 9.08537136693934 8.339126649100535 0.8281296994542976 0.1340794303166336 -0.02327851091196636 -0.7057613900150749
Ni 2.6642443182876607 8.150315701020071 7.211283480721905 -0.3907799126013141 -0.6831552225797847 0.2356025239638007
Ni 1.6083843226587773 1.9498874203971652 8.453390394937182 2.174105035689011 -1.2331602115254245 0.32926498391596837
Ni 6.866218445648865 2.279941433845601 1.3519154114492162 0.20983672785360635 -0.2658178712049164 -1.4530011017795943
Ni 4.472879250202212 0.363435397067493 6.990009902699973 0.7635330496079044 0.5187205770100614 -0.1886428673848106
Ni 3.6838064763158083 5.6999007001872135 0.7037097206565726 -0.6284370051012983 0.38672913957070815 0.6967015938056518
Ni 1.354704653383229 -0.0019062960920635712 5.453671887659043 -0.023302679281682448 0.2165444788910851 0.042148351233275795
Ni 7.854005861104406 4.81968756148401 7.236660870764101 -0.9628125707709548 -0.7853630009988023 -0.8576089429484068
Ni 6.8612524642325665 7.034703735446675 8.209359995054974 0.9134268212489752 -0.6187449746245149 -0.4923598276283456
Ni 5.998500356960869 7.343970357995 4.09229472679786 0.6866686350496819 0.5507380104569224 -0.5882797161561223
Ni 1.572878026687964 8.458272510633169 2.6856677694261015 -1.4900059611387177 -0.4795814449167547 0.37335040427095706
Ni 4.215543412445592 3.1864921779730153 0.02211039619583768 0.2536994906748276 -0.4811145937318295 -1.9964433499060519
Ni 6.821543459131449 6.366322213894182 11.465300527939057 0.5584616043534253 0.1552738050060616 0.10091322797731009
Ni 6.5581862511186335 2.808785473780311 8.032964000515262 0.4087997462175024 0.1071916047868541 0.31943128565499823
Ni 7.9966529705540275 8.96244683643529 8.493703421686845 1.8886295381541665 1.3615433627882294 -0.13814897240031693
Ni 2.7888273169686912 3.287451428246713 4.673200532817799 -0.1341773893470786 0.9841360148390792 -0.2671453317670883
Ni 4.035392306721068 6.646122756957176 5.224868298726741 -1.2440568038332704 -0.07366261979147314 0.7199780478350891
Ni 4.138396372872065 1.3943194273379262 4.551033620730961 0.8270698938192852 -0.5222021078007588 -0.018691148651600067
Ni 9.125768259409318 1.8636753445380965 3.955205370364052 -2.4961768442906496 0.1411805601377891 1.1157394728113945
Ni -0.04074177846587275 6.791408338506539 2.462959993355667 0.7439839238313832 -2.0693989163281716 -0.03461399052944362
Ni 3.0867013939149173 7.641147124457723 10.591721261943775 -2.340120138371976 1.9445042378345996 -2.0922467674606224
Ni 4.6112294193751096 7.100590153023088 8.424386048069303 -2.179405621966317 -1.0216532950582469 -1.5889476672119536
Ni 3.2843512235295167 2.8139681868333755 2.0176405569841465 -0.4482677224051377 -0.39288667453167175 1.7925222162059324
P 0.49643794868109303 8.634088983622403 7.367116354489987 -0.22574311467121766 0.7222334195281691 0.04775078502171776
P 5.245103495108834 7.356305215061294 10.345718604167011 1.297567631267217 -0.07302395776620972 1.2782041391389405
P 4.549545710928999 4.942744015593045 12.334672373246715 1.794055107910691 -1.2273271497834153 2.0548865816446096
P 5.759445361609604 5.1180704866208995 8.051472882294952 0.31357971197022766 -0.47290968932353394 -0.41405739507201594
P 1.2833905217730606 2.486317067618633 6.135629290476172 -0.26163134392739457 -0.6293350914355355 0.8585396822927923
P 5.107921792151535 6.626155177030914 2.163459486822243 -0.947113157757827 -0.2659268859789549 1.098203006589528
P 4.097349285491794 2.3035274897943663 8.381549511218529 -0.09984107795905385 -0.26894458975935615 -1.2861946135435849
P 4.837271093405861 3.646707673970508 4.006138247315178 0.10831749086118118 0.47581117924104505 -0.42567621025786684
