# total energy = -340868.2680417657 ev
CRYSTAL
PRIMVEC
9.27480175080099 0.00000000000000 0.00000000000000

0.00000000000000 9.27480175080099 0.00000000000000

0.00000000000000 0.00000000000000 13.57460987362597

PRIMCOORD
 96 1
Ni 4.653696634726889 9.414109136854067 4.956741502746799 -0.2927002974180572 -2.003975139506723 -0.08424579462395813
Ni 5.259693622750545 0.2669399202869148 13.53871822100241 0.10049130994854305 -0.732656414633706 -0.3889485158195301
Ni 3.06622159003423 8.212094847346188 9.15022340873949 1.2956300479248717 3.3236938529496824 0.1428422641109282
Ni 6.122407844719328 3.7894335208881373 2.728334074781339 -1.4880902321732437 1.7832611026189804 -0.3089172734975518
Ni 3.072454256720567 6.589718724170366 6.8836436797607 0.45225138964323397 -0.9342267887134621 0.30223677615358274
Ni 5.683199614166507 7.440097459989107 5.991112825554957 -1.4151572914589432 -0.5264367147073966 0.17797536036863543
Ni 3.498278948540673 1.634396266070902 6.305202127339884 0.6649656961549516 0.8761697366697297 -0.917408945825175
Ni 3.43977349994333 6.107549612529579 9.517960018035 -0.4402661922568999 -3.117815081302559 -0.5114343277612934
Ni 5.209377823980635 0.49202544331872006 9.444114047563843 0.35827011289906685 -0.7403442701962669 0.20107286561804724
Ni 6.895601681484949 5.02876033729949 5.438097214285813 -0.273489014596929 2.1315874740417744 -0.11464317596889288
Ni 3.893496795026088 3.245262360440558 1.9226533903933485 0.12532148161834544 -0.9643732303898552 -1.488123142293708
Ni 2.7504887934028472 0.9504538452615656 3.9417545153172795 1.0661356937413382 0.6076185256940503 1.1980710811317754
Ni 0.8224810600362511 6.920161356165634 6.547265174730826 -0.7638408106563104 0.43002343148296907 -0.019335467103818314
Ni 3.2879728218848774 8.32205689531228 13.765061407133423 -0.5408078958274041 -0.30872804030488116 -0.1690479759720185
Ni 7.949757083621417 7.344808148180435 5.267939848867839 0.5217819895442046 0.8593968880867651 -0.7482771518900985
Ni 8.80998565875696 0.729006826903942 11.17483562078399 -0.1020789661506371 0.13664924792633887 -0.1775783820405329
Ni 0.8171183697415485 6.792122719848841 2.722944487561948 -0.06777299377991555 2.1273297272066847 -0.845430398604344
Ni 3.261836430929374 7.40447294697985 4.612882870213158 -0.19816237683947163 -0.3890397899817558 -1.282593269345572
Ni 6.135077223727567 1.5782466170841682 7.427130359848976 -1.0752445980211418 -0.09393808221105757 0.2032079096831791
Ni 5.169236482584107 3.62351659476926 6.147927461367329 -1.7653459129014564 -0.8128061848114195 -0.5000319994616228
Ni 4.765291047777497 4.404195196439455 12.179153803913966 0.7753868636226969 -0.3833995609768429 0.6452664179538112
Ni 8.661579558090173 7.6853232147313015 10.392585867719946 -1.2482428168901598 -0.12768561097514783 -3.221303011985581
Ni 6.255204454265422 1.6121181925878934 5.0002078605228695 -0.5528684265363639 1.4881380546920435 -1.8955470912096064
Ni 1.9156824494983322 6.654169320603933 12.832133227006533 -2.546791324013408 -1.5759355712230019 0.4545736100185075
P 8.953068023295835 0.897467831106245 1.124772814164896 -0.2504647857876138 -0.8756596298025306 0.9890576205104128
P 4.809392729464302 8.731437363866203 7.565170942229082 -0.7901678785866133 0.7193926076452642 -1.2391251708596078
P 4.106121622086027 3.566726984470983 8.175078186614284 -0.591263995595427 -0.05830182106468668 -1.1521293242943385
P 3.3438627764263473 1.3674211015378444 0.6124170057026477 0.008917871314920126 -0.04568747473478583 -0.46766181066103335
P 4.35900836296351 2.5971763226808937 3.8467184055927395 0.3273752230924233 -0.8916688607465935 1.8505946948686323
P 3.1450203045686353 7.369497670083752 2.3075344704770924 -0.13721000552581533 -0.33897141257045493 0.19825519366359404
P 5.437380272120853 4.846120943865931 0.8376026965919119 -0.26788246704342894 -0.3008296113934109 0.4877711798163986
P 7.424914609742777 3.035930087954502 5.928846444902093 1.7267017181666973 -0.5340764906408414 0.19852078862015488
Ni 7.20446185011845 8.622727414118348 7.283212335684449 0.5065314911430373 0.7275427475562245 0.8954396406429352
Ni 8.462236246945167 4.460270647013256 11.730566893966467 0.2515855296556183 0.4706638307121508 0.32218673691294836
Ni 6.793170772431514 3.954914531331035 7.731799245631949 0.7128931159638496 0.38561302368839395 2.327220913811805
Ni 6.214617922391299 0.8443408399663523 11.460689644007582 1.6502877608823323 0.6649548975216742 0.15282971434094322
Ni 1.4964706912308428 2.4587128093470727 1.5675147441336315 0.29541949612143314 -0.7943091544484966 -2.1095716318923152
Ni 3.5677008386407234 7.169199054372239 11.505540729665006 0.8864425793506476 0.2648531932988019 -0.7860505139841302
Ni 6.937727830427423 5.978453648828497 13.141036987207634 0.3745205133196582 0.03282475983950476 1.6775427399435432
Ni 0.9263152465742723 9.432658740087215 8.516167363385216 -0.3285072798143375 -0.43033710606864595 1.484676064285372
Ni 5.949933633857534 6.549113642693009 3.708610117160834 0.6377780799965662 0.6182317824335224 -0.34346775777891175
Ni 2.4482972071316613 8.779443737033585 6.5005684035517035 0.5163518196675687 0.7335670993734333 0.16628995361090718
Ni 0.9012167059196637 8.528820047750544 4.576855830813742 0.7486075386463236 -0.751819360715402 0.2209554634745872
Ni 4.9717203073575655 5.621679855043777 7.661903413169292 0.88852311602876 -2.0565166610488648 -1.0888524186125634
Ni 3.406810854998029 5.8106168387749895 0.6659511606335078 2.004118607063123 -0.10452459947765223 0.026695764123631446
Ni 5.56067021000996 2.489857593175526 0.08946102647281788 1.3046214527902047 2.089268144448273 1.5208113765553486
Ni 2.836512578396563 3.5789882722080923 13.422628311608248 -1.2325567736134708 -0.36087258351892043 -1.0379042096994706
Ni 1.6897019081105278 0.7604363471420235 12.488980406875914 1.3249475659420666 1.4004508384867043 2.02005250468456
Ni 2.933944369378664 3.772451359128192 5.233093491714213 0.21676507954232346 0.21408290472447003 -1.1940655595168082
Ni 7.98128213431615 6.3139232232999465 7.340374793007713 -1.0320829750320033 -0.4099557141988165 0.9401961189230195
Ni 2.268097086523262 3.9927928211331203 9.349132659168841 0.18723570262463884 -0.7232412919673932 1.1155474114052464
Ni 1.3406725736756473 5.450754536051951 4.450897532499547 -0.2545245576792842 -0.9309074945322421 0.5417828581461637
Ni 1.8342033172967371 3.0369410413307087 7.273113004204163 1.2351438176143565 -1.5254866705438308 2.6148674508560386
Ni 6.871134754820428 1.8468263222968933 2.1040100787633347 1.430574397344962 -0.375365892039089 -0.17349521311009478
Ni 3.87776673148438 5.104776611348923 3.21101979287217 -0.6976721852490372 1.638719339318442 -0.5525611797085903
Ni 6.136570466787835 5.9402414661682155 11.127175197716905 -0.17138819406942096 0.8136466784348438 -2.081073267342306
P 3.1843176390180563 0.7815161162561708 10.705439765929546 -1.165765169910218 -1.4260582546421634 -1.254469514526162
P 4.504567099534009 5.573478711042447 5.146515073583825 0.49115475157665084 0.3121409226411721 1.870659069718675
P 5.322456205289894 7.6939395054330975 12.416342943055398 1.767470415443627 0.26890525188098846 1.0142186931570727
P 7.365778474635507 -0.11529042149481242 9.406688368080648 -0.1894219116426802 1.1660991562108691 0.46284793421215775
P 8.210935497144117 6.055332479428271 3.6358641381614043 -0.1524569043825568 -1.112831040915348 -1.3182279878300458
P 8.893996811799878 6.857751216087713 12.200397737016727 0.5403479254718501 -1.7361363812170356 2.382587820617884
P 6.74126898258517 3.1914406866595844 11.83920450026171 -1.8330733981554173 -0.08226578807945187 -0.3915921240899643
P 1.1633198171635357 4.804866626275414 6.546477744073578 -0.5522359351586876 1.5129661694793168 0.39370428533696067
Ni 8.04634486765641 3.738097493940405 3.844193804592708 1.2785460958593917 -0.850271271636413 1.8796453323776852
Ni 8.149480661632705 2.4544927746115324 13.369579228801935 0.005058645469829998 -1.0263393876800067 -0.029324202885414014
Ni 8.290216501362584 0.5091077729361245 5.1775327926301316 0.2628122516093732 0.36241113165063393 0.41395480805588064
Ni 4.265351416239355 1.9714425568171698 11.954357654692597 -1.550716648755213 0.35991484759134146 -0.31267391232650665
Ni 1.1942049065467244 2.83286758136125 11.567821022520295 0.16521086161411544 1.5104575441248504 0.21805551621897287
Ni 0.5568683638606678 2.8878671549475285 5.51385750381063 -1.9006928970766042 -0.1947376674286388 -2.5560053864125076
Ni 8.531797259069466 4.319618280497925 1.7319848012003227 -0.4771283553905718 0.588153217880587 -0.7995991992028423
Ni 7.546739128976466 8.541693472394348 12.678305077314699 -0.9022090981562849 -0.5341271413731188 0.3902934598831988
Ni 0.6342786405930723 1.2789858681238193 3.375285804303297 -2.6819416187967167 0.07537111784214762 0.17178003019120094
Ni 5.453805945783803 7.238769341298154 9.094323251916242 0.3639190836547281 2.7687924551436898 0.8522039698827517
Ni 4.525722922021412 0.31005476308171676 2.2347198579457 -0.26959636441074214 0.007764988657399531 0.8532653212677305
Ni 6.83050184893822 8.962268626499474 1.5272927119630386 1.5254601881812697 -0.9605553993056619 0.7432254483988039
Ni 7.444549364765063 2.586705071655782 9.852900001334143 1.971887772053875 -0.4694425567105399 -0.10569342297477283
Ni 8.013985084816188 6.910645409707029 1.3741035961025851 -0.30497525813066834 -0.7415714577351487 1.3723828766058945
Ni 9.2060567869911 4.55111732884759 8.541320625369362 -0.0340239223539285 -0.6504610747808733 0.22609792690747516
Ni 3.255279146186457 1.3020615745458535 8.511769252458636 -0.6231662436206623 0.7932205493700081 1.0201265740010754
Ni 1.7260405808442612 4.926366527452522 1.7306000733189686 -1.3261048194749614 -1.4446118492746347 0.752471392477104
Ni 0.3343547433171384 8.192024176647925 0.3028714292296808 0.7060529531135648 0.7838182822195017 0.06408268941252189
Ni 1.3614574040983878 8.287202190837199 11.309237698489913 0.9531189976322748 -0.6755149324257076 -1.6359991121738018
Ni 5.324895478115054 2.9099133583901233 9.767922413962777 -2.048455995527917 0.2542175679618267 0.5978953848690155
Ni 1.9397783840981893 9.2059454893717 2.0111730245020842 -0.2880316882977943 -0.3477650996026849 -0.7534687233933669
Ni 8.500105261945635 1.8098476882516161 7.685006943996176 0.0029061179032014465 0.6764186751868995 0.24376243406677375
Ni 1.027861339553485 5.7042719634393615 10.67704125085976 -0.12677364068383973 0.9642899266474296 -0.7432642720565393
Ni 5.239066463955286 7.152272541421993 1.4340484939108207 0.38565724666276807 -0.008591341213436816 -0.6285246797190982
P 6.608648594269791 9.033999942202051 3.7585243170207456 0.028244853778306198 -0.345333864453373 -0.012723361103939377
P 0.9255445105599351 3.3940023539655413 3.3210551117710323 -0.37586288628016556 1.7520512526750793 1.1443933891026614
P 0.848802019543924 0.9629099038326233 6.5694050536697475 0.7737084474790095 -0.4373209935856468 -1.6687169141217972
P 6.862741059357429 5.727421868274328 9.132821098466314 1.6569752002048366 -1.6527089687293148 -0.6393086577084797
P 0.41914683465617336 3.9030312910879252 13.565840523369754 1.5675290923268619 0.5532993434261955 -0.7294021693624664
P 2.8169241973823604 4.784693932759368 11.446640174518796 -0.350148512233197 -0.15166423327793235 0.037969537265237836
P 1.4918518400257894 7.00023071852151 8.685645813324857 -1.7597553061875564 -0.7890188525838346 0.0606392109486117
P 0.31183088759129046 2.174004224123127 9.763836863850676 0.39547963206982856 0.6092473195467248 -1.7649857013485604
