# total energy = -381170.6237205179 ev
CRYSTAL
PRIMVEC
9.28427598635154 0.00000000000000 0.00000000000000
0.00000000000000 9.28427598635154 0.00000000000000
0.00000000000000 0.00000000000000 13.58847637502164
PRIMCOORD
 96 1
Ni 7.94624471597802 4.917825294357471 10.205869450275143 0.8387229046771814 0.2621843882173872 -0.4590588994833707
Ni 1.68039825130535 2.6362516031561904 3.0698950678190764 0.10639739102033288 0.35389949463519693 0.4022043523881718
Ni 1.4074498210251973 7.373163495274161 11.533857938253682 1.1004249539415112 -1.6076483289452508 -2.065924841736642
Ni 3.539258855984798 7.670102494752039 10.27627211522342 0.45659423999296206 -0.027817279322584355 0.2631660354043661
Ni 8.872406953163873 6.554596732713862 0.710860805050281 1.248336662155547 1.1660377068453145 0.2151252299460553
Ni 0.28980310494019534 3.182362002064618 9.006265787753254 -0.2273207435709827 0.21298890032934287 -0.15314030360282657
Ni 4.104002796835886 5.020054457451956 8.004876775806762 0.1542800736342246 1.272668296922376 0.5396203032772061
Ni 2.674010753669793 7.148428310289591 3.2181454586442904 -0.062309399562183024 -0.05531239941905958 0.665120476565261
Ni 1.3233621332450909 5.032448965919047 2.500795873093897 -0.6917969574151828 1.0743105162426467 0.425948232972331
Ni 7.948296540975193 1.9033972766769272 4.77533022622795 -1.147423948398869 -0.03970863144353161 -1.2426509246246793
Ni 7.633429604531059 9.042856976345387 11.572503737125789 -0.34450751189733575 0.4314498795168505 0.19215756540628842
Ni 8.099565249929734 3.5131421875818565 6.474935787733089 0.7951491338512886 0.40433322580571657 0.7288938622674801
Ni 8.143999794891155 5.7077779182694 7.845102741603757 0.9515866201481483 -0.35445382447677015 -0.9002332053768368
Ni 7.313595580424083 2.3243092136537293 1.1971721106360982 -0.4798231286139155 0.7414714418221746 3.6970072333351167
Ni 1.6585337813128413 7.731193030866989 1.0111189332000576 1.3202223925522554 0.4181657608134347 0.0867626475085409
Ni 1.9540801393899225 1.351233529813036 0.5913851708483294 0.39587095397097627 -0.5095252836640386 -0.25261474225108105
Ni 0.8891096200762566 4.935131184831372 11.217382036777826 0.5170125931800192 -0.18003327133892866 -0.6922456149168272
Ni 6.143572549682717 6.685458603008727 11.567964654586794 -1.5849241478748577 -0.30409594084950853 0.09774819998576714
Ni 6.88864498338497 4.093075203977635 12.406985605614393 0.65656461657545 0.4122098003403159 -0.3901132255515927
Ni 4.553863106397249 2.8535222302324903 8.644594959111142 0.4059604769964944 -0.6581461021299568 -0.516336135938285
Ni 5.890733861230069 2.913387241914739 5.118547627881903 -1.543180231168852 -3.031622961585508 1.1261940924858151
Ni 8.314384828140632 3.8540050968408632 3.0531267369258837 -0.5230911952739314 -0.19275303289844223 0.3014027102880616
Ni 4.575244794037482 8.597397413610542 2.8092817266395804 0.486492313103975 0.18846674681826253 -1.1507501845586248
Ni 7.699385101272791 7.377684937688748 5.27739694819478 -0.558818730582528 -0.6952260377013898 -0.8444515796308425
P 5.206779816470781 5.394572867230217 13.594183618537986 1.7906741072535997 1.2704818307940184 -0.7216310100574798
Ni 9.07421926069133 5.236433794031746 4.777993885013873 -0.7007749925440769 0.31279989638140965 -0.25908723734930217
P 7.990029361619068 9.226444250074417 0.4978330921084086 0.1621849303035981 -0.1131748189534825 0.4980180543553875
Ni 3.8054854704371053 0.4015681479197358 4.667492431998657 -1.596631923230089 0.3525805187134573 1.1775940442243462
P 1.7433549268973674 8.49345994373108 4.664706220769462 1.3567492838336956 1.201387804209834 -0.5241242645241361
P 5.9570607290120146 8.52702260149028 10.32612774894434 -0.8992672419191416 0.37236695731176517 -0.5852488997495985
P 0.7963754860524037 4.803099495759837 6.776328454410715 -1.4972829544161053 -1.0810563196069123 0.04742091248612479
Ni 0.2782562508723894 7.8696494389342 3.0137066294349313 -0.4987024820169218 -0.6472209705770208 0.25261242825823593
Ni 5.1449465382754065 6.906480077591174 4.407178044506532 -0.07854771579791632 0.09276051696318863 -1.8812103628719603
Ni 1.6742984819698603 3.2216530581190965 12.578948037357174 -0.8915066241371162 -0.6306923767943784 0.9672073574045407
Ni 6.408685051014387 1.7792200851058857 12.73620696119034 0.27691938043471664 -0.3084755579744429 0.1793465296845492
Ni 6.817870947396481 8.445710912235763 7.258624310624234 -0.3318391724010478 -1.8303665407472156 0.13647467002168756
Ni 2.218672721265295 3.055650203144127 7.159469171315108 0.5375114844643194 -0.9586165304117362 -0.8997063863390892
Ni 4.111950137096433 1.8983094934260165 1.9129860769352127 -0.14875503005093735 -1.5357937088967937 0.5269774177022151
Ni 6.479672625350998 1.3138736031676626 6.945763706224848 -2.032050300476384 2.6611272531545267 -1.411575487644956
Ni 0.7065723979634276 6.34186611660416 9.333992374892345 0.10809663309962675 0.6403566393570198 -0.1913075587011673
Ni 4.005413069935483 2.2496729188470304 12.612253520671027 0.3428941446636288 -1.5419376170110024 1.153224614241046
Ni 0.5138011184099439 0.8943673055780644 9.4956000536064 -0.1473290962376882 -0.4817841089950282 0.7568502382710901
Ni 5.436435667738166 1.7552202316321555 10.753471832337626 -0.5035392412839328 -0.3693176289624801 -1.5337712791501261
Ni 7.990372879831265 2.1794002337628275 10.938506524695882 0.9191382698114559 -0.06241250079895058 0.8475273903426888
Ni 9.154017612956983 9.356414829872774 5.196165103713909 -0.14136079446939526 0.0611698866411011 0.3567778446242565
Ni 5.45353730413995 3.4534071557636823 0.6999155720676193 -1.530326000914003 -0.23250305910287053 -0.2506563329731296
Ni 3.290913757118721 2.915634036708024 4.741385984724931 0.4127677297263149 0.15186709331735782 0.4612818752766185
Ni 6.539695469725338 7.175556964777112 0.22158595856356858 0.07053641545766562 0.43554153308772087 0.8442931996761072
Ni 0.3083698000956173 8.515565804899726 12.832943546600083 -0.9768009146302468 2.1147668029400095 1.408852175176522
Ni 3.7790438523739778 4.424820954199425 12.34475031826799 -0.03876812190713324 1.150715217555631 -0.8177475879770948
Ni 7.755183600064714 7.373154210998157 9.398809619395827 -0.3323137980446212 0.6528966808055594 1.744800227539621
Ni 7.132821442324663 8.331105809226196 2.887673511090428 0.11615986972373543 0.010213450197892087 -0.3614497961786291
Ni 7.377313566648535 4.943672718756258 0.9859631873636662 -0.8284534044303732 -0.6598512577465216 1.387343611680785
Ni 2.7065892781724306 2.430790575158647 10.61670423407578 -0.2161719260430148 1.0972887223053747 0.6876309989629512
Ni 3.7510517602179636 6.2528670468172445 1.2518100749273564 0.11010723577175231 0.17029110435050027 1.213334692159065
Ni 6.08110794071898 0.005952149347005204 4.945783963119866 0.6202868651903382 0.2636910546699007 -0.3331923439948326
P 7.4742785452480085 6.165399882571204 3.1228897152573944 0.7855524913017891 -0.8197095967994722 0.327306574638017
Ni 5.980800622757596 0.39514250049645966 1.0659017321969988 -0.19073523113746507 0.057915127149229285 1.6709674007188706
P 2.5558033515701664 8.301386841733194 8.491139803157353 -0.5567235386163961 -0.5911608943586593 -0.5823402107432358
Ni 4.3177453990301675 4.963058287055349 5.7315781598090165 -0.1403837752681066 -0.0641816768842314 -1.0580351761213909
P 5.847014205521057 6.611527913178432 6.316196021877074 2.137629823581112 -1.1255307478702035 1.599037447347788
P 3.44335228484993 5.041798231856395 3.249180936474845 0.5268864006503055 -0.5132973491119612 0.03988140957597002
P 3.7621743228723274 5.196836356869092 10.283378300077885 -0.547224083766393 1.05996915991931 -0.517869798973992
Ni 7.069372700104363 0.8306697447608233 9.064410423091719 0.8201795944573551 -2.140050260097147 2.0400544017277835
Ni 4.056495156516707 7.550836685187808 6.611255883891477 -1.0524309425607357 1.2564142969573586 0.5037225609393324
Ni 2.0184851620387683 5.227325919270536 4.886484363846341 1.0547030264243644 -0.2298903040703718 0.5511655849126442
Ni 0.7066522427370733 7.2344749803068185 5.90888090711005 -0.30580598156207983 -1.0704320071238467 0.09763275745382541
Ni 5.7332261187999585 4.401025354797811 10.350274293978957 -0.9636198971635986 -0.9921398589801623 -0.17696594526751458
Ni 9.075519059332073 8.239980640234064 7.80583211095649 1.1978083143886922 0.6827777846357079 -0.22805607907511047
Ni 8.760392163159791 1.984049782335068 13.312494042398832 1.6781130106247162 -2.2499595209254797 -3.733126604765493
Ni 5.51356014851429 6.577686727139072 9.264201543732819 -0.34291677037144813 0.0010248417200885577 -1.177991793883397
Ni 4.9052543846462795 0.2525889414281053 8.358965136235335 -0.3853679975571234 -0.9672801196240053 0.25618214788736526
Ni 2.9067397002949362 1.1374259376867175 8.916418135139452 -1.0182373273981624 -0.7461271954266312 -1.1354762891186896
Ni 7.240946120682521 3.037583002037791 9.052900706127934 -1.2399913755146452 1.1229611873708143 -2.3208821160779705
Ni 1.927777785466875 0.3510496168920343 6.8145666735661905 -0.03974411266715736 -0.1632251986426544 -0.7469244945169459
Ni 3.3756699127712095 7.056430419352959 12.632894323086035 1.7389944194911209 0.4134375020998299 0.13062206789565245
Ni 0.3910054271084929 3.1843581214057606 1.2462850022765954 0.39187623098928637 2.1853322718633974 -0.09271603687849839
Ni 2.2406764553978835 4.344799779309645 8.930822689361694 -0.6289337422320588 0.7853141500387378 2.793161370906357
Ni 8.337437685461818 6.575644186417904 11.790027824937034 1.467670273755995 0.08905375753556276 0.7039904141575812
Ni 2.196344037472521 6.262364861170678 7.3387968192129005 0.7165122007736756 0.5477290484272695 0.7418411664567676
Ni 6.148929576937781 4.5649763847756075 7.347004119201596 0.414151497447719 -0.4141337568359061 0.40432345561370364
Ni 8.614443344356294 1.4491455045650512 7.445330172663448 2.2276911964455826 -0.3642718390084565 -0.6236889488933517
Ni 2.8006389941062357 3.7334859100159146 1.2125431579904917 1.17395901857492 0.014960735074890364 -0.321730108991504
Ni 5.149291579445892 8.976000904831139 12.772556758606337 -0.16594465445634649 -0.5862138347660291 -3.1973375023089194
Ni 0.7963624880659963 2.4669249773713195 5.386852063304199 0.4447445397432276 0.19815697752283293 -0.4048032234635996
Ni 6.736986334838207 4.826848673781424 5.095039841036455 0.5061460827791605 3.25277202912814 -1.598227806962299
Ni 2.0149385686047396 0.35762659801419694 2.7765880771144764 1.4780508456593706 -1.0035437299417298 0.4886798076735971
Ni 9.22040018639496 1.1689089176207286 2.4213438243232424 -1.78371207411347 -0.6606902087080492 -0.08799137770931943
P 3.778533217193686 8.734878972697194 0.7621165075928042 -1.4923461792361203 0.2948086020103116 0.3171563735778925
Ni 5.209444403684306 3.6826359303348233 3.1081871357753834 -0.32211114648000655 0.5990127863029103 -0.5482975193362299
P 3.9594001980531592 1.6763874440710556 6.5361247371736955 0.41044396668914473 0.043556801545028216 0.3200336951256875
Ni 2.9292262167798 0.2030369035325567 11.92227119550149 -0.45638392375436887 -0.43585495056308166 0.09234888334706676
P 1.0500423319247256 1.2059160417779005 11.707749642550365 -0.7477212793866285 0.39757276715343143 -0.29002557879937146
P 9.086548779226383 4.688058031778022 13.09794556504729 -0.24469368763179147 -0.18583805094616385 -0.06573462319364808
P 6.379309601733581 1.3187385637944458 3.0909025991362946 -0.25392831885618206 0.42437806027173364 0.835207178214439
Ni 1.9182242654574095 5.497619046613169 13.477363287273555 -1.9961810973836005 0.05543992613585936 0.04421526106463353
