# total energy = -340857.1420433792 ev
CRYSTAL
PRIMVEC
9.37015302026874 0.00000000000000 0.00000000000000

0.00000000000000 9.37015302026874 0.00000000000000

0.00000000000000 0.00000000000000 13.71416609474863

PRIMCOORD
 96 1
Ni 8.18510974955885 7.347399331107209 3.5559327716113467 0.15985525372915696 0.3003508719847795 0.2987292772209565
Ni 5.814770255761665 7.590938977714406 13.783971065877925 -1.5092509254112587 -0.3948695092896554 -1.8746046846299846
Ni 1.3046813633293362 1.4077249358636494 5.716805306153022 1.447120474629101 -0.10442329801309756 -2.366294225664183
Ni 0.3311843097023086 6.694693213475565 10.106681694710252 -0.3671702436021741 0.7286910022280547 -1.2819106414562504
Ni 9.165902404311202 5.178892932916929 4.10201685527821 -2.4121711907019554 -1.6962943095194336 0.07828854859925871
Ni 6.974720235862393 3.4990400136449384 3.726700998979365 0.8752865627338281 0.47176709107865844 0.3662238205285048
Ni 0.9731653502108489 2.3081497883402187 9.88297678797217 0.4944735315372387 -0.30015058304851533 -0.7335850970955623
Ni 3.4023306645382148 6.994435037773114 9.597077490700622 -1.8934287593150232 1.640980624548793 -0.5976408456560481
Ni 0.35244612387322893 5.772904412160382 12.200245609211397 1.811834029160667 -0.46287647345724797 1.3978080015472183
Ni 0.6556455346275536 7.239070992281239 5.988482585202092 -0.5795145683689825 -0.36018661319548934 -1.853873879840536
Ni 6.9025044666960795 2.0737273006014307 6.507961056442483 0.8159339318071238 -0.1524921284958664 -0.30949808570168635
Ni 7.320525732304953 0.33239118540863033 13.264643454100826 2.113872573260514 -2.108901088187852 -0.30994880008585973
Ni 3.566729998912546 5.226905596885813 13.675642727051954 -0.6949108204538161 1.255111518985535 -0.8742722625367007
Ni 3.2017250589742323 8.315664091299377 4.068911167716059 -0.8296656795709196 0.8231160513778598 0.1991458237986635
Ni 1.659529057416309 3.4227201174648916 1.858721643907983 3.1217645528686107 2.0180403593505374 2.116358830017478
Ni 4.8675883398181305 1.5220782830682287 9.913833638814467 0.17786660270491306 -0.08346340793197883 0.44493300160494986
Ni 1.3960684655324058 0.7727968095177513 7.84049801060841 -0.08495001977983434 0.6455086158716045 1.7546928040629846
Ni 5.282451863866208 6.338468106897681 10.499565650867657 3.434050485728079 -0.783282978541322 -0.07110231526346465
Ni 1.0956613603718999 0.043530919789275174 13.306841938133587 -2.2447784909451727 1.829877774036255 0.6283745272944791
Ni 1.1299748606556732 3.780425708216679 7.347652325238194 -0.34040274570034273 -1.2497106596849379 0.2597133009690753
Ni 8.309254906647793 0.6428290393549853 4.892227157130031 0.3274490137531522 -0.8646787053109947 0.38553743325545214
Ni 7.762422147756278 5.695703721598392 11.072406206424285 -2.743727541755262 -2.017127874838597 -0.17304244184339232
Ni 4.92861614630317 1.0386439793706 1.0316538452330535 1.2868368751132742 -0.3396620108795763 0.9565005125099979
Ni 3.7801071230146994 4.496661463184201 10.30210935372677 -0.8460662324161299 -0.3476990222514399 0.5883488788311609
P 7.9097396932127175 5.100773967360998 2.192524911373622 1.571182629919049 -0.3484112178271161 0.10948245770355984
P 8.13914914909683 7.478150446060724 12.005147779580456 0.711096429074743 1.7018329799494754 0.20482873311605365
P 8.934553326756216 0.08497885456678551 1.2061626376784291 -0.441898071433368 0.42641334553420757 0.7293569179468278
P 5.440788709249934 2.3966040326544786 2.7094256535238785 -0.3642394431086243 0.5116153334238479 -0.9209889498669495
P 6.496758101516409 8.97299906451272 5.682712004464735 0.3953899005694997 -0.04077898168957493 0.5069796344240494
P 8.626228442311222 1.7148972914897163 11.764491329051173 0.47419318402164784 -0.3126212047117003 -0.4770082848729398
P 1.6113196202344375 5.4747648840257295 1.0212857709392262 -0.07929205016310861 0.29670993279808255 -0.417482618703481
P 3.053545459441848 2.8589367517974766 8.560615819963582 -0.21780406232979907 -0.7674568101423428 0.23320548448653386
Ni 9.010123610696311 9.200028501534987 10.348792392985041 1.3088594021309523 0.8336778860541062 1.2998859949877484
Ni 3.422307830732918 9.283835149961549 13.422780715225663 -1.0118507071455283 -0.5486201927829714 -0.0412975731972063
Ni 2.967152648787454 8.474722438464054 7.794062343389324 1.328883410661363 0.9056078394251886 -1.1505455247469862
Ni 5.524398584463508 3.9465585208958984 7.579215979296866 -0.45463223117058477 -0.14525858686190468 -0.07915938123998625
Ni 6.885994257111151 0.4657106592992789 10.493613729682444 -0.9061853091952135 0.9055998690053888 0.5803406638147037
Ni 7.5282526541484724 0.3471332471225737 8.22143689572219 2.0608106604385283 0.062103197088647887 -1.552633920382584
Ni 6.360300563386264 6.251897263336299 5.169211690837957 1.081107227449506 -0.8813014014693403 0.5030180786731402
Ni 1.8369529044597956 6.358970001660351 8.00927882852526 -1.6587939985811304 -0.19142788632911548 -0.6610259947809132
Ni 4.374184193329149 4.490758266794584 2.0393510202925618 -0.23367239682062338 -0.09638011599364692 0.11323729676030177
Ni 3.633782813776195 3.5652307744326435 3.933799183556626 -0.884845924287489 0.3217347369771943 -0.8284328356050829
Ni 4.849035436879334 3.331417346638816 0.1674062164718366 1.1874210576170972 -0.515230561578932 0.44269768451652786
Ni 1.6242504313735984 8.139036707260837 11.408224993800092 0.39072591943492707 0.26466087478233774 0.8994289643079866
Ni 3.999837210850441 2.542038177358041 12.012169772238202 -0.6059051425473694 -0.22560273243861148 -1.2714984449839908
Ni 2.8839456901528537 1.224135528146563 3.061166204876254 0.2591574284656053 0.8053697831380324 0.3964000870015689
Ni 5.797688466843773 3.5485706423997243 10.090362636246512 1.4832691566355163 1.4082708487517552 0.22187951795075336
Ni 3.6345417961691457 7.093093378703712 11.792167012950177 -0.15346940480747118 0.4099045492459069 3.6260445289733094
Ni 6.042727337930873 5.7498257253228795 2.7831115996957974 -0.30641019080498194 1.1012474498428066 0.735775676988978
Ni 3.7957177979116867 5.929470298627223 4.401603135035969 0.8934871449022549 -0.21894126125803584 -0.036782201825356006
Ni 5.137935994156587 2.2145794404882904 4.873630214472138 1.1816856977952166 -0.976735865720266 0.6406947394227288
Ni 5.356223078430421 0.34757739237474483 12.266635954257987 -1.8380911630849828 -0.46664416802979636 -0.45831559355944296
Ni 6.808137655839204 8.301309016904309 1.7836367338932555 1.0724117565580369 0.5822538216770167 0.08800140501164844
Ni 2.8772272904522893 0.59375286302067 10.202777298795516 -0.4016921886384437 -0.8196769437893239 -0.5100652153279087
Ni 4.885344779751978 1.4309254346901439 7.689573893262505 -1.399658424492396 0.7429032891726948 -1.941676281467501
Ni 0.9971154612772947 6.552810356758772 3.0114659763521785 1.6573750067464168 0.9227182738532302 -1.5344569923632412
P 0.8568873735801945 8.444194479992035 4.04747600571465 -0.6411374833871023 0.7832552106271801 -0.02234751445726474
P 4.726173990751307 8.526998522047663 10.49829037304444 0.8795113994484531 1.116449611504542 -0.03442655710898587
P 3.7074696969634133 5.352971635339633 8.371593597537446 0.9228411725843396 -1.467922241865801 -1.3590715042089692
P 9.09243103464297 1.9426576004459364 7.249390341779469 -0.3991323983310674 -0.38594572443746433 0.14303432551707626
P 6.9175904130251 2.233741403372047 8.714008972624827 -1.1967233088546292 1.7388290975578506 0.700607099507645
P 5.588771535569331 4.351939450108592 5.4136949118521915 -0.9515169432524775 -0.9441892992428125 0.12208986205492521
P 4.492932142290442 8.56013138305351 2.2625630569828767 -0.043684585372144126 0.3825796361787088 -1.0842187764952942
P 2.1582835612679436 3.8805551631681814 11.574152600128624 -1.1949903853239225 -0.17779872558145507 0.2151511980879843
Ni 8.621159189538552 4.227072791238695 13.740634108255735 0.26072194473924776 0.6109589029211929 0.5502207045008718
Ni 1.3505482622613598 4.698878735064078 9.466107114166922 0.07884005022735455 -1.4513900485387328 1.9832841868162745
Ni 1.8903627765563298 8.737798854074983 1.7767384272551032 -0.8933092245634938 0.693878779644876 0.9801353783201184
Ni 9.171993003760807 2.025667785867549 2.9376844546196663 1.449971313814335 0.7299279599589493 0.7633551292691434
Ni 1.765411786309438 1.6784848769340792 11.974497072104146 -0.549489482761802 1.0386284894600046 0.7143897551140341
Ni 5.55704419751339 6.408941027606108 8.005013534879936 -0.8347911737229429 -0.8921478572655409 0.43439276419525835
Ni 5.866502870471308 7.906019742471959 3.7673637149355264 -0.7937311704578395 1.54064538056214 0.9976713303213529
Ni 8.261242242678907 3.3740609129390493 10.162416301765937 -0.38525872567276875 0.37760532289256904 -0.0597750631761035
Ni 7.248047598854657 0.9509674577552893 2.7628420847275126 -1.384700517630983 0.14626363108765134 -0.10932484907977301
Ni 3.2377064464918974 6.809383886188122 2.134376552905295 0.7879780700241461 -1.2526825978290683 -0.9687160807395832
Ni 3.3083761404133116 3.468399613336927 6.209527305503649 0.7669729285273887 -0.8261720645953642 1.6139429037047108
Ni 1.5663428858373563 7.379360922988135 13.602326901923512 1.7494415829663743 -3.2265403491251208 0.7173015294441905
Ni 7.58901809634953 6.739829240473636 7.143572266942036 0.5998010865321606 -1.1402731962867008 -0.6220969218158835
Ni 7.161420534375278 2.2373489122768127 0.5784167336065651 0.08985388483935493 1.8146609570865007 1.660085463699044
Ni 4.657528249877761 7.670744570810227 5.888081395813607 0.6580833672128215 1.223047548571455 1.027567860770469
Ni 5.615944979267567 8.656119230379282 8.02650398078404 -1.1882240131343664 -0.6255717677383613 0.009507425269802982
Ni 0.37457936227309263 2.3486475896035905 0.6929902794066302 -2.104132977375247 -3.0320297101056233 -3.165191513703994
Ni 6.507262043028727 2.395320321693562 12.041696061354585 0.638935590639777 1.074283519659453 0.2335574685093139
Ni 6.600251441394693 5.309006877466485 0.503340256729537 -1.1535529441147423 -0.14421394764747422 -1.4698940208801912
Ni 9.196814539056195 7.982780035842978 7.9834275134152355 1.2990362453929434 1.2553943403332766 0.964230534164404
Ni 9.067075400626615 3.063899478506176 5.394248096317255 -0.8978338519067247 0.005476963954171212 -0.9621466550521816
Ni 7.388459341550545 7.778641882598225 9.5450187946666 -1.0638864926958453 -2.215538363133133 0.05664140264312826
Ni 8.590256424946558 7.270845181102177 0.4502770802939804 -0.3672504620208062 -0.08488239976669253 -0.1588306691193845
Ni 1.7577657414619343 5.013800207220641 5.307148776126706 -0.032895208066124 0.7594701923924404 0.3891068957742654
P 5.795486480888917 4.8714956936188765 12.0275846109375 -0.23897786819393677 -0.8403223879538172 0.6647304402156938
P 8.99366962202938 4.982157200541695 6.314687595600525 -0.39146948246917096 2.307389738018491 0.08486285938266676
P 8.298160645496512 5.411057213782864 8.978294137972677 0.328658203569905 0.11688312104300516 -0.24659707530209146
P 2.8678758777588964 1.8043260317159129 0.900088463983891 -0.6455335555722689 -0.3340433791412183 -1.256282656475501
P 1.5236337284661277 3.2437783056355034 4.050725574774838 -0.8483228896607905 -1.1498942643162327 0.1483300266983768
P 2.7564460182901276 6.914264008710316 6.236955617363469 0.21367589909403842 -0.2602133805339454 -1.920461080842467
P 1.4289670727132708 8.534785119190158 9.35565362464069 0.6803954004464605 -0.48030881000108244 -0.9402753089003871
P 3.570281286899316 0.9252417026954588 5.562219333014954 -0.8230952254422536 -0.8787102437033963 0.7266906839685743
