# total energy = -340876.5410292769 ev
CRYSTAL
PRIMVEC
9.17611698796251 0.00000000000000 0.00000000000000
0.00000000000000 9.17611698796251 0.00000000000000
0.00000000000000 0.00000000000000 13.43017474799933
PRIMCOORD
 96 1
Ni 7.990021246128825 8.210082882740242 12.818081058124484 0.1498912005379096 0.05021364473991353 0.429889477008266
Ni 0.6608841299455744 2.9808524139597226 12.563444730470279 2.4824666937934086 -0.043348027968331794 -1.0128968890218555
Ni 7.271063307252122 1.9677907508301413 6.608276968263533 -0.5560666217586874 -1.012921571612204 0.7120834755783607
Ni 6.466528901732183 6.525035823383187 7.271794643772759 -0.352220050050245 0.1807585795407274 0.17984789480099994
Ni 7.9640987157549095 5.785798666054677 0.6482339351231036 -1.050595946234526 0.024021816835894112 -0.46938727799257224
Ni 4.177592410007772 7.782283134576583 6.7093931889556995 0.36480997090011363 0.28294296092097726 -0.12379347500959324
Ni 5.369918693804547 2.938541338719324 11.180015717533607 -0.18768461723659932 -2.3134922513718026 0.6493992091752623
Ni 4.067304660427562 5.643917545827602 1.8993360007974156 -1.5650523486515948 -1.9805539323693053 -0.35757617215583576
Ni 6.957221755447281 2.4998403636232007 9.219331869278543 -1.0539162688570107 0.4963278111371582 -0.6746327869310704
Ni 6.470850852813994 5.72044636116157 3.25486961821667 -0.8010719270936268 -0.10556975291271496 -1.6928256342445427
Ni 1.2330131863376395 0.6839877571935198 7.6728873035635745 0.05729549128735938 0.3830141526129662 0.7237472850695342
Ni 1.0665308965769469 6.048556774818247 1.2456808157823087 1.027172425104263 -0.9385786379242546 -0.10200234727643077
Ni 6.752126365575637 8.456507503339008 3.4090751811146154 -0.7154415934173162 -0.728243630277991 0.07341322278482841
Ni 5.454962945664884 5.0080309936677345 5.3136617560288295 -1.6142504076428006 0.6076527213660954 0.5272566395055307
Ni 7.855673717914842 1.1646602912030202 4.069356440176803 0.9930019498701413 0.27296810909645247 -0.6300418876945729
Ni 4.290834869244763 -0.12739570201530068 4.320930697605955 0.19862311852597403 1.546243186364892 0.8129653360971031
Ni 0.156150899690607 2.8171413115168784 3.525380628188353 1.0169715733118616 0.7660280481156163 -0.21081966059216595
Ni 1.6224567656648485 0.2173739519577812 3.8971950516379104 0.47632539987330225 -0.7085412667530572 -2.3532633606221536
Ni 5.344298975289866 4.781848887052989 12.489189756915659 0.029656132303536017 -0.6668091771215935 0.9091829583709568
Ni 1.6911032965417567 4.9143153112929365 8.21479481879228 -0.7055531306590107 -1.2290009379414126 1.6455852132003401
Ni 1.1798100602817228 7.532362413421194 8.278306394625915 -0.22450949937443268 -0.40488678431634134 0.541003556777978
Ni 1.0277342741270648 6.237511374980964 4.3047339335836545 0.6001746678214954 0.07638978891464908 1.3724808356363394
Ni 4.29223881513758 5.84417712206843 10.831677471680024 -1.6993816901955054 1.0603103453088127 -2.011183998550336
Ni 2.2293651405076096 2.4393881051795345 1.8400812256152697 -0.6480087565856388 0.5561812929596809 -0.894597347247298
P 5.472048875419302 3.3968516757301574 7.388462547465885 1.2583642215948778 -0.6644450477647911 -0.03616770816980868
P 0.9440297353409193 0.5162217286720091 10.041338519076348 0.639929064901298 -0.07861327892852912 -0.3859860907570965
P 2.314767260928861 4.444911048893761 0.7013480528446389 0.18535262666931301 -1.357247820736669 1.3395745718266219
P 8.63688243415673 4.886052871097658 3.563912060858481 -0.07998624801665578 -1.114484260248055 -0.5399393771795217
P 3.1441047105552404 6.694307652695621 8.655170435231142 -0.9305107733144555 -0.4313565484720958 0.3942331612572372
P 3.1424254811540275 1.1718910713568769 -0.03497201690657288 -1.971161949631444 1.5685117679551053 1.5069873261880629
P 5.597541450779896 7.323486463367584 5.028861696748026 0.10973365448241748 -1.3321970484156282 -0.2490427086291066
P -0.04806633578925537 2.4278078455930276 7.413027012531717 0.6747983659746571 1.7777545709784544 2.0043844591299997
Ni 8.267461142006825 0.7154388980277133 8.952352746719576 0.9003267935319076 -1.5230505502985123 -0.9702389451420128
Ni 2.432313319013768 8.08619612784529 10.816729577174145 1.4975539486893048 0.8483180045647842 0.10050133725087207
Ni 3.1869663528124303 8.246796526643264 0.3528079324182324 0.2584475468827742 -0.4002253742849301 -0.11728164203300447
Ni 0.7371257328191162 4.022772964886106 5.6098108367490855 0.1576757295793349 0.4875379807596701 0.3690042114871193
Ni 4.883134865908666 3.7143453220797116 3.0897729221149017 0.06388111492467709 -0.6750590758352115 -0.15125234255149433
Ni 2.7295736274962485 2.1754095728620784 4.392137365110942 0.5303594468005705 1.0217702802520854 0.4466954928220113
Ni 8.078570774662733 8.297338578784691 7.146558999686669 1.6440086127418396 -0.6997982304531045 0.026859286284689227
Ni -0.15051125821527647 3.6767599470667705 1.1252837381621181 2.3351280844740234 0.984087678099647 1.9553576356093358
Ni 6.0894547280488815 0.19812612905076313 1.036335048541037 -0.6067818887253679 0.04813233673085259 0.8854308502566816
Ni 2.5998783905741503 2.8136727393110945 6.884347787493113 0.02183663625911723 -0.17720325808930126 -0.6547067374311046
Ni 2.460153657829507 5.980304816970039 6.464010057630364 -0.4087771205096831 0.1610695857522323 -1.5759278579135183
Ni 6.907936831327529 3.405890150922479 4.584591736277062 1.630898557722443 0.2738037176238704 -0.8109431634607518
Ni 2.2980850803200896 4.400590404042076 3.1464482908233817 -0.3274947793894231 0.4329992262818414 0.15674704711747844
Ni 1.5089390229194632 6.006337460747313 10.471534151374744 2.5447277566161595 -2.3482998459692914 -2.504393318663171
Ni 4.99791891279267 7.483967572645254 9.070968740040447 1.0971493685140332 0.13335592188704776 0.8789164461769314
Ni 2.7417595108012254 1.7222470374582417 10.66654040066369 -1.167374937599499 -0.9415451767517462 0.5595237270693525
Ni 6.590874462474461 9.202452402155423 5.708978967813505 -1.198450318848065 -1.2745747699164693 -0.5519993936678493
Ni 6.585699132516624 9.209334489865311 10.652304572832861 -0.5280462252863616 -0.06404823663016067 0.14184364764308474
Ni 5.138111627501586 2.113140443263001 5.626383821566193 -1.76548115292774 -0.11745004929006869 0.23636099939638003
Ni 4.512153633877852 0.6558565354705768 11.924263034714915 0.6044624965635719 -0.5400404215337603 -0.5290893218388952
Ni 4.8209942019468395 2.6899052739364473 0.3347318996452848 1.2396890137828778 -0.6854851562645421 0.19550308483975362
Ni 7.14409337706314 2.5859490450493343 1.9433327287208897 -1.3546502352128218 -0.3503621709058999 0.6265505867118629
Ni 7.69620198150129 6.031645191285812 5.218294372603658 0.909121509005402 0.6808746540757242 0.7438846792493576
Ni 1.7700362545157124 8.171332140875093 6.002106353223273 -0.09201052617104154 1.0716267987628962 -0.18289850870186564
P 1.9066044030307532 3.8126949435125015 10.681340559686731 -1.2759261417380412 0.5834995211586596 -1.4195975866184842
P 4.704806209170017 1.4056801789202857 9.70954664730073 1.6581172842290801 0.22461825703815508 0.20252065380816733
P 7.310694956344137 7.459384755345529 9.383421027739585 -0.7157514113482512 0.6023603626189045 -0.8752256275889055
P 0.2832704005858175 1.406001343013414 1.873710776612567 0.8364834738237014 -0.43872584435297346 2.0460080482080567
P 6.495864947610205 1.2037964299799233 12.737540444461498 0.5614317427253428 1.1088466023463033 -1.8740732376065468
P 3.1922059155888927 4.391882269059829 5.163553329347505 0.3282481126156799 -0.5327294896946437 -0.3512980524566079
P 2.4546846921293817 7.478801418804363 2.4992081291655857 -0.35475438643632445 0.46970635189488785 -0.5899522187625388
P 3.457395695343289 0.7629528315767883 6.3266867146906245 -0.7523304960238656 0.12809981569443102 -0.7916958851953656
Ni 7.540299754579933 3.552139102816097 12.869451713626182 -1.8376803007998093 -0.4666369689409447 -0.8083712889685175
Ni 3.019979376619679 5.953299504796433 12.728716690405726 -0.4131757637980111 0.707597157672233 0.583258351682131
Ni 5.898151041947855 0.32878577586394053 8.063450369158259 0.2854292176779407 0.16610123463886878 0.137331361595028
Ni 7.620544897277241 4.144310633842749 6.904090203103548 0.3102313643232851 1.7513192596050613 0.4864378057169557
Ni 5.498687142915047 4.3573617171070245 9.409368333629256 0.8390954575252516 1.8101795242763792 -0.8366102292095526
Ni 0.7207959151010912 8.240364068663755 1.2198060012165146 -0.1240410722440251 2.4172702024914177 -0.39671761824198776
Ni 3.1007475579829387 3.500963898605361 12.35037529497211 0.580339121152807 -0.3833324551843334 0.5035888635749456
Ni 9.196304403801255 7.703506170590718 10.580090367687147 -2.1829342039448663 1.528227980734394 -0.6573637154379777
Ni 4.124095648209567 1.3243155499555026 2.2072488634431098 1.0229028511946319 -1.3258875612578327 0.6777877876202844
Ni 3.437189885827055 0.38245780149582437 8.428845181192031 -0.6851015476728782 -0.9600643186018561 0.3819191197765745
Ni 3.4402914133549776 3.2743229861432903 9.083028910543257 0.41135156610507867 0.2110052942404108 -0.272107303758054
Ni 8.473446615222281 5.69948811005572 8.639403113481938 -0.2629588044895665 1.0789698693915288 0.3174589924199758
Ni 8.492184246027072 1.7706969349358617 11.042706138769287 -0.7463843057427597 -0.3055516994594286 0.6430976924372667
Ni 9.078244483167342 3.7253107818308018 9.664421256992833 0.18669808495361395 -0.4472315678311395 -0.018621471755929223
Ni 6.5879931617532534 6.3853844995741165 11.29132568654166 1.0628169137807502 1.1020846010321215 -0.5037626701486486
Ni 0.3894399088804306 1.5052043433222297 5.579445230549665 1.192335978420211 0.5340579786980802 -0.2056363166190136
Ni 8.627100693491741 6.9452010422473425 2.901736851258531 -0.6474441423314204 0.8557207247867584 -0.49368240309451106
Ni 8.447542437082259 1.4420267781454474 0.15638489067274325 -1.1521270103014931 -1.2572023400762928 -0.8630118591315331
Ni 4.72881093110211 7.661736486250164 2.3798938333450845 -0.07975279184961104 1.827108438821234 0.5539611453799106
Ni 5.3484741085005325 6.733544728758937 0.31761844154002705 1.5072164114797333 0.5061113728864832 -0.01909635450981873
Ni 9.191808106497461 5.085991283245359 11.826020773850402 -2.249512148975416 -0.4819322045371184 0.8068232277551073
Ni 3.2926201633346492 6.8754442012199055 4.34928122852392 1.3139823251798146 -0.9060670384497944 0.16781410356491744
Ni 1.0395531127541813 0.5169567356394253 12.274575063323695 1.0366649379757307 -0.7097278308619906 0.5118626735479637
Ni 4.402003526051839 5.182129460494038 7.483064642737716 -0.9357414255857756 0.7586489820427257 0.46594791329372015
P 1.027312172747525 6.932115899481606 12.30076370108906 -0.21259757842819516 1.5089277377438852 2.7299227746616856
P 4.682581653925548 7.686979983970038 11.991977272110057 -0.15581296533898328 -0.8427219985342455 -1.2466546464674337
P 0.17441320763756896 6.044354113256741 6.689368148943311 0.29225318257830957 0.16528516649547662 0.14659607472640557
P 9.101432530691197 8.674651331508601 4.8977698548266675 -2.0631189968567307 -1.6499643161046424 0.06363197502834847
P 7.138183957749581 4.229905452719877 10.858578176120439 0.8667075628155654 0.18888403686133923 -0.6778824042166196
P 7.151388390035622 7.5913556692703645 1.4354704425871596 0.2526869902499132 0.2560908737251396 -0.16576930522074676
P 6.140125245827559 4.527899850558079 1.0108878410249507 -0.39071666346354644 -0.3190574472553473 1.6561640171574508
P 5.869567437659449 1.6193644142538717 3.64323041574419 -1.402484323976965 -0.34935147025319835 -1.367327059349542
