# total energy = -340893.3709882878 ev
CRYSTAL
PRIMVEC
9.06484921907178 0.00000000000000 0.00000000000000
0.00000000000000 9.06484921907178 0.00000000000000
0.00000000000000 0.00000000000000 13.26732312111601
PRIMCOORD
 96 1
Ni 6.368536839563639 1.8579767694695792 11.36571703863749 1.4688681507188381 0.2538560708573499 1.233893490147023
Ni 4.719813043755104 0.5006924005233453 5.866531848909202 -0.026550753905334918 -0.8929464419074362 -0.057482667597501
Ni 2.762956901703014 1.7455817070703727 4.728115538928217 -0.12800879864252146 -0.42613026707615004 -0.19435817260203303
Ni 3.495151947688262 4.467075989577164 4.78622665974573 -0.728263684882649 -0.6109648164584639 0.3646323076716688
Ni 4.9435063218279485 4.598489105118844 2.658798161079428 -0.09830432959955328 -0.03672255223201418 -0.2386613653947825
Ni 7.091911787499493 6.031977126945063 2.6762316786216616 -0.202176125984555 0.25303511761795133 -1.0931366478102142
Ni 5.191828794556706 4.413584315795592 11.638374098430582 0.1355945814095794 -0.055063002412414845 -0.4967505004968736
Ni 5.531932863123188 7.8905884358426555 12.406260174271816 0.1904056157121882 0.21332571484347132 -0.31949479190308205
Ni 1.8623913509187615 6.710435748226503 0.44589901442944724 0.2999217548671609 -0.5487752303035968 -0.524298071097839
Ni 2.614782880412795 1.604994964369406 0.3700724592666825 -0.04518508117707057 -1.0484357053584137 -0.11022242119337791
Ni 0.3666024350803435 0.029795252084841607 4.823507664111341 0.770712340965163 -0.1309539973137745 0.01447479657740733
Ni 8.814495972728848 2.6949795992647814 1.4921493789763098 -2.3701465095307372 -0.2679791405222933 -0.3447831341562256
Ni 7.109261908431188 0.747726758213234 4.9217651880543976 -1.7359538328925843 0.5770730488070255 -0.915062042859553
Ni 0.9489899739906852 7.25594929449006 2.638379588770838 0.3493504418119338 1.5475793886778122 -0.19915405132877959
Ni 7.564063511035671 4.0009977148519775 3.9680442693854205 0.226787496775332 -0.9972797513098888 -0.3296532204933226
Ni 7.611037558406642 4.001369373659814 12.532113817939196 0.08953095428229742 -0.04336011215318984 0.36140865852804854
Ni 7.893380409325917 8.853855546963654 6.96695012497092 0.6771105590476016 0.38759328734321635 0.9488599652456045
Ni 6.840280644896093 0.5276775494269825 0.2840706111332661 0.7371869555142079 0.8953745917329546 0.2567737587247771
Ni 1.8921421852436422 6.326793210049296 9.16559751606771 0.6330379942084194 0.006127710164292672 -0.6423122204214937
Ni 0.10887971396800922 5.253179692396679 1.4990214409817004 -0.39257299994599487 -1.391590559882597 -0.9352439171240668
Ni 6.547105299455724 2.075369977507144 7.055336934868771 -0.5177196465493729 -0.33119613950041027 0.3297707199077934
Ni 3.2180667091725317 3.9687449822109278 0.36890853265872553 0.7057973854593328 1.6966257247169232 -1.0658431022015837
Ni 5.898524420384766 5.589993220786461 4.76319469147862 -0.7771868929459131 0.39643968199025276 0.9495580197538936
Ni 5.213321551468434 2.592818751354542 9.549394156677435 -1.345139210398593 0.07896911960605109 -1.3374575254836192
P 0.35909583364693903 5.5959760211077345 12.522190527769958 -0.7287583651308803 -0.7075159108123363 -0.16126704647501905
P 3.8849313886192616 5.907217610548556 12.671474086574303 0.07806589106549136 1.0052427149107075 0.779915861841302
P 2.3355674023887327 8.736547336421825 1.3851614989886791 0.748914271253465 -1.3741265987698785 -0.7018689969392041
P 6.394036259720827 7.93567699462753 5.6961661708515425 -1.9213421978958394 -0.40536140995991476 1.3816262495810334
P 4.82781165440307 1.0509060709786902 12.554641780603484 -0.8718669955293178 -1.309410646648732 0.5725728469438268
P 4.103629934908741 6.196195930915061 8.045424214642123 0.3987480184084552 0.1167100858002506 0.5968036944667334
P 4.952326419877342 1.174768167327005 3.7028566451449514 -0.25266976385873263 -0.1235715888067743 -0.27056155653748887
P 0.053964858897891335 5.622554158292546 3.6037361475797955 0.35937157349336174 -1.0276177401717979 0.6789931207822951
Ni 1.3301124841537812 1.1396962666557793 2.5164392404045084 -0.6108398608448254 0.4269399074616389 1.0071389034921558
Ni 1.6138785163616005 6.501246228508261 4.955291531975961 1.5023518842985806 0.607547820357115 -0.6792296622731334
Ni 6.1089739541100645 5.739209699708417 9.40565647247393 0.1631796901166996 -0.377707138577756 0.002465945041989301
Ni 8.609920461137165 2.495697959472528 10.334076491178198 0.9521453208650957 -0.7204940682395592 0.14460012734229938
Ni 2.5744261727911106 4.913682968711295 7.114429778829912 -0.44909201807864596 0.5974295009761904 -0.42624956626283367
Ni 0.5732964018766966 0.03638721025700894 9.309388682880147 -0.37588962575304297 -0.40947466079733996 -0.44063771666370566
Ni 1.479147666096305 0.8817596151077144 11.555877627394493 -0.3281462969304929 0.7495336500050188 -0.9604512696276297
Ni 4.069292287004217 7.152492173176878 1.5938832724999852 0.1927113810272294 -0.8635818727023902 -0.15063424935152123
Ni 5.806688435453211 7.777993946766073 8.085305924177694 -1.7443741957457954 1.6496159316262882 -0.08706629479188875
Ni 5.32315126160867 2.891260774047426 4.922136846862235 0.2137085521041868 0.48542607662298976 -0.056205857767606435
Ni 0.8325528954350302 7.540485838860468 7.054023438252782 -0.13118642503955474 -0.5040123242656094 -0.0293483712551301
Ni 5.154998313184984 4.326933424475807 7.575097245203935 0.4987235650628443 -0.28128305672005105 -0.9691626813586988
Ni 8.328175890250018 6.986650761240958 9.317654012172476 -0.6309880536579262 1.5158648311833505 -1.7534918417763476
Ni 4.484081646247937 0.18527463516129503 10.395305920041952 1.177551878132501 0.3690160385616612 -0.23569276968476183
Ni 8.011685753254625 7.050793632564192 4.749621893113402 1.386780025867831 0.6493678417166945 -0.1533526767239488
Ni 7.148467380233475 6.349981093718718 6.979089770713723 1.0710698978181619 -2.2665644764720128 0.12210220335009939
Ni 2.363178932356309 5.105767118420077 2.4605444751605576 0.9081722577182552 1.0768476808422034 0.44995925117494767
Ni 2.217796884549351 5.118639203959787 11.322850274335561 0.842037313762395 0.7744604951536856 0.8943363802764275
Ni 1.137711064730993 3.501424823176628 3.736224354209511 -1.160280749756879 -0.1926602160743198 0.633634747252154
Ni 3.6350769564143 2.6048206113929764 2.418818975344157 0.4268468335272004 -0.2066256771154764 0.8751518369281766
Ni 1.2604763143537407 3.1820248696613413 8.253760732072136 -0.9619386528064338 0.07586914052448869 -0.6309155485487778
Ni 3.660386014743083 2.4802061325800167 6.859245215429635 -0.560804393553989 1.2862475782687073 0.3072316582650128
Ni 3.9462732216102636 7.06715568495798 5.941372148503853 0.6649566972938871 -0.3137910566500854 -1.1761927930014453
Ni 0.7520951089326611 7.147017004398015 11.10172416149148 0.7114252731690714 1.6762345626550808 1.2222805884984433
P 0.19556595819878342 5.650464828276186 7.874567221770202 0.34051998800449745 -0.7026621822644609 0.5990050729934264
P 8.565711192702539 1.6825810067175635 8.153274161766957 0.2979952272684094 -0.13455405596020698 -0.7608313344060252
P 1.9164087859406882 3.247772219252554 10.305631901590129 0.016006402730585335 -0.73400830067591 0.03021868967522538
P 3.895501002520179 6.277262875268324 3.7366485891413834 -0.17803758106513853 0.47222217633820607 -0.22460360175013577
P 6.827644245429644 3.812902098690712 10.285213329281538 0.3446982877519031 1.0075081139061164 0.8177439884326692
P 6.473000159112671 7.818867350779141 10.222897025026088 -0.8186562158342933 0.3339220230720056 0.768208857817019
P 2.330128493005756 8.666902101772813 5.621842567648273 0.9318446616345307 -1.0528623736711997 -0.5039439329215192
P 6.738790595809754 4.025318704642853 1.585258975188379 1.398504770503927 0.5381393478563055 -0.21136576290362308
Ni 5.338869709725472 2.8830117614832456 0.43011348643025554 -0.02320934823692777 -0.2794945973610606 -0.20644158612912833
Ni 1.5082548961442 0.7877779804245746 7.121659902369683 -0.8934336659565001 2.190327925305776 -0.14842849994945403
Ni 6.9767066219190825 0.6927955864149671 9.245281164467901 -0.9406702303459606 -0.1943136925173428 -0.35427976079275114
Ni 2.604195136813934 1.3303934944719016 9.225711062023056 1.0432150803894227 0.4417062671375361 0.2448068161708881
Ni 6.644144507696994 1.9663107795294963 2.55179668381834 -0.3415106340525409 0.06515483943077811 -0.08557685473055583
Ni 4.163358224782793 6.774279479533675 10.657852953776986 0.17347978649112702 -0.19574811097102418 -0.7170521324375457
Ni 8.044872165339752 7.098184662987859 0.39256688198977546 0.6876142867924029 0.7293641170356794 0.6375371676303536
Ni 7.740438277476621 3.8777973524785914 8.314923081053498 0.22919019267955365 0.4146070969278988 -1.3760754949661334
Ni 3.0688230357036606 8.249737752098527 12.304354048617679 0.24771396251535402 0.5198500626288143 1.0026155617005057
Ni 8.996862604340045 4.950595033723761 10.18377132389475 0.43061247121721974 -1.3044566450775663 0.1717844010665751
Ni 8.729096030567147 2.424321338669935 5.80189313034722 0.4911524375838058 0.18753009393660605 0.5919013720691098
Ni 3.552559636225577 2.531014611065988 11.661353490573655 -0.25856144675281917 0.5120853310817309 -1.3246359482389187
Ni 0.9905432416766243 3.3717884180333866 12.381516762518862 -0.4803951990673017 -0.7494958547885479 0.7335300754879109
Ni 3.141867588717033 8.157303487134843 7.880656987309341 0.20558463744547176 1.0009600283749533 0.896812609731062
Ni 5.577248043132353 7.871262177835146 3.6745045170163926 -0.28453858754287126 0.3927306085697817 -0.3881951825932734
Ni 3.2482526562480505 8.861488149797765 3.416149975930736 -0.48904001922649326 -1.112212690605059 0.82843103583287
Ni 3.8045352430898998 4.616990461869936 9.521161684555302 -0.8884616666632054 -0.8248587451005793 0.15932174982319014
Ni 7.507199713436652 6.38569659866693 11.510517123140469 -1.019070107712103 -0.4483895926949826 0.04287545920728745
Ni 0.4588744392474345 8.990354042778417 0.27752216423616255 -0.1897885509534796 0.4259618598190858 0.15043396041525703
Ni 4.610282473630931 0.4415832398340555 1.4707626807975496 0.5275721138634204 0.3703267869532848 -0.24238175166916323
Ni 5.9982649536195805 5.793163680787543 0.22252572552530003 -0.5492282586806154 -0.7368725095975825 1.3104686555996012
Ni 8.176511902105721 9.04619351244364 11.221753639694592 -0.29536113207967196 -0.2837819118825048 1.30020532600038
Ni 0.05226610620060839 4.944974827361352 5.79066903435055 -0.6007845334913524 -0.8453082712041828 0.7218073877343439
Ni 8.085337651149095 8.70815622944269 2.695986703985529 -0.575138550788474 0.2648444515480536 -0.4791132470310846
P 8.533848248567269 1.7305431226264432 3.664500549691305 0.5570917205890922 0.22801828385863954 -0.8313811196001295
P 1.7044726169840434 3.229778494043874 1.594679166239694 0.7961912019625578 0.16004345848056306 -0.2428820883443494
P 4.627270000603761 1.0634699516533657 8.062392705432112 0.7589888818806477 -1.088821565374628 1.033414549359233
P 8.395011021717826 1.8247178385926788 12.637602371906919 0.5780228143148045 -0.7779551385705054 -0.7695594583076424
P 6.324808008124509 7.868615241935431 1.464353832574609 -0.4500628666323474 -0.8398068817699793 0.4479288510084802
P 1.7545649724012555 3.2669806342234327 5.884840124377198 0.2857320936303402 0.17066494275015123 0.5224023967370229
P 6.831097952887833 4.111244408044908 6.1577228989096815 0.48061477127727553 -0.09142585731216511 -0.5673475939891455
P 2.520608164446559 8.26964416044022 10.167744670912912 -1.0320760330534677 0.4679027230272458 -0.019300242990508695
