# total energy = -340890.0494120765 ev
CRYSTAL
PRIMVEC
9.08471027354436 0.00000000000000 0.00000000000000

0.00000000000000 9.08471027354436 0.00000000000000

0.00000000000000 0.00000000000000 13.29639178191948

PRIMCOORD
 96 1
Ni 6.4325833914061015 2.1101419422956598 11.420257276327574 0.5122586234348017 -0.25574351768804987 0.7571086341387993
Ni 4.733996983823229 0.16724769508974158 6.129370291814893 -0.8857470959455197 -0.5770211125231675 -0.7593575780739761
Ni 2.54314647743794 1.5403580126313776 4.676939553879361 1.4430414194637213 -0.3316072588958998 1.0807272184022678
Ni 4.173252340659305 4.384771644767685 5.152511406434785 -2.5364698874827414 0.4823397243881822 -0.6057868718019502
Ni 4.668296360737209 4.670631131220216 2.3052488092266055 0.8241226382655034 0.7042956041028258 0.19280625473388086
Ni 7.449834714613237 6.309385638409763 2.5506468140557246 0.33166562293766105 -1.5427395440870075 1.5555870894736372
Ni 5.242350104125279 4.5353052903063125 11.468563405079687 -0.6231793562467849 0.6427408233184801 0.8513537060673144
Ni 5.637389635966055 7.867576936870491 12.48221354922276 -0.6767979129031892 -0.5006524066544411 -0.4516458948487511
Ni 1.7755611558417008 6.274345911744556 0.39356508339956203 2.682227011247619 1.2647091899762994 0.42742121797343163
Ni 2.4792173728117888 1.537051178172955 0.5198997867763763 0.3064330736231174 -0.006722920546130358 -1.2076672094606424
Ni 0.7161749474198307 -0.020377004643520862 4.968409757259149 -1.918565920702283 0.13731182121100224 -0.6716477361608175
Ni 8.507213202113922 2.224918169075081 1.5190997911129474 0.8693709685803415 1.0240580478449977 -0.3776310339241819
Ni 6.9263192132367175 0.481293402945299 4.937429079044555 0.6309821401206552 0.06256085345135678 -0.991405809027615
Ni 0.9341171415339926 7.0583382196921995 2.4139328294460873 -1.4175831272916166 1.2303600230724683 0.8547030821555216
Ni 7.82788583865937 3.8378539303007915 3.896268615926221 -0.1123698065536839 0.06504890998053314 -1.7813955101651515
Ni 7.493177866264703 4.072475652067876 12.729420319822957 1.053291233678502 -0.9928487121217288 -0.5238825808269751
Ni 8.000695193242096 8.675343931020583 7.276356725370786 -1.251922322624276 0.7734212552558937 -0.5835280604037499
Ni 6.806700836000321 0.45687188538724605 0.255994410632152 0.340005253151608 1.1507833517894053 0.8489690078852218
Ni 1.666462872843911 6.764193477673511 9.029473196561447 0.8843605000106383 -0.7433974552002939 0.549957423537156
Ni -0.07679305405781625 4.9799291696033245 1.1862260216774982 -0.1891167216974356 -1.2875899512292146 1.6987152602561002
Ni 6.418165956555781 1.7322634277404878 6.9615388171609265 0.24432293455593407 0.9993736577244402 0.19838349171134223
Ni 3.345835118669741 3.927274731328957 0.3221438183946722 -0.12397756599594133 1.0757467344685407 -0.34047653636107167
Ni 6.0814593479499806 5.640859995205388 4.74106761365562 0.27122361560152 0.5187758557280292 -0.5332030868969527
Ni 5.315445681192497 2.9048360386829226 9.317180513038272 0.17499339492217605 0.05681700898904408 -0.21204067748346064
P 0.2642215240539855 5.628768246128025 12.504551034295204 -1.6409739396805736 -0.6407911557912771 -1.846661935473129
P 4.051008482218282 6.028568166035322 12.815248118026107 -0.6267123091007077 0.01750227054982147 -0.3890606159173622
P 2.3363784766860296 8.420981134313521 1.44474598170372 -0.3534922318944492 0.6704431743297551 -0.9447726825501083
P 6.3978979684328685 7.704479137331869 5.867219173181442 -0.6680641325746172 0.022016099259774987 -0.24510043615190694
P 4.570790167764 1.2686706738577997 12.774495017210068 -0.13122679135918688 -0.6324486973638527 -0.7829181390027354
P 4.003976938286267 6.212024800797363 8.285154725875827 -0.39888351554505497 0.7071418153023693 -0.9691781079776663
P 4.651544155403882 0.9935765688152428 3.7784090385556226 0.37557055185072735 -1.0749514922607553 0.811091773223474
P 0.21083704238357906 5.515209370495386 3.927953359169738 0.4446846330395696 0.32423924856660286 -1.7250065898524616
Ni 1.4912551548078241 1.0704786393936663 2.627606118307467 -0.46080982073620635 0.7061030896252097 -0.293249742163624
Ni 1.9440461884403355 6.605892405041611 4.892367100251514 -1.137572509526086 -0.7960996706900161 -0.3124319715190296
Ni 6.01502286334986 5.846910303863301 9.271533478917972 0.6620510936113178 -0.7252740061267058 0.7012660732478825
Ni 8.755280294755911 2.513621169773454 10.16865495571286 0.04474722230870358 0.28183147302435335 -0.006067289240002454
Ni 2.2336576601437694 5.2574398075193445 7.169055398021007 1.061850436102423 0.6209831199264144 -0.44634633701270876
Ni 0.5968754435062097 9.219163759360217 9.192221234763123 -0.069901352976828 0.1625078608606556 -0.6329510909215681
Ni 1.0919912327935137 0.9098337115687091 11.538860891451316 1.8216661847597404 0.5450712990894484 -0.5676941786952867
Ni 4.051153837579092 7.002530845851295 1.665372707637838 0.2265180451640292 0.22023272637594976 -0.7775573889114544
Ni 5.535895255280627 7.835698689302896 8.03575399779841 0.03416327614527019 0.9262676817673855 0.17527133117391105
Ni 5.59599969697547 2.7248861020004163 4.676128289271841 0.945897797293487 -0.05804162542476456 0.4814390669507837
Ni 0.705300549489249 7.445664832700007 6.909656038061886 1.0427689939909397 -0.49374153846722063 -0.10884662389177382
Ni 5.2277963986242 4.523104524708342 7.280465739726678 -0.6613283565126804 -0.20827169735933163 0.11292413639525713
Ni 8.19518066600558 7.306596091245251 9.317353122529234 -0.2688710562089434 -0.10592147982517887 -0.8667463864733008
Ni 4.572298229632401 0.5645720315082465 10.673465947566177 0.7262646521747492 -1.3313766093968618 -0.10481436280392918
Ni 8.330670031700395 7.231483708546797 4.826191346829846 -0.7504661891216172 0.02693899048268909 -0.037839696555592904
Ni 7.136966385180239 6.022408732621007 6.961498844436704 -0.1718317093647428 1.3645762360772822 0.4996519904143847
Ni 2.2102645317634457 5.227696466813644 2.7259063149391003 0.7685343594772378 -0.2832841463104798 -1.0679771178254511
Ni 2.228851848526996 5.310303735303851 11.49729652602776 0.7483537707643046 -0.3838708441863066 -0.6602232963739597
Ni 1.4718047905894656 3.49044553325537 3.9443875996512934 -1.8968257008117135 -0.44704516285194623 0.9867824513229909
Ni 3.7223418420072707 2.6813067478876347 2.8250977216266984 -0.2950981082262724 -0.22479797714912897 -0.2540087943851303
Ni 1.1091431653690675 3.387043363459313 8.120000147981747 -0.9342944087266037 0.06278093988196284 0.7816138183690152
Ni 4.016977158368691 2.3907050427886842 6.479756656814905 0.06062944075659881 0.1834322697181486 1.4261001636236923
Ni 4.0009517298394135 6.799987235272918 5.913556645265589 1.4289797991643325 0.6623915076698721 1.0171680055933836
Ni 0.7967463323876961 7.3541545483602 11.132311031976416 -0.28362198926587284 0.5049204379021756 1.3868473887706567
P -0.06920913810756604 5.649108911931344 7.93585852608189 1.406204196030714 0.8709270002135517 2.3530221911456253
P 8.482066724693832 1.6956974697867777 7.723554303025137 1.1085486114899104 -0.19797391497774935 1.655916419923019
P 1.8495106956536755 3.344245294410884 10.311923558624015 -1.787665659444579 -0.10794596645437539 -0.17538471682332377
P 3.8684058102009966 6.161450219945611 3.737203519179065 0.4691293963454953 0.027381734447062524 0.8869629706304918
P 6.974876988457234 4.056795442520521 10.384694811542426 1.1917816485786377 0.10167041785830877 -0.28032274968931076
P 6.411088967426356 8.01324117782199 10.323358483164718 -1.5198394995603826 -0.8494135516218081 0.052946213179728176
P 2.4345024299426807 8.547694670099444 5.9297519578728135 1.6377001540253084 -0.11988668375601931 0.7153729449629099
P 6.690516479163054 4.093452247574737 1.858968787287367 1.7591832357341701 -0.5038223197419903 0.237808530476184
Ni 5.470848731318251 2.9102868647132896 0.446006572166715 0.5345778557572922 0.20865582017162773 0.4584539189095201
Ni 1.6631923772256911 1.375833913614809 6.992798395974075 -0.4871330320117675 -0.638695449604513 0.03805078412513446
Ni 7.001767730207043 0.800655483122474 9.261561192695417 -0.7834953516624441 0.25075146379009716 -0.3755918920069661
Ni 2.747461606476185 1.3783594630088791 9.36321273886472 -0.3055750964981963 1.404487213339607 -0.3619305924697896
Ni 6.52829081178929 1.7975007306139268 2.7160403198241365 -0.16172958793373435 -0.1476196308949135 -0.46007268545986574
Ni 4.109713878565331 6.761822368350301 10.528973634211205 -0.2253196539805539 0.9975877694686109 0.43083692852319994
Ni 8.041385609558784 7.193700399446305 0.4084394791654277 0.8885249158009729 0.41883064809094317 -0.7778144992275831
Ni 7.522957545810606 3.9391847862053084 8.075696742477932 0.7009791381350831 -1.2149568011435206 0.9533833070372549
Ni 3.166748229442043 8.440077194839906 12.614459673429506 -0.08881824448598896 -0.27500519413113933 0.06462056419386292
Ni 9.127680729150564 5.149377181467324 10.026422918218483 -0.14560337179583313 -1.5030815633757533 0.88428002448169
Ni 8.597833184868769 2.400271242471978 5.628828205214359 0.4374824588641756 0.21257598116164034 1.4984479212584838
Ni 3.6359735035561096 2.7783496206482634 11.217501083534012 0.22606321701479778 -0.38306300357303064 1.5331264464772758
Ni 1.1383959317320356 3.3773863166755134 12.616214839411285 -1.1320844898283213 -0.2532567467104542 -0.20572604811934248
Ni 2.958199625520213 8.480840288837 8.08420639038234 1.3238970131903651 -0.21880165035637802 -0.5950080360188914
Ni 5.559642687352925 7.700472780199549 3.6200489153083932 -0.61376834734553 1.254335560051459 0.4278475068775728
Ni 2.796528125459536 8.433481695343163 3.612509514437391 1.9158757754646294 -0.46412165871825867 -0.19812740983647814
Ni 3.4878109673406925 4.476454538598453 9.356644493498129 -0.22096343389438722 -0.24161479159615165 0.22897781955843147
Ni 7.385197002603139 6.324593443034487 11.54262377835428 0.004757826399959548 -0.6664507653409103 -0.6883496222965306
Ni 0.4230912995350534 -0.0012863949431665422 0.3960706464315206 0.7310597595705474 -0.29700483833068203 0.013879586195569647
Ni 4.456504515327311 0.5417830363462884 1.590088623919428 0.4534258695673094 -1.141083350892822 0.13919078340126997
Ni 6.089208605623152 5.706842244302977 0.4123159249440235 -0.9146367823966765 0.24208350370245404 0.37831366181350323
Ni 8.068249097178441 8.98686772336609 11.252922368021345 -0.30270317426703996 0.012081870865198546 1.0757112532449151
Ni 0.0421330682727245 4.962232154424734 6.026018087924116 0.7763682536993597 -1.6799881161602424 -1.666041681282479
Ni 8.426277520273027 8.821598678125373 2.485427680602387 -1.552779701931829 -0.07394132737415653 0.7167752246270752
P 8.782398154256985 1.4900468883710927 3.7763749719752906 -1.3858158621823489 0.29505285681063376 -1.4840911383161797
P 1.8245822512747987 3.241224682436953 1.7812509097463987 -0.7060598950921002 -0.18859118821126875 -1.446443760277051
P 4.788441651156542 1.0610305409410308 8.31452650194046 -0.23221998064481297 -0.4947584097675092 -0.6407772718342062
P 8.48086754296715 1.6600763216783316 12.646809417448729 -0.6146895736082189 1.1341359730407115 -0.5171684020315932
P 6.380291800354784 7.857229452122845 1.6202980102507254 -0.8875144722585876 0.8940641004516474 -0.9155461815848233
P 2.1807937323592625 3.4198845902922725 6.0107267039669265 -0.30440190212570156 -0.4469515746968754 0.5699091840687346
P 7.019065018143407 4.078725932582696 5.922079920235072 -1.2920423305736135 -1.0377520003923226 0.061176571509320446
P 2.5314453708927527 8.474072179849292 10.382142008018203 -0.37597421504704925 0.26767523612862937 0.0966174288154336
