# total energy = -381178.1556219082 ev
CRYSTAL
PRIMVEC
9.15571257871736 0.00000000000000 0.00000000000000

0.00000000000000 9.15571257871736 0.00000000000000

0.00000000000000 0.00000000000000 13.40031083256650

PRIMCOORD
 96 1
Ni 7.605000237211066 5.80870439810674 6.463666524963744 -0.5115875655097061 -0.7268228386710645 0.7188717021447878
Ni 1.4485801934805866 -0.08891112314108544 2.4954324471611167 2.0644464574189025 -0.2721466416364216 -0.4966512559148478
Ni 1.0295323925286415 4.920307312263283 6.7107151127215365 -0.16726465881935063 2.6282065911671055 0.4651940658468311
Ni 0.18847033980632727 1.683488306592607 11.77688940383964 1.2160042685714283 -0.3884828890370212 0.10368462007486015
Ni 6.648466339667893 7.736229063076702 7.912508571819044 1.4917077743211729 -0.03582472300809314 0.08240694164300646
Ni 4.161390311216577 7.0257824034890515 1.5277294960580818 0.5742409786748691 -0.2736916175260383 0.9804426251478919
Ni 8.61764949606942 3.853346367433051 5.108385787578783 -1.8893278497727721 -1.880415634884807 2.0208366911487516
Ni 0.48602000603405954 2.550314534015674 1.1888124900531842 0.5787753762101129 -0.7461963581016697 -0.8828088392528022
Ni 4.730253034211317 6.544118685416122 3.970566037751556 0.8895451295353712 0.3033608624556969 1.019159839212432
Ni 0.9088912324853062 5.072008311061002 4.055724234378839 1.058751742572441 1.8198175615867758 -1.0029909427620531
Ni 2.208788149976052 7.198385893701774 4.136783418563504 -0.057137111332624176 0.5103655201771468 -0.1218630907560998
Ni 5.460073181242746 0.6102383029130678 3.585092234179732 0.5902409536475511 0.47909704908116846 0.6381742869937203
Ni 0.15170282994019907 1.8352717068019484 9.393202426551547 0.8844224635968252 -0.7362919545037642 -1.2205252963702335
Ni 3.0207258815458804 1.5247099421077235 3.662733590924528 -0.648700897556657 -1.6482403914350001 2.1555043898686876
Ni 4.781744760763213 6.857564499517148 9.085879952905342 -0.2699342073661351 -1.4247732172821528 -0.7849984185705319
Ni 4.171159456350089 8.491190796365512 10.496020803435096 -1.4651043128010315 -0.5451659156857838 0.16697283861054468
Ni 1.4891033765742376 0.35424275299551267 7.722585220454434 0.04001742093320205 0.19762270228591772 0.12169314083713881
Ni 4.394723641795359 2.7742907265190597 7.764837002049685 0.21027664360450238 0.42874970697686804 -0.3835247737007975
Ni 3.2083905186607837 1.416150660150783 1.3505234292206019 -1.5438484608804703 -1.028143530768281 -1.8247473947882251
Ni 2.499939804376888 7.448574890813637 6.6493013406390045 -0.5629214398969917 0.22727394949344729 0.5807093600080321
Ni 4.96617743140002 1.366911238849912 10.904998236315484 0.8161565893408911 2.0460005920088893 2.1755769922488466
Ni 1.6902360666332803 2.8995134050486264 7.740863684694869 0.35291116257999866 -0.04192775058203747 -0.19038324711468504
Ni 8.950038479131306 3.9748518267271855 12.292292837687176 0.6970183537151221 1.1878951690400381 -0.14121424158920196
Ni 4.886678380608747 2.3238662991636025 13.285523746110979 0.4463846464498119 -0.18055829060446324 -0.03265712391338892
P 1.8989222194244204 2.8741612374059877 12.992230570579189 0.042106185141430705 0.20941378138357483 0.1513965814388425
Ni 5.897020399941661 7.273270465442165 13.494381110724046 1.7186863040613887 1.019741936968147 -0.03236890324900877
P 0.15929199995066615 1.9531515039846767 6.387981743959371 -0.34272933695099034 -0.5679266064210671 -0.27414875966811497
Ni 5.779836436901525 4.733338509290974 13.561114351712455 -1.6406499806822519 -0.31425848320480715 0.7489266125486391
P 5.2801817439576 5.280438103904872 5.911922237448037 0.5654323792443036 -2.35347547663296 -0.8131913360649802
P 5.294867506651277 5.00180230835831 2.4590906779217065 0.5706913136503977 -0.5741296499079854 -0.420290006245289
P 0.25822588145881437 6.294414941061594 8.611856676832334 -0.045928129990682194 -0.36187274264866065 -0.9194532299487133
Ni 8.576201586023114 8.258232849995231 9.20228842710498 0.9983495873353001 0.42477092483477813 0.13037472777153675
Ni 7.845108794967731 0.9993917872994731 0.04118788781407549 -0.9146797198194698 -1.5856795379836433 0.0646313628271403
Ni 5.530947550950823 0.24575671673779237 1.3227147839403612 -0.2091255607191947 0.5003999243240027 -1.1920109909806245
Ni 4.036176788399412 6.168459805539823 12.702328670921299 -0.33340574555721936 0.6464344701199835 -1.0408771762848654
Ni 3.5857889838935657 3.673354217311477 11.647429461610175 1.043699476225009 -1.4313994643494188 -0.7300801692660974
Ni 8.461086813985952 4.057079279814415 8.027415509184667 -0.3010921210261782 -0.4502405298607924 0.9086412269348738
Ni 7.430840275889913 3.0985311255426824 0.2626096365571514 -1.1098385339459274 1.3845539647507896 0.8536910959512394
Ni 3.8960302986537014 8.812089360362206 4.947943830150357 -0.087450674714501 -1.1508149763582889 1.508763187141563
Ni 4.191366113622499 8.803125917920116 12.782194865779914 0.1816525521099065 -0.2855192062885857 1.187715191818748
Ni 7.5472460033758315 5.623942121823442 1.3781150841169025 0.36535658743220306 -0.06404720818889614 0.3574162495392038
Ni 5.898247265403601 4.871699635118188 8.005988395448998 -1.2046875580070286 1.4858687990418926 0.10522316820657361
Ni 8.68982397693866 8.11209852433826 11.659610221390517 -0.2662647289343479 1.2245418737287943 0.593889349033416
Ni 3.3306009678099144 4.396481538576648 0.6762894433274863 0.5689414208388266 -1.360878732621037 1.4230806600710781
Ni 1.2722777954572377 4.147409538377895 10.085395342322249 -1.21718697602562 -1.9333731609184446 -0.3411277967918254
Ni 4.932804859692753 7.14477919758489 6.651190164107649 -2.048398659927421 0.4544337420065334 0.15350591447236145
Ni 2.2360355500860174 7.527423886024328 9.322756544183909 -0.9356573505124014 0.06313909455232998 -1.757729019786147
Ni 2.023412440961784 7.108586666457642 0.7883974794116523 0.172643920853393 0.7340689787105165 -0.24311554451139417
Ni 6.50917133117562 3.4402955581047703 4.013164820846863 -0.7389882703890047 -0.046591988826926216 -0.18940519947213186
Ni 7.119033334308942 1.9110810054949963 2.2174430449101754 0.5960627025356509 -0.7397943112300679 0.8597079915692806
Ni 3.119543485506516 5.686576350369232 10.449214054919581 0.93893756392557 -0.07226419678204975 -0.7780757233087697
Ni 0.5093423522370548 6.0361414498982855 10.799216797501476 -1.3651866159677715 1.7130856700451595 -0.015672930650566557
Ni 3.0710731440474586 1.5411719130074941 6.0686927542030435 -0.5007621927594279 -0.38559708284879396 1.0697581209852738
Ni 1.9705290461247016 5.099356424007395 12.397967154666075 -1.5047391535838344 0.7062169894952547 0.38138767275313673
Ni 7.300325595591676 1.2861944783091015 10.512114714696285 0.2390557726197238 -1.639822342574634 0.7505525781878364
Ni 8.285196423020718 7.956405634933032 0.9975432489653998 -0.8049393804688331 0.8320429215538445 -0.7248204635290548
P 3.9116316325876332 9.032055350833277 7.393460248864055 -0.36651975450236873 0.8565532479903829 0.08717685222782405
Ni 2.187482807215337 3.328055679762008 2.799552252608913 -1.2893933229865406 -0.407063480252686 -1.117881715965378
P 3.106130366836792 3.675478342588867 9.304089877737605 1.6918308744314414 -0.6874078272085516 0.22533739459236676
Ni 0.4566063643696531 6.929024834818987 2.518347364162199 -1.0441270506807308 -0.6829857868814561 1.711035729494666
P 0.2774254103669449 6.542827729967363 13.092572600654847 -0.5828217783653447 -0.2717622617138094 -0.6237205734622354
P 1.4750127351867253 0.10854921067329783 10.428764771268503 -1.1526072923720214 1.1053879543737415 -0.701836601039372
P 9.031286270991464 6.6756496497910405 5.113826111888373 0.7799037776564439 -0.05758679727553308 -1.2475514472500902
Ni 0.8933713843917575 4.999229553173196 1.1714312856281983 -0.10839076730127783 -0.6802480762353187 0.5124301160156595
Ni 2.158276084651228 7.670738252261319 11.707436000696436 -0.1030834961557515 0.09113403710335918 1.125611223399152
Ni 2.7264704406405826 1.158801895940132 11.914926417447804 -0.48617478186355617 0.5236946331858853 -0.13115917134604507
Ni 7.440362216788556 0.8407406872169849 4.87004794460077 1.791172387046257 0.42689594159758093 -0.573747069757586
Ni 7.481114292692271 5.7398351294148195 3.9054268062924304 -0.37444775110019385 0.0779393927899561 -0.44448562965488614
Ni 3.340388424368232 5.145134986020105 7.7548536132459525 0.15285182582813028 0.48764365309959884 0.31300275642083514
Ni 7.277518715996945 5.355945264088635 9.834702781028245 0.527505265181227 0.6290885226423683 0.06395850512983178
Ni 8.630604829119019 3.7387992495648477 2.74648757466626 -1.2061345748662002 1.006911617972698 -0.015390366413141236
Ni 3.0396965176439474 5.26919488907455 2.9294818828846267 0.6217210265337035 1.2137951767352515 -0.4454695908347102
Ni 5.472543261535008 1.4741063196588737 5.92619324636988 -0.9134147370641172 -1.334793605498211 0.044953681892554845
Ni 6.394697459006636 7.693490197581635 2.6288732931432053 1.2085956348121831 -0.3822713609096707 0.4003004504972396
Ni 6.6816374857023035 7.769922084718057 5.424043621796262 0.849969424125278 0.8995294944415927 -1.3375017484579934
Ni 5.597756784352172 0.5743772085747912 8.881485082517273 -0.4452682734571815 -0.432890468618119 -1.846832913833355
Ni 4.189040562672254 3.4829520221882135 5.050054743862187 0.8568828634156598 -0.8517918220459976 -0.3002727104486764
Ni 6.325544363230236 2.940604242311235 9.276002898800328 -0.17544359508571722 -0.05963545227444567 -1.6001257953159602
Ni 7.321026661333824 5.948429725081934 12.246343063852537 1.665243610861216 -0.005293130078139271 -0.19765098442069184
Ni 6.230059438584125 3.546456043412245 11.499731340274847 -0.3040445187862828 0.8337871579384608 0.775161377875452
Ni 1.7333503163368507 3.3073820811570678 5.242898767483209 0.7836064233190118 -1.4756437788797747 -0.1644870960742135
Ni 9.13064406198385 7.872960472096264 6.7956590656786 -0.5009629959163243 -0.1860997892479827 0.9722066103913448
Ni 3.0419488228949723 5.427625336488137 5.450535675633017 -0.019985184872675258 0.46262270557522905 -0.327506606463965
Ni 1.1530521085513357 9.189771652679466 5.139796290118183 0.07562102906942461 0.40616565102876495 0.20921272111636227
Ni 7.465760162993208 0.8199810249154611 7.363095328681024 1.0259868894365944 0.5588238727888505 -0.1712169585988793
Ni 4.655853715228261 2.550149731192428 2.5752180717505886 1.9295645858056316 2.6933277491464716 -0.6614006045115126
Ni 3.2834490489368235 1.344021957843557 9.329993219266878 -1.6463447170741838 -0.2821230361228432 -0.19084296035992293
Ni 6.591078334328761 3.2989771371715344 6.6002294688751 0.7700320270686868 -0.2683987445582152 -0.9579981801014468
P 3.6152337549801405 8.633525501375429 2.8375695172179887 0.2773148161009224 0.2274960928065824 -0.5882941143338255
Ni 0.9181714625765229 0.42876750523848384 13.704095450017993 1.2333332467681792 -0.9805112736022984 -0.7421982926858702
P 8.174961645694113 3.384006238253942 10.384825591877464 0.4859793780232985 -0.10554866986679241 -0.40934456297737887
Ni 0.4259777596694293 1.6995474261466654 3.522298696238138 -0.4647312672777997 1.750270763735889 0.8641068919679247
P 6.340404084459562 0.10181884648618919 12.197150336684922 -0.5223041805962618 -0.5115435996456481 0.2176114867030188
P 5.495340985417337 5.9395944626134805 11.098257929279582 -0.8208491097205541 -0.4147243392320535 -0.5567952723945959
P 8.606223166991049 9.052939530823476 3.0231237626241056 -2.654823936644318 -0.7104307704662861 0.21885641485371338
Ni 6.439862588288376 7.842526884070215 10.298647448888536 1.2297794679786498 0.5569505670255376 1.6895911864676452
