# total energy = -340862.6064238234 ev
CRYSTAL
PRIMVEC
9.31884764002760 0.00000000000000 0.00000000000000
0.00000000000000 9.31884764002760 0.00000000000000
0.00000000000000 0.00000000000000 13.63907548473559
PRIMCOORD
 96 1
Ni 2.5645655196470383 2.4211298161332295 0.9239423142720935 0.5617320475745811 0.3691517928085771 -3.7750715817387115
Ni 5.790014398019116 8.25367543497076 2.783148410864547 0.5592182800137917 -0.8926487081613595 0.5030162789009273
Ni 0.6105997885203772 0.16827881954794754 12.477217630501476 1.0615982108823008 0.42377950745578635 -0.30706762188332276
Ni 5.196170829514863 4.103629127334578 6.894525228161533 1.215609604236171 -0.014584582682394237 1.6290905579794264
Ni 2.3846372086124346 0.5529524648777855 7.377525762918061 1.8896507803298295 -1.2358076764506007 -0.7182718637772597
Ni 2.176770992228662 7.762050306684994 12.700952912602094 1.2996083158463296 1.3675006088129287 -2.1251882553836494
Ni 1.984793411141866 2.915066018644009 8.842744957807774 1.0416611056387415 -0.11777555095028748 0.4449569128643498
Ni 8.372183220936527 7.802913453768418 1.8801054762877774 -1.0784636191790715 -0.11337819321354022 2.847516291508154
Ni 4.397601496295506 5.135001913333428 10.275406894552596 -0.23066960543855758 -0.35526552174478815 -0.7486198799414978
Ni 3.354869034972895 6.981811146855169 3.1566273244745866 -0.5295215242803074 2.2186450270829146 2.1276709125961872
Ni 7.1083983737608065 5.552122854405517 7.082485454012831 1.0138600242660731 0.974170418985935 -0.1392514614358763
Ni 0.1615366332503747 6.051026002730542 11.985692213885905 0.6542861049539184 0.35042824825714486 0.18237426076727944
Ni 5.017901273367567 0.48247588363205823 1.1270065284455832 -1.009939091945112 1.0380322506369026 0.9410070448600891
Ni 3.2397160341724702 1.5486899773425398 4.75081750750687 -1.6371566228170127 -0.7234428664552379 2.1636738130533577
Ni 4.670289617151865 3.4969721432682475 5.013533529459243 -2.920422235639261 2.63032955104738 -3.6595071795071297
Ni 0.902056068607298 7.925996793945807 10.575834429302507 0.5681520921683118 0.9792262362422877 -0.9959273510470524
Ni 4.10580041884437 5.858424058849084 7.765611970268868 0.4510270303178297 0.22633292573641667 -0.33012604636468307
Ni 9.193360078631228 3.3002978629499697 4.1310572917155675 -1.2687532781386859 1.1974295908930344 -1.3605737997861085
Ni 2.200301082624476 2.823629485193029 2.992031313530372 1.593292831554527 -3.0342038349388067 3.1723391804923686
Ni 9.389391358459482 5.582148181635344 2.1440357440930526 -0.5058545196806706 0.6678826126914305 0.20433610975035132
Ni 0.9594406007452713 4.704480469295327 7.550919697958388 -0.8372293508507904 -0.07067679769027183 -0.564775462386595
Ni 1.8671988722488853 3.820876650982188 5.060492134811144 0.9738649719303745 0.8728193321402582 0.36409289022843105
Ni 0.33956296747318215 1.5740465618839299 7.529737957178315 -1.1080678151987498 0.8461886169266073 0.9858504264270246
Ni 5.5297762576652545 1.6190193207948993 5.5092729289963955 1.9964495205536388 -1.0382507944056119 -0.22750457744701463
P 5.975394234947403 7.570464117200821 0.5772411094748743 -0.9532992319638808 -1.5140856277957409 -0.022474012732800006
P 4.6618187846093715 4.188561105103864 12.758454862220853 1.9820778252129994 -1.6840175490346097 -2.8690042861786007
P 7.7351188368854285 7.327903830898785 5.797561732756371 -1.098752708445411 1.0319243379669518 -0.48843529576295885
P 7.866700966148357 1.8621014625670993 4.965714794466341 -1.7681111343514193 -0.16882583265888343 0.12997466411964068
P 3.1519511267080045 0.8153656242805107 12.629333840630611 -2.5049350500992533 2.951322524762543 -0.1160282292418776
P 0.6590810935834354 3.5307436472660414 2.062391455785803 -2.357002773059928 0.39798491499018557 -2.5409346081223143
P 0.8347665332686474 8.842151347210462 8.442656074643182 -0.46384835045221406 -0.007909998875696055 0.9426633495165894
P 1.7816984447710271 5.982252906840995 13.628096251052785 -0.12450464214400493 -2.482025749601248 -0.551486972807805
Ni 7.120037614515014 -0.040729887561577714 0.33927035565598274 0.05600119795596807 1.4481527725483576 -0.46557536044564973
Ni 4.353933376059949 2.697116809068843 11.07728907812273 -4.987139234259894 -0.02784479012641011 -0.800138359535764
Ni 6.408124245886023 4.534905398034882 8.993660900355533 -0.21366921422581914 -0.5746775519916555 1.087823720237733
Ni 1.4012285316303186 6.0592452263856345 5.345999262538188 1.7798387072009927 0.7698304525808419 -0.2811138781320385
Ni 2.25813385133593 5.0739634610195345 2.802925801299017 0.42643468569044624 0.5108440024754621 0.28596092181169463
Ni 9.10106621119355 6.083744476940325 9.468873674104621 -0.7902385839235487 0.16306013381969983 -0.5011979947452659
Ni 4.597882170666529 8.811865092245553 12.712641543249012 2.1010473964713876 -1.583825772604356 -1.4414535061513112
Ni 6.390614131092464 3.6489066358675943 3.26557676837343 -0.21391578301898642 0.1752006258369757 -2.049013153582968
Ni 7.850579359659343 3.870779080316676 1.2426981586419992 0.25528174756028293 -0.6898830282219216 1.4628157738771708
Ni 2.2008043003992777 6.127310089851387 9.170805671587669 0.40982098839316516 0.1802692986091347 0.9604453560903587
Ni 5.6038983721239894 8.280122324690886 10.506520840247433 0.17576781119435536 -0.3281743219549509 -0.542321247148137
Ni 5.483414990449741 1.8998614333725796 12.822477209562367 -1.0506319416787844 -0.629202165402097 1.3566425830525022
Ni 4.772461463131945 1.8376115308600898 3.1788043181870456 1.8893039385133719 -0.5467134626785617 -1.6079712595023081
Ni 9.315436983259016 7.5459275912554045 4.0566975466409545 -2.0589142147467636 -0.9464837517039442 -0.6230245758364754
Ni 6.978940941769263 4.089026493017651 5.304658990453471 0.3596767634386064 -2.612261123581443 1.2999505296770966
Ni 7.910154752887239 8.771831322605784 11.719812443145658 -0.8765718572041549 -1.5298421192990492 -0.052710185909522124
Ni 5.037927477035134 1.1743984602146726 9.402205705906328 0.22118943386226422 0.04098158461868426 -1.422890655547459
Ni 7.9785737325648896 8.621751280695058 9.2044122319815 -0.12843508754666266 -1.0873192697974887 -1.0062230765461058
Ni 5.611036609448027 6.214543822998006 4.852046286101581 1.3173916079716794 -0.32254386314205097 -0.4434227356080105
Ni 7.6275979723361615 2.2570249084618306 9.059182650289001 -0.19703289122071874 -0.6110018403439865 0.26747571852331353
Ni 3.5870201684146834 4.8527246982127945 0.6437590442254959 -0.8822437107779516 0.7701420702839898 2.6365914727966913
Ni 1.5129708341793102 7.511587637549038 1.310296147838908 -1.2402312594395932 0.8933112814460229 2.3494054203286443
Ni 2.6582758519323075 0.7710889832913502 9.885247243592653 0.1306716901866653 -1.3992856145340093 -0.07878194329590948
Ni 3.9638464121119212 8.151829748659532 8.474476211936468 0.17521168158056924 1.0129668230278426 0.7065923705568025
P 7.974054091439356 3.630483274001248 7.64820753586859 1.2856042882577536 1.2799997975867827 -2.137975636956305
P 6.849744437512802 1.8766015895595294 1.2504113688679852 -1.0631028204522852 1.3783470646091294 0.012096269042901748
P 3.9865191685210357 9.231539397582377 3.5219643608652906 -0.29736916364863625 -2.1717396207806274 0.5289273423397342
P 8.68222128330038 8.011553134509755 13.607828689230269 3.362259629038023 -1.0658258758104031 -3.317914270153427
P 5.051989618186533 0.4665648831006473 7.163310615608875 -0.037326504364600235 -1.4316732868360955 1.0964014346044149
P 2.2645824939315355 2.480677252818081 6.516982365077587 -0.910391119746445 -0.04803926279641404 1.4610350278276645
P 0.6522103071878577 0.061511849776114166 3.009721282084184 -0.10895461022454783 -0.0826141725578061 0.6262819064315085
P 4.397741279010729 3.351765858694952 8.675556443438564 -0.7456795663662513 0.018870354541941695 1.8960415143475216
Ni 7.689931744477785 2.2587302575875468 12.881738557623395 0.22858752609854824 -0.6127509618246092 -0.6805067292133441
Ni 1.6948281466839867 8.449893091752644 4.922724154457229 2.0048197468952056 1.6454492018431082 0.48826688850589456
Ni 4.208810961115787 6.296409899880076 12.288493259140296 -0.38256600933195406 0.8402460261899272 0.6992374728536279
Ni 7.6319032799650195 0.7165821113174274 2.8227292845069947 0.641390737048489 0.02725780727468854 1.522273820033488
Ni 7.403908352589185 0.967287070493103 6.948590386755352 -0.4579774934937339 -0.41919780162237485 -0.13222643626829486
Ni 6.31217739015719 5.345253754723667 0.2719304985398519 -1.6659095265799888 0.40320682551075715 0.4750534751394141
Ni 9.104309170186715 0.9919167849153351 10.392553196872095 1.5361264096458642 0.6159607270111586 -0.7582795145184488
Ni 6.172329443000764 7.633599310243055 7.620710412014757 0.12748429359761917 0.654955105996485 0.4520390165221118
Ni 3.8751962141177123 7.606099390734917 0.9137009006701134 -0.5926549624056825 -0.6709699933675025 0.6616271187000218
Ni 2.6205438376698713 0.360162280273161 1.8315775769863119 0.17313371600561794 -1.020604027858126 0.7629362965641698
Ni 5.093533041150707 5.92323664447399 2.259994825217928 1.7444438726414666 -1.4374520983014016 0.33071997119494007
Ni 5.989102259886906 8.545523106660303 5.31881711573599 0.5910760479543369 0.6293083519626582 -0.370051164694395
Ni 6.362200964511539 3.140255972867709 11.00512485356188 1.8277370735441683 -0.10848718366982607 0.037256313248297125
Ni 1.5816880169827683 2.043399644210885 11.433173075425309 0.6912585684132094 1.3099163826405569 0.6215330788926134
Ni 2.270723614553651 7.2658030299492 7.110131679429568 -2.616096695277449 -0.11486506217171186 1.7417997501504003
Ni 0.6212633459223297 1.3048530089081376 5.100946184481349 0.8966629715270751 -0.6604796353591399 -0.33857494846298464
Ni 9.207552683650169 7.185577070259076 7.298555983895404 0.14027398916311973 -0.22771823611971748 -0.0452123348705802
Ni 8.61379298477505 5.516366435851562 5.104423978436087 -0.1297952011189829 0.06307096031855589 -0.6981763785789653
Ni 8.346863911785864 4.190406236944804 10.641152096471751 0.8671533921037322 -0.08549792186350436 1.0715730627068256
Ni 6.581575957781977 6.2247106858185335 11.780383089305937 0.6832714364426749 0.03424092346074103 -0.8464570400966454
Ni 2.474405668328425 4.07260668340283 12.326327780727228 -0.7655271972197977 0.8831212282868985 -0.4819926254614086
Ni 0.3964004832522507 0.7814608607608713 0.9572133961493903 -0.9529040534079912 0.5554585558610433 1.2653249691834274
Ni 3.8140645733270038 7.75400814113585 5.799935243260853 2.0791683370101097 0.8307064621306081 -1.4276322839975026
Ni 0.28528813480652904 3.139035203821431 13.410825453588835 2.6759797447863267 0.5004660016752478 0.2288171256108511
P 6.940631158950574 0.8829272699714614 10.499074149065137 -1.4528537775684527 0.15948270088108663 1.1387148506606455
P 8.10640968505985 4.804005762533858 12.959972147679213 0.0028567527225047576 -1.0971385698807556 -1.1094191870203216
P 3.4081728437111347 7.487097705842029 10.559672751768463 -0.3296033410919937 -0.10503702033769653 0.28378551142693065
P 3.6241464575778206 5.634398960585574 5.1777474676485165 -1.4607694328711036 -0.5188933551424999 0.0823164388117292
P 6.883012723735796 6.545167219890316 9.676324269881798 0.17600178158203236 0.8722755438216461 -1.0306444428132637
P 7.412481692456175 5.973688885821686 3.0295937247650047 -0.7929053321224344 -0.7299127904502978 0.1770451352448822
P 4.159914967330901 3.670610232117832 2.4777427476831733 -0.09878152634628794 2.221323345246026 -0.5470585047228063
P 1.2647260507915534 4.517115717810878 10.328857941084204 0.0017087551609906053 -0.48071632985214635 0.06483730819035931
