# total energy = -381170.6023340029 ev
CRYSTAL
PRIMVEC
9.22062724628275 0.00000000000000 0.00000000000000

0.00000000000000 9.22062724628275 0.00000000000000

0.00000000000000 0.00000000000000 13.49532001021747

PRIMCOORD
 96 1
Ni 0.06534381806863418 5.475512652595883 9.78676530523545 0.30444149711438534 0.6287655920853107 -0.16458994020066492
Ni 1.355801008764583 4.31872043852775 2.360155971492279 0.8832528687687563 0.545742099904228 -0.24495002661697174
Ni 0.8023181140916497 4.439151049079125 7.596502154246367 -0.5595363254748428 2.987853015588409 0.29087944215923456
Ni 6.047329842194193 5.285125144237809 12.524493047589381 -0.4772258002003846 -0.715632883492516 -0.5296935310817974
Ni 7.306222060139165 4.334994845359017 10.625013436947153 -0.8938578979781121 -0.9774393195451943 0.21065022489383722
Ni 3.8884583161666115 4.260289324595886 0.06481732026123173 0.6747695696192508 0.8471851765119217 -0.47488969586804014
Ni 7.566778540727233 2.239911617608321 12.13415439644525 1.3220414480388651 2.645847958397953 -0.2899798131631006
Ni 8.907706677979728 5.20483192345216 4.818854628926267 1.4422983706501096 -0.059819286150477616 2.0657523207145196
Ni 7.3009201995567405 1.947783709830305 2.18624203551083 0.18722284710883239 0.8274097936572073 0.4574141647910961
Ni 1.5067979981520205 0.19990135139971713 13.14593934049002 -1.6072235827030061 1.1913746429482062 -0.07990217294328175
Ni 6.724216077595499 9.364100057541892 9.321541331099743 0.40455691178074843 -1.7699322467205583 1.3874102032526623
Ni 6.8161272885269835 6.1547962510431535 9.241986682544791 -0.6733161250021759 -0.6187534592649473 0.8895104196426938
Ni 0.11662710187267973 2.644420528479528 1.050731028789192 -0.29869919531396943 0.3905264018296113 -0.18213283418043472
Ni 1.5336761261481355 3.034102670974147 9.314104895343698 -0.26908625754354304 -0.5668999649287656 0.6753213283576628
Ni 4.982144558363248 7.538996791275331 10.37247613574784 0.5559205830991265 0.3305559348132501 -0.7919974755961844
Ni 5.528678788453721 7.610106267469512 12.735803080899764 0.011431124655077089 -0.22686488698048674 0.45175233851962837
Ni 3.2542543636105945 8.87898442456364 0.9333459913689032 1.9551007824035231 -0.5547754137510897 0.24170169488300305
Ni 3.865932324161634 2.0778959788365414 6.646741602514279 -0.7501450583367726 0.7860924229656592 -1.9887927753393293
Ni 5.813568503958341 3.5978518118600733 1.2953727070028884 0.7769930317675521 0.3730048480060802 0.925027124492065
Ni 8.654342286529557 9.113713928644978 2.1153243483603257 -2.1354112186632386 1.8231538250488601 0.6494339190679397
Ni 7.593850301892445 1.8979923234910179 7.935989968997435 0.004276515888166828 -0.1490486500319562 0.39899947229762894
Ni 2.2967383424248076 1.646545822477619 4.691674519337789 0.4040331780667945 0.5074655729215325 -1.088107312916423
Ni 1.8909569850138188 6.741412547136753 4.058555834591425 -1.770965315970763 -0.19809269994380077 -1.767322577011853
Ni 2.125354546519562 6.284189311135601 6.221584941378338 0.09488579083630755 -0.6967069931222905 1.7164594716133987
P 6.799935867339615 3.9849429581396296 4.3907833275640575 0.9477484773489808 0.8254740100870752 0.9112822641021467
Ni 6.790346415155753 1.1007123600467361 4.376073661151638 1.5826551493350227 -1.3873014455889399 -1.1121445563712846
P 5.320965721774996 5.936728420131278 0.9461986234834091 -0.8873347521476137 -0.2909120951693829 -0.22130410506325757
Ni 2.694838917461606 5.054222200402917 9.492878101806777 0.9495788456895 0.9898975999132048 0.10497994184751598
P 1.6829580788949974 6.729434952534025 10.549115689100011 0.22894105278322505 -0.21337122336942607 0.6529051654459916
P 4.321311434742812 0.47773544304751814 9.874754983461358 1.223117996798074 -0.23769385927519068 0.8396212481217348
P 5.928992313994488 8.287370548581913 3.956935303323781 -0.5238216456820527 -0.5889312336971921 -0.3755769796086306
Ni 8.71557647109978 2.1086928733501007 10.140315498376527 -1.6378734463783795 0.4403350978216222 0.7392461520360817
Ni 7.127332673774626 6.824527279814963 5.127600872926376 -0.4519248595417507 0.6509765809647112 0.07726987752675725
Ni 9.049012788285205 1.0649178856450487 5.071946089814283 0.014440343795046098 -1.229001966382677 0.6301177352378309
Ni 8.792458059858479 6.949070290052879 3.261022303901897 0.03409282791865096 0.5251606762084504 -0.282880483114158
Ni 7.375985324776765 5.165118682533027 6.9145427298147135 1.9017786739416151 0.5167331142663875 0.2791097032178161
Ni 1.4681082468409745 2.4342732162464373 6.846756367627324 1.576769122867891 -0.8053335305834582 0.4936659480342789
Ni 6.07620884627098 3.902953141967604 8.325870354974702 -1.5353293676658655 0.03952351201591903 0.18886192537415217
Ni 3.5927712463280463 5.2661583142933805 4.586587032280593 -1.0046187081734634 -1.4886399340291265 -0.16808586916906537
Ni 1.6823402968793064 4.897692834755557 13.122471000395437 -0.8936334406721319 -0.8308267897585562 -0.15586593006410576
Ni 8.683848293249135 3.1957402640348325 6.181490888559982 -2.0504200612328236 -0.18901799133604222 -0.907985852739062
Ni 0.36312120407073956 7.761453640686744 5.568182721137686 -0.9211660988747619 0.8027773398205077 0.23834049172025404
Ni 3.7797747845404683 7.349310050576847 3.174612119098195 1.562678963323412 0.49217239420788783 -0.3866160110316116
Ni 4.782877586108002 3.9842975142426393 10.643651090504116 -0.3770921307015764 0.9122880796588417 0.9993823994751887
Ni 8.020756115989231 8.219045701771892 13.367478737504998 1.0932577467691107 1.8632306384650879 -2.9444823619122578
Ni 7.430184170869789 9.110901637379518 6.6136921088002225 0.8406764288591264 0.7059328825959326 -0.5537500578103689
Ni 3.5374474837288385 0.9953482541765452 12.052832153675254 3.219247157897817 1.2251738508858385 1.4313742675384382
Ni 4.537184756404921 7.1623987186354245 5.64397258764776 0.3014772722797388 0.15645856934278216 -0.12301185964856234
Ni 3.9171344664472008 2.70715767526703 8.89156689230412 0.43732973533639524 0.32101842763646 0.5907793426495245
Ni 2.8504462203989775 6.166663198120684 1.286732979410312 0.43549319634828865 0.4270988016370064 -0.01734363348477013
Ni 5.376879604508595 4.917803022460371 5.953622453103655 -0.3056640566675768 -0.8199453669593619 -0.16257188132937161
Ni 3.6603861048513777 6.0099401993042285 11.773708096296183 -0.808214194565363 0.35906946887191066 -0.014289677149794743
Ni 3.922353341385726 4.279071741998317 2.4825044724804273 -0.7454448246476258 0.5115268874750997 0.4090362877083407
Ni 6.261349817809228 2.3709459493245446 6.208467677266066 -0.5328228207393986 1.3798329051260365 -0.5328639583899791
Ni 6.158392295612103 2.1103249243467768 9.96472801857645 -0.9648848799189511 1.5353728193092913 1.204476213327171
Ni 5.452414981710713 2.6633596965426567 12.767341313832153 -0.9318994261318659 0.2177816937322959 -1.5770673708346001
P 1.0302852102579447 9.615085527200298 6.794906937319348 0.42849491065358464 -2.049784227421038 -0.8592421076764557
Ni 1.3918075575895672 7.2315903043928325 12.761215129187 0.2195966354538476 -1.0169337780953904 0.047220366439544484
P 8.119896298567012 1.082022148915304 0.21328509163517545 -0.0426448312537201 -0.4798413834463607 1.6732783082402345
Ni 5.748461656006174 0.9257509608267419 0.7713321967225434 0.09844676871468852 -0.4685323861914447 -0.4503282044785921
P 4.786759470117047 5.977372944387495 8.432928290043138 -0.5491416125040801 -0.7474515706650096 -0.2091777541133688
P 1.6871258023441378 3.675397285769963 5.008626199394069 0.37922794609765653 1.9134879919587433 0.20932045033882016
P 0.4506941099517354 5.948899647903103 1.1244296570730166 -0.3845483298693055 0.11742022449339778 0.05547515024916898
Ni 0.1570152926955213 8.579719751410325 11.092815498419984 -0.2449556830439265 0.046099108350907705 -0.5845356757326577
Ni 1.8791914648343873 1.3221733817313646 1.8746890326215215 -2.048729560904278 -1.2956308192558204 2.220223684423944
Ni 7.496240743413243 6.74929618330714 1.1973233246110224 -0.389934019661251 -2.49074693152433 1.8536085419942916
Ni 5.113888878366162 0.28053204713722235 5.663027935612347 -0.8163818179778198 -0.8336845709223255 0.40633354406519695
Ni 2.7339620382463456 8.563648198375256 10.912046026189783 -0.8146229263051842 -1.4519132680320541 -1.0458892847874761
Ni 3.866513223668926 2.0716904967983303 1.6205316672407617 2.27730885947271 0.7603343401649486 0.2533811881034604
Ni 6.348890451495374 0.49507298818339984 11.923034308053126 -1.0445481973785495 -1.7443613402299893 -0.8580447449342449
Ni 1.3920380732670639 7.54319217660577 8.332536868367907 0.11027744280102943 0.40857657446310275 0.9619077995684983
Ni 2.306281691473171 2.568378016786917 13.53553573115261 -0.843145202114593 0.2937305384547845 -1.5428976669314265
Ni 8.430732858730659 5.894221329200886 12.148783843401901 -0.05138838177430505 2.090123550470033 -0.366566291469588
Ni 5.177271469050654 0.8556658963033555 7.868122465291567 0.42852447833993945 -0.20890598850922085 0.7350215724317728
Ni 5.524760021936277 8.038764000715274 1.6150121998587808 -0.0024602886150344727 0.002352816502892722 1.6422342944502364
Ni 2.629584539475841 0.833362121411485 8.635156005660152 -0.8242805039996063 -0.7589323176110994 -0.754792584411113
Ni 5.879754165281193 5.702718124963728 3.0438285884390877 -0.08321503936659862 0.2166393525977366 0.8714232231236799
Ni 1.189045967663471 8.01879212241696 1.6894927373206738 1.949907925348674 -1.7013568116440054 -0.17550298756874289
Ni 2.664032802320947 8.700067376317802 5.302621284159809 0.12477280820372706 -0.4831755900259163 0.7613663809738888
Ni 8.197331124951702 7.860132791909531 8.777355594731606 1.8120358607588276 -0.22372608424118892 -0.30782224066116015
Ni 3.6743000311450786 7.885332765773471 8.094600430181233 0.4736851340369777 -0.27196949262860903 -0.4237707657050379
Ni 9.30905291375568 2.8849129244982836 3.779850393682687 -0.0021815810323510816 -0.2516225535411408 -0.8732091113795091
Ni 1.5175584699775664 1.5016436676031943 11.232586374313334 -1.72944637079137 -0.16710190798924124 -0.8853660584570172
Ni 4.175856042242396 0.581366071022934 3.4980541985700726 -0.12430152499426335 -0.8041657355276021 -0.9919567964350788
Ni 8.175607327504414 4.652544022051369 2.826878297531715 -1.377786821230285 -0.2609340607500538 -2.119266490582576
Ni 7.869869774126992 4.494373384780234 0.42680254307326754 0.9086790221513447 -0.8014377950734778 -0.29335232917975934
Ni 3.127194122174414 4.202337683273217 7.231224245496969 0.8182283842682554 1.0342630134024573 -0.5319568731946774
Ni 6.010751614489018 7.724211527830378 7.6024531469766226 -0.5630083431838433 -1.0019486175404682 -0.2768515033112587
P 1.1273691929924545 9.217870132365086 3.6491747443606486 -0.07148926628923817 -0.6641383151576498 -0.3154710154556696
Ni 0.06763698802837134 3.8448816324926356 11.638256162136415 1.8648890000041172 -0.9181224269524317 0.6411665368528249
P 8.258980237741419 3.7609739258838375 8.736370829335403 0.19264273257282308 0.27355894860291596 -0.33143370943251305
Ni 5.252843728761171 2.6800766934747173 3.942252376729951 -1.61135483126256 0.7120055711525738 -0.7174123439904418
P 9.059496641297754 6.509956365675868 7.2944906562800025 -0.1749784825238406 -0.5369409566728301 -0.8497400817232915
P 2.8264264868038214 3.1098316813453626 11.366676421850453 0.8383791481845174 1.5964840847983148 0.002122445659641506
P 7.309421617742818 7.7603563860618605 11.011249831094553 -0.8008194447631887 -0.4998000859564747 0.18062565350728893
Ni 0.30678778280409635 0.7544206445586755 8.684980586256998 0.30737024072540614 -1.4997884944467783 0.23731513577953323
