# total energy = -340869.10789160436 ev
CRYSTAL
PRIMVEC
9.23681496425154 0.00000000000000 0.00000000000000

0.00000000000000 9.23681496425154 0.00000000000000

0.00000000000000 0.00000000000000 13.51901237174567

PRIMCOORD
 96 1
Ni 5.775106231946717 1.500751543096416 5.190462940085611 0.5952762020786135 -0.17255033269832218 0.21957272419444768
Ni 7.901273292701329 3.1903774825814177 4.154243762919209 0.33456402753137865 0.20438573204136412 0.5080962645269959
Ni 5.0596687137406375 2.7510006590577354 10.873314633260307 1.0926517377539957 0.4431465991284884 -0.28849063021208377
Ni 3.8831663300155497 8.986072575519438 5.560775172977588 1.9920069114012533 -0.9673261423705919 0.09119702913081067
Ni 3.226207088586471 3.435291636544806 2.040897401606468 0.6549476497973171 -1.302793912663163 -1.002324512822648
Ni 6.9996954753939775 6.564826217668301 9.410382306154377 -1.1044898680395043 -1.4333010522475056 0.3010113883869138
Ni 0.7852863144448561 7.930988127070561 9.897675108319774 0.5006254100712475 -0.2171913684464647 -1.1511916429714173
Ni 6.7786215413581585 8.033793879799678 3.187513146200349 0.07102106840356802 0.6568132422511462 -0.3142371430485685
Ni 9.361881637113044 1.2972367946794698 7.251165920757826 -1.9836662527460418 -0.6352013204083253 -0.7552276150660026
Ni 6.073187493970194 3.063362037318339 2.0002600333107137 -3.6668651625340978 -3.2561982812008696 -0.5118171650220088
Ni 4.612551439113001 7.222746087874003 3.8854856943021874 -0.9164800062530023 -0.29764761412100355 0.9641204909491009
Ni 5.618569925432762 1.2347220296776138 12.628014859227958 -0.5721619846586532 -0.8702119764243981 0.5073321326674617
Ni 2.6696705015752675 5.6416157792565835 1.134360338239794 0.7182991174707694 0.01995921673074627 -0.4073149341418598
Ni 8.527104467041717 2.04626860962192 1.9265945850478883 0.3312701872714553 -0.5376289838787902 -0.4582906538587785
Ni 6.470324361767889 5.908883025906806 4.887880578034739 -0.17498799560553735 -0.8126927991620068 0.9282109215366854
Ni 4.113421658320258 3.582535707007954 13.178617716180476 -0.5510923084725478 -0.01643783384104911 -0.31023033588202054
Ni 6.5532247778275305 -0.02027758032041583 9.221805335213936 -0.7130496961463719 -0.8819935424403584 -0.06972188997617025
Ni 8.375851618799194 4.657737938874981 8.446867948474175 0.5515324813337599 0.28604191156127506 -0.2183589063920046
Ni 8.557299615799261 0.8565852906637281 4.2564472752999025 -0.5627275787186309 -0.5195106770115246 -0.1600167190076857
Ni 4.441245465158448 6.200553938209348 12.978819862183851 0.5464915764757428 -0.44416655575257047 -0.7777273388304154
Ni 6.845847082091538 3.6498905631535705 6.341539142720182 -0.09179455350549354 0.5720054044761309 0.44921774502323286
Ni 3.537912652970725 5.507885169372295 10.535164067073406 0.7288606950366996 -0.3042720614160566 1.3875945513493264
Ni 3.941607659531912 0.5364797665731079 10.81092456526311 -0.08886966654921469 -0.44285812135379216 1.0577071033580108
Ni 0.8811635321225696 3.914220502582961 0.8105388434103665 -0.1616984775854828 0.12364049437149674 -1.428522657022256
P 7.948251734604319 6.08200865244785 3.442683859717233 1.2517251190118057 0.5726888036964008 -0.19652561256699702
P 7.81138060756568 1.084226600278199 13.458312173946757 0.688322368603021 0.5933278201029911 -1.457362978292716
P 9.444920605400082 3.893003538160788 6.032926987732962 -0.7432460172240941 -0.31070573285654235 -0.0724194914129914
P 7.14366971329054 0.36371068109723403 6.947461285665033 0.8423864695716976 1.8220755043830166 -1.6811142593448856
P 6.5900519598698475 5.711797100841114 7.357235963964432 -0.03685470693450427 0.7001103623768846 -0.7041392810306195
P 6.256649116675109 4.4808067444880795 10.240205772255473 0.8588669837252241 0.24217452075436355 1.367019812521768
P 1.5394999826919813 1.6941796893588075 2.8120624730349473 -0.09854601329671415 -0.7160602008379217 -0.631423598533448
P 2.5131803791371117 5.444880853166967 12.387917704370432 -0.5736362552113347 -0.5601248509884612 0.6867460252548366
Ni 7.304796716938939 1.3067784247395935 10.915236842544797 1.3617817040512805 0.6450054509829407 1.4362732475019522
Ni 4.982375044483023 7.28770860889322 1.4319335754294795 1.392058757768267 -0.9979878331205071 1.1834335337242585
Ni 1.6733044870975495 5.445619798379754 6.929737684736315 0.1437218385024041 0.1648992439109676 1.7449123276374527
Ni 8.819375772329648 6.196111030117461 10.857713652455322 -0.38299692622178555 0.09803127844382471 0.7888247342951575
Ni 1.288988318741725 4.807189608161332 10.101784707633014 -0.19561647048916633 -0.8892558804297266 -0.03349993152965843
Ni 1.1229011453524855 2.1699495646122937 5.241984047684214 0.7554579859092538 -0.16604415614868823 -1.5378428781163387
Ni 8.88156724880091 8.755133722892902 1.1283222321698008 -0.05562298868094291 -0.014136696511698233 0.16074279854043286
Ni 2.9970509412857846 4.077010132960134 5.933508375122962 0.980378604679176 -0.1866654319434656 -3.346372782604437
Ni 6.22726680765163 0.3419071789124112 1.2806086800287102 -0.09374524947396112 -0.5348488500304918 0.1577335794004638
Ni 2.388363295882076 7.805044152366024 12.351673365364702 0.6533319685707651 -0.5269612197522989 -0.3584377488251827
Ni 7.969339383614253 7.91339199419105 7.979394580597265 2.7224758314653372 0.14545347648153015 -1.1484760438124673
Ni 1.0464110790137786 5.648949810493504 4.6797954534767 -1.006253415563409 0.4117531724188715 -1.635941776573305
Ni 8.292572493317998 3.69206586117344 10.730486684125083 -0.7292841557273634 -0.03436176530932147 -0.6706807442618579
Ni 4.209770877252639 2.5746606208410645 7.07950155837507 1.4627548387322487 -1.4485728908049116 0.40164436611964377
Ni 4.139931317829023 8.88153953835543 8.653574016528848 0.5078239847022158 -0.0698023655051185 -0.7977562324568326
Ni 4.276857865758621 6.390194990256202 8.564064659222336 0.17762131946332635 2.049595508448999 0.22662217484206132
Ni 2.37588435860112 7.448253693186549 2.8747370349390686 2.1372711546901124 -2.1134537405555407 -0.3518968623828714
Ni 7.644554488963653 4.346207873978764 2.030014585985134 4.229312748118464 1.0689142849277395 0.28616198207890714
Ni 5.320460952963805 7.259139139603808 10.783589134479053 -1.0925774328726345 1.2356508391577623 0.09395196616812852
Ni 0.4721675173411453 2.6635834403849277 12.340573484587111 -0.05847022832175092 -1.8876815724186007 -0.3676371559362636
Ni 5.789063059653249 8.0372853959301 7.203660056709208 -1.0886387599398606 -1.8260802546670356 -1.1000133203253895
Ni 7.047375915249116 2.5981683154228787 8.695361368312003 -0.22478152208889673 0.010371830152627298 -0.2546322869017421
Ni 2.8335870234019427 5.0694412641797575 3.6261103825245407 2.5373816006637337 0.5670853414666943 -0.3087645499697715
Ni 8.753277123045772 5.902971464204503 6.244445436485917 -3.813013093979491 0.1946782749456131 1.3534500442571336
P 2.862489018037109 7.645071750612606 9.843206533003663 1.206478331358864 0.23160214455515593 0.5040100102727644
P 1.5725308337036004 7.629064349940588 0.9733552605515033 -0.2904950622366223 1.7431223256165658 -0.6149675098599539
P 2.659454584008475 1.1162044543615954 6.375647930060956 -1.2390112709895629 1.328463806625441 0.7216981158499893
P 0.41451501183943373 6.658570654725605 8.178286303026708 0.8580761123928123 -0.49806381999165833 0.24318290741421988
P 9.054637454450994 4.694546647286978 12.493595182932744 -0.35939497053212943 -0.2774158604551609 -0.09141094491382966
P 5.209277408884707 1.5394815090616616 8.836648616678566 -2.4065512734120165 1.2475308784247998 0.6560460250678185
P 5.8319403556252665 4.868466639931769 0.7065359994365341 -0.7838753607096822 0.9341113461815203 -0.7915426474469529
P 2.935034964302561 4.658587725869687 8.617924528419413 -0.3269471344160692 -0.7020484599398619 -0.624049417556564
Ni 2.534591316677641 7.562901042950592 7.267037540246994 0.7267567613198194 0.49436066010845825 0.553655955434666
Ni 4.369900304863776 0.18680442611126394 2.974479859761179 0.649013029480437 0.48124854820653246 0.14670997459645058
Ni 1.057125784599203 3.6923522024433955 3.001802359004011 -1.2028242795460447 0.3820427898386324 1.8071127124255975
Ni 6.62102300110082 3.3378062893477627 12.917200144570986 1.443067130495334 -0.2388634541032596 -0.43711736221527303
Ni 2.996810784091629 2.708058705379599 9.898121246491995 -0.36574122446513135 0.9925944300190777 -1.104649276435504
Ni 1.8389852406197553 3.021029713440752 7.481286391561199 -1.3690273298701003 -0.8534846363673881 1.8384840276480274
Ni 7.29930081191883 7.83951594654258 12.951349573898462 -1.1999968373995784 1.882160385490055 -0.7583000833437392
Ni 5.239444847196772 5.225423361784122 2.8031674200360133 -0.19528454107104432 -0.6801048657892351 0.1773456972044365
Ni 7.80961637587015 7.915230120407859 5.31702762876889 -2.103533139007719 0.851938632036507 -0.021054249567137934
Ni 1.583051566170668 1.1660740194096184 0.45896626111468963 0.25548100805528257 0.2540144508120851 0.2815681920606377
Ni 3.4669184916521276 8.714547157080526 0.8749203687560279 -0.8463557386320908 1.4908814217651354 -0.7105819513321698
Ni 5.176994739901035 4.32271865302727 8.467160307698846 0.25734325807500197 -1.5258489389792562 -0.5452710738050803
Ni 0.24289221512489714 8.022820543389777 3.4202430172863805 -2.108879748031613 -0.7162926285637019 0.040089926042350316
Ni 2.0862363088185853 -0.005225266335926405 4.0357224928771265 -0.16628378296332008 2.868438386372802 1.691628785722964
Ni 4.570745613699526 5.890233896099072 6.393627390769601 -0.42775134761934075 0.34034283899668477 -1.5026028239671219
Ni 0.486110489824937 5.940205066113853 2.0365847326083344 -0.6470489637755308 -0.1852047882375391 2.1013759834554
Ni 1.4799040512806376 0.9485193119497022 10.426119769385329 -1.212200321444306 0.6590907254314133 0.4792590285803295
Ni 3.6732874159534674 2.326642896983967 4.059164606071306 -0.4536942927373476 0.2022352613572646 1.088485522191448
Ni 0.0965201000128389 6.617780878979714 13.391825578426166 -0.3655368217638092 -0.10728236472844749 -1.6475135405713044
Ni 9.504220958726311 8.855085299737624 12.006748518939569 -0.6316657964512412 0.9810224089107622 1.8473008546087089
Ni 6.696644806814501 5.7772584098789626 12.013548662260249 0.36814906257567565 -1.7186184269379308 0.14524521712546598
Ni 1.9271783517659906 0.36165641340568366 8.292576188044062 0.08523901177516288 0.2491100715319323 -0.475083299936085
Ni 7.266556302177166 6.395219817703159 1.3695702941962449 0.034333997395179575 1.9796669017786614 -1.1521313811768674
Ni 0.5918507787303369 8.13864096867912 6.001873738847066 1.6568690136442754 0.5191828613584607 0.31458886996103236
P 2.6024726712873685 2.0102080832378704 11.958472304506618 0.3862192898138252 0.42416388737839855 0.8914958255038388
P 4.8656494113080155 8.353535473373 12.596637398129953 -0.1260997545452667 0.20031181908230664 0.25562139028788883
P 8.024806458649145 8.36081408371896 10.605002702815506 -1.5661764349537093 -0.2317070455641364 -0.014663772659761843
P -0.20666265502342263 2.059791307015938 9.206366922355766 1.2932710607743922 0.34096581729266434 1.5647247901088472
P 2.588229502310882 7.156545833623367 5.159625832674456 0.5228680235195318 -0.31781097644275585 -0.5199279670546013
P 6.633677437869813 1.335551103962522 3.1218643298147564 0.9423990401116092 -0.9043264016096039 2.173161955049451
P 4.310793924655904 1.6128772423218192 0.9701583988246798 -0.6637991866506762 0.6918427230514536 0.5474647390222894
P 4.992360041670819 3.9905997271397498 5.064992813998773 0.33355641220247073 -0.24645695017980132 -0.8525556967952155
