# total energy = -340886.85999148834 ev
CRYSTAL
PRIMVEC
9.13682973575354 0.00000000000000 0.00000000000000
0.00000000000000 9.13682973575354 0.00000000000000
0.00000000000000 0.00000000000000 13.37267388318073
PRIMCOORD
 96 1
Ni 6.659917452436433 2.2891504679608516 11.780322945037323 0.40914941624743734 0.1255737068384676 -0.8392247840142644
Ni 5.14199764871859 0.7784341408354236 6.177159346176725 -2.3146695595093556 -1.3022519241167638 -1.5977012450348678
Ni 2.8897234257184032 1.94400672331538 4.8161280464776075 -0.0008055266204308708 -1.1286878054419465 -0.05191314392952349
Ni 3.2308286916045557 4.6396182005230475 4.860311927890092 1.1348054883039103 -0.0675109983677805 0.5252223826843212
Ni 3.877350766286583 2.635865747327145 2.598912752996393 -0.8615370743582195 1.5708936379237204 -0.1444677155294931
Ni 4.889007969155692 4.816260530509306 2.7489806135901604 1.0063984257817054 0.39436223063593373 0.23608229181369664
Ni 5.3026870739225584 2.9605338564530794 0.5913676017620437 1.4863048581380467 -0.15062267938729546 -0.13048374254557527
Ni 5.7001757163330575 8.146698940290564 12.336384922876546 0.8281096479377094 1.2575077871318536 1.1068493694106163
Ni 2.4895120080357835 5.747559315531771 11.944726491543697 -0.1715458026932078 0.09484902406110117 -0.7809525306359325
Ni 1.1152414419967254 7.840002975326578 11.34711478031532 -1.4043650859394459 -0.8338815174244801 1.3936407575434064
Ni 0.7789805232558021 0.028123162038881867 4.604639675106072 -0.6822594502383927 0.9124878543744737 0.9183530549059991
Ni 8.68846726163413 2.740290574793805 1.6052286079722111 1.2482939818430696 -0.008352228619437229 -0.32796040617193195
Ni 1.469037764436486 1.29763997473948 2.5340686721029737 -0.03382903273430303 0.5691057143308327 0.31956061214401094
Ni 2.1543730919908888 6.827806699500908 0.761149999955322 -0.2607905931936541 -0.5748824689136098 -0.571465472812261
Ni 7.870593081403959 4.525937764497131 3.6473164578434014 -1.1789220190071503 -1.656123650837819 0.8505214399740062
Ni 7.891516421582334 4.08527760141291 12.902009506755368 0.5329968844234175 0.4775623576041968 0.17139153650353062
Ni 8.238588037309743 0.34506151317752193 7.343871291329276 -0.37925365712926945 -1.5692262775236265 -0.4839775171019214
Ni 7.1950615721951445 0.9106824423244372 0.5055535828584107 -0.6222049081486574 0.008906558461010468 0.1069604626126545
Ni 1.964381853707422 6.8385607481428075 9.387095762824131 0.623875610982861 -0.4007449942338259 -0.18749666959550934
Ni 0.2175305568999036 5.271201558527501 1.758306140292946 -0.3631405536174907 -0.16453748969617468 -1.2697197558170132
Ni 6.251482887958819 2.226407857915042 7.322528570664357 1.7139171648075189 2.193230443664552 0.624695278670679
Ni 3.5320608323647553 4.469664029930051 0.642063301753186 -0.3400361063895434 1.0155322697621736 -0.1483333691324865
Ni 5.848685747450662 6.027904663432685 5.088235628655892 -1.3679214984004313 2.4156966873567107 -1.4361110108924753
Ni 5.389532640907475 3.4356490046083294 9.619218750553241 0.5923376882755799 -1.7546447244338683 0.15262428319835653
P 0.332183151613583 6.084105303361588 12.848919957363904 1.3494846318514824 -0.8929104464631783 0.47035169878837063
P 4.3423148965649 6.37310322905679 12.88268602547011 -1.0774254077225445 0.24211435694038946 -0.3882599743929378
P 2.729052274173979 9.076691158655603 1.3785091413703894 -0.1056941943057212 -1.3593083028101236 0.5112193835370099
P 6.507378079389282 8.184223900165057 6.17386917377575 -0.38653707816456007 0.004925462326075388 -0.7017646101508559
P 4.932188626659187 1.2481183573740675 12.528524229839457 -0.03129161102442998 -0.30134383202566817 0.5088552541802075
P 4.198291048865454 6.557036749201277 8.425787974097798 -0.999115518967047 0.862981777224546 -0.5058493774743482
P 4.772248421496539 1.303679419218915 3.8507278716962996 1.5962735114494058 -0.6948817669880936 1.4783987159170924
P 0.21960918567308285 6.077216133713337 3.8207069901137283 1.1873724637673486 0.04424508586130444 -0.7797726513952183
Ni 1.009181122000838 7.807393629869537 2.5597303722012206 -0.3135851112868664 -0.2209672905491291 0.6947308432325261
Ni 1.7827873619846226 6.901550052592467 5.118337828023435 0.9903652835782426 -0.22832115981103906 -2.0179495994089445
Ni 6.2555761876967715 6.121337884683369 9.103126748235557 0.4561052161716854 0.7464562966312758 2.9266255362364952
Ni 9.083945801494743 2.5281699348020306 10.548779710553031 -0.3170522438998604 1.2101442102462256 0.22892691171583798
Ni 2.5757271337664167 5.351468608076421 7.139162447648724 -0.28337387781080875 0.20507401635764036 0.6081448305111655
Ni 0.6872010681938892 0.37766446285372146 9.522373837065611 -1.0656304719701453 -0.09372108110424504 -0.90867336572439
Ni 1.4838028813483874 1.0236355867004843 12.056829910750928 1.4784833052110988 1.6054536352867768 -1.5950769200381432
Ni 4.37962057252486 7.225569446804574 1.8625326985535495 -1.0883770216380417 0.47712141341203634 0.480649738280269
Ni 5.706260844961354 8.48192922463318 8.194106295246685 -0.40958264713011394 0.3892295373950587 -0.6194689972747331
Ni 7.315685998847943 1.025901520483994 5.137367103390031 -0.2611667455861502 -0.27717854763337424 -0.07857574082237435
Ni 1.0594976435564336 7.694572055842211 7.160972973997981 -1.547605356819741 1.0435220701068801 0.9646439675527386
Ni 5.203826575787178 4.808411993734972 7.68930101874662 -0.08653716176129612 -1.148993606878834 -2.5322831030949033
Ni 8.411539088068025 7.502123010350018 9.684677740090331 0.08409949885408097 0.3850820908855884 -0.3007892450737788
Ni 4.75460520320639 0.820835426759348 10.268622581345426 -0.31277572801169357 -0.5786347368671906 0.5542884468123421
Ni 8.207815194636918 7.507723887000386 5.06127649872999 -0.024464560800267543 0.8878206906450968 0.09277054426551766
Ni 7.686476824664027 6.792602494388558 7.458769666763829 0.15087284772488857 0.08085785198833172 -1.04734015830139
Ni 2.3796507668546547 5.165625490509541 2.790114621224678 0.41914920777262654 1.5223380976125203 -0.4424143489481542
Ni 3.697126799029616 4.921672135591365 9.745042033346433 -1.2415222103368748 0.15008197639247703 0.6217583075295421
Ni 1.085446240109528 3.6481351177909924 4.084910300856067 -0.853746374669207 -0.6368666239258903 -0.002661605992563158
Ni 0.6211207742322888 -0.05017033227923987 0.4347294468790758 1.072893324180146 1.154177979293251 0.9397222646103944
Ni 1.1910954027656653 3.6889219258941655 8.561693748544629 -0.344883921400148 1.2908146288140996 -0.27321776321341334
Ni 5.4397760678248925 3.4594321725054082 5.12875472764674 0.09914276634044861 -1.0053231904396558 -1.0697951448707963
Ni 3.910197669317701 7.326586236766198 6.13761606060555 1.025460584619479 0.4511118767221521 0.5049042399522594
Ni 8.372004025643646 7.48242400536112 0.6344852151401097 -1.34264164078772 -0.735303622448566 1.4312238580035028
P 0.4923883248396242 5.903561547062593 8.087431980290106 -0.2474761354729351 -1.313993380923408 1.3478391258282594
P 8.79115609144407 2.093320795452939 8.30515258324927 -1.1253811096662167 0.6494112933601203 1.0342509292175994
P 1.8524922363168612 3.8933310815581894 10.8433666350199 1.0915875581555394 -0.3194474836049144 -1.1716488823845048
P 3.8412237413672394 6.6019625411912655 3.959608731042869 0.25518430275047016 -0.0857545179590007 0.019588206544572717
P 7.246017671834794 4.220776786934878 10.385605981333999 0.2591764546289988 0.30406277361872797 0.9719348447871972
P 6.416804685857301 8.188006547690753 10.14876290734456 0.7013984850606887 0.3038223754731477 2.033332252512601
P 2.3879378714580546 8.981348339982526 6.200962615099304 0.7192049171144904 0.6822638211137669 -2.35096042352059
P 6.886657020063754 3.9606969274687405 1.5891550970369281 0.05972518377477455 1.6435887515956018 0.6076558066898889
Ni 3.212408842783767 1.9225260365208992 0.42963566428106514 -1.6696085726981311 -1.3927958930446076 -0.23116428568678898
Ni 1.4736518634714555 1.519125865247776 7.296679565555779 1.2932121825119987 -0.4634390308289374 -0.2684709925570473
Ni 6.966485501783607 1.3253245689492952 9.391281344542783 0.9349227863392221 -0.6035803510689347 0.7534406983689088
Ni 2.5867826977907984 2.1037733287123546 9.615366663121275 0.7279626087024624 -0.2877565802595367 0.479461888619755
Ni 6.74866348001397 2.213607159404167 2.920872705777843 -1.570238777948541 -0.09572988400415772 0.21034657761048933
Ni 4.175905815923524 7.419946363378704 10.714841591663063 -0.27954601942428625 -0.6269215968980365 -1.6153253858745342
Ni 7.6410210965472505 6.678940332022187 11.950637106723343 -1.410419519663642 -0.3776246061662787 -1.2954217885688077
Ni 7.845841409551024 4.263290455865 8.235667906514543 -0.17437504461188677 0.18499652888147491 -0.41265048742216026
Ni 3.1392319731380867 8.433312153415217 12.645654732787362 0.6885609669763884 0.6870118773217135 0.23688216200717266
Ni 0.13329172744900072 5.499969502364254 10.684846293203854 0.38133367958674974 -1.6060483314479825 -0.7098874963683064
Ni 8.754727551142244 2.837488169910643 6.229874285547527 -0.02704080616787601 0.5805954601379872 -0.8798281593579235
Ni 3.8732209192295413 3.1917047865199253 11.879052786506959 -0.7217415674934151 0.050040866607475115 -1.2647544413919378
Ni 1.2662001434932837 3.8353487598237046 12.962801403644809 -0.6114600109273276 -0.4772378843852426 0.26452229232194446
Ni 3.210691118786591 8.642463323731022 8.199174494721333 0.09856118280536574 0.6777345657848457 0.7374381522930654
Ni 6.001709372475741 8.529577791895289 3.6614246366946808 -1.6701220219994397 -0.09017218741072212 1.5373350852419847
Ni 3.0678824694468494 8.840485835384266 3.900006449389771 1.1625983421464623 -1.040338530172576 -0.49976151940905544
Ni 3.8173035210235775 3.063642980432541 6.840524252860856 1.7704603513098864 0.010211650425679187 1.1066855901392423
Ni 5.751972404311752 4.691286972884931 11.927047639617435 -0.5505464632714067 0.5883745898627738 -0.3156664192959273
Ni 8.006576518903854 0.06607938027862295 2.697535693557696 1.536540357254831 -0.02325665653509543 -0.13383286152346627
Ni 5.007247683237943 0.5998840407927265 1.6707415048049565 -0.5166593236056587 -0.27311080532190385 -0.3775351317762659
Ni 6.039636352860211 6.000795689498519 0.6656408909803903 1.7787938108762462 -0.9329124407774128 0.13951551373054039
Ni 8.08208328014145 9.230025435892937 11.840687238293423 0.07119487497727094 -0.7976852700095811 -1.502765574797231
Ni 0.09649497290735388 5.475976187382414 5.9208447742597174 -0.8795900752051885 -1.8844522668480255 0.49586064169275246
Ni 7.474904394458585 6.6989317155637975 2.8831622682589746 -0.5264380002589772 -0.057063577782211404 -0.358794360833653
P 8.748130760046704 1.8933064549093515 3.8023593222481407 0.5957264022421547 0.42280351669576216 0.4665256401740611
P 1.7815538899653733 3.3676892647625842 1.7548825701772968 0.4696677853474685 0.08794201252862274 -0.2605535374821835
P 4.35414709111992 1.6430212769590296 8.274221673421387 1.0373668491387618 -0.8038726297672156 0.5287555926485604
P 8.886773015010315 1.9195382931853844 12.74351657542864 -1.6855638104758068 0.8010654993357236 1.0783957420556136
P 6.43044597270722 8.016891999716686 1.5450918217774376 -0.04033546639425312 0.8280854795679932 -0.755246641229396
P 2.0005545627756267 3.323996944791846 6.131945744048913 -4.068019990611832 1.8894427780840815 -0.17364150887997193
P 6.909097073984317 4.669788012430905 6.035850050602605 2.6983570840402624 -2.221663502194264 2.1325860905096174
P 2.520696008048358 9.126130544553066 10.402188413687593 2.031423979746295 -0.6206360209996409 0.20614076705925785
