# total energy = -381167.62305999344 ev
CRYSTAL
PRIMVEC
9.28170431086720 0.00000000000000 0.00000000000000

0.00000000000000 9.28170431086720 0.00000000000000

0.00000000000000 0.00000000000000 13.58471246799983

PRIMCOORD
 96 1
Ni 3.4014290128519793 7.561822978471491 10.204197006025158 -0.7359659386229132 0.9187842289061467 1.0415490055409093
Ni 2.1838086468398883 2.928043535035547 7.441963691232117 -0.35402445024883544 0.19991895451926212 0.2608551278830024
Ni 3.7506345701220396 1.657712370848492 12.966105461171056 -3.069688915219294 0.48833913650472666 1.0208243713990484
Ni 1.0986381998200034 1.8928365017462188 5.553376353670526 -1.27899115381661 -1.285374688745451 -0.23997134245545773
Ni 6.633931009189722 6.885632263795934 11.378351151249548 -0.6285928139528724 0.04898799986292853 2.468235123575059
Ni 1.906842593390174 3.3881654575443503 12.44577033897913 -0.9625238358859423 0.618948863105205 0.48037977244833396
Ni 1.6554569167269007 7.696862492936634 1.9757601752758802 -2.3231014923267925 -2.4201269552139224 -0.9295070146402896
Ni 4.689608894223477 8.887593761869509 6.469868533848843 1.4338548678684466 0.4456477682837874 -0.3941506288457599
Ni 3.451169665681638 6.660346739354531 2.8928649479316677 -0.8593230974260363 -0.8328705596614624 0.9971645658882633
Ni 0.9760732958051416 1.3188373503575712 12.672770194187027 0.9246782257930783 0.4853674554709125 -0.021967248299710553
Ni 6.878188337024263 4.133959672046294 11.619493539153199 -0.6507904330958341 2.2830614456857714 -1.6058246454729506
Ni 3.1581369822546628 2.501001606310081 3.5501339804167884 0.2801926518693497 -0.43108066910288984 -0.866798836977791
Ni 0.35214600116191275 5.907294232164998 5.5109914514225995 -0.38545258685112976 -0.3201532514226873 0.3589015758354787
Ni 4.872848298620403 5.1834048395846795 7.14016536635481 0.1781440247360158 0.6004364061233143 1.5178558934714506
Ni 6.180139208948101 9.229114068058593 4.287892095418841 -0.8917768470793676 -0.35205215701381304 -0.3141625810568912
Ni 1.8380744469421533 7.5383866753561914 4.6372907121363465 0.6644519897433265 -0.5705851270898367 -0.4093319645718886
Ni 1.3832523775338788 3.0499958465729393 10.213611438599354 -0.22558370627521793 -0.25053163446980725 -0.6457821812479652
Ni 1.584433316157289 4.03691945459265 4.47682860985623 -0.7178620299333508 0.3623699940000533 -0.5691373388997166
Ni 5.970539764611591 6.363787008330005 9.398583136098345 -0.33155429417077736 -1.2476080115196384 -2.493373313403583
Ni 7.6471218401069745 8.153652283636173 2.3502908624667698 0.30797624974052124 -0.9635965001248309 0.7111859034647559
Ni 6.470266718959199 5.426436982464281 5.401105355350509 -0.4530204065987747 -0.6810924265134851 -0.01659904200926173
Ni 7.6036184925024575 7.679227254948883 5.594333729811865 -0.2535439389335698 0.8342687255605696 1.6319673653065894
Ni 1.1910282834674046 6.796165916972817 9.300569267873694 1.010522475252408 -0.6418273103652753 -1.7581234270110884
Ni 7.555325785528635 8.035236301400534 9.70372287448912 0.46667656392962853 0.2256904070564113 -1.5046599636064666
P 6.067431474797971 7.210631136501757 7.108336546298183 -0.812469370297291 0.005798608959648078 0.5395125740547483
Ni 3.494812238849217 2.2730986412831276 9.270398160187915 0.24543776488666766 -1.009012980586417 -0.21097444100247537
P 6.496450406518905 0.34118245215605475 1.577918487976446 -1.8699826124769408 1.895348344935239 0.22911537357756023
Ni 5.6709541980165366 6.641421344482414 3.5526604603011385 -0.06080067622714045 0.47556692444072296 0.18011631797103816
P 0.882993581535377 2.2186243193093884 3.2744729345781676 -0.47555098360112297 -0.20829123774335737 0.3976203325619152
P 6.457253769665081 4.478849236861458 3.2559299459192586 0.3570159287769916 -0.49382895597470433 0.7617954980915074
P 4.117484647084054 8.275251890413811 4.409529757183715 -0.0352595945332425 2.1771093697329733 -2.3772928907675315
Ni 2.9148171065447346 4.88719781331991 8.862734573499724 0.2693611084714845 0.17065851499224802 0.9161920426989382
Ni 8.682245338058467 6.076657488776825 1.5871287230581534 0.21345529844280012 1.6400591411757883 0.5084906717519372
Ni 9.064456635478232 4.63693522286533 11.550143429851582 0.9741526783741223 -0.18560510899975133 -0.3604200693625341
Ni 2.5839707601903417 4.437564216561715 2.22317885156233 -0.3885839333912598 0.7236660382096375 0.004727487382656374
Ni 2.5538516300481056 9.11803991384838 0.48017782895297717 0.07783911976666594 0.9137587506670972 0.3716750734510631
Ni 5.2251075365736055 4.052661224922767 9.541494463898967 0.7322928606467001 -0.44899868703389123 -0.7358900910796552
Ni 8.869707917868249 0.6125098703017913 10.166581043397288 0.9130648099238662 0.7044329010116384 0.68762045743999
Ni 8.75063293463412 2.0143340097776115 8.28940463298419 -0.8263862374886993 -0.6140807363796262 0.6146975440280188
Ni 1.9834352164822329 5.723070967122439 11.281057543271132 0.0681612303572697 -0.5547548449257995 0.2272577515435312
Ni 0.09169766851377711 7.591051065010134 10.97738524231502 0.3587555371759176 -0.42329202629640644 1.5468975321194391
Ni 4.358419124813534 0.6747334871155158 10.98311762283146 -0.8065476054962174 1.0427846777202237 -0.5816182449755467
Ni 7.806433011065786 5.861999515649092 7.331655277618742 -0.08287591085962501 0.3247277581672472 1.088971717799247
Ni 4.3954067160667885 5.797315319050867 11.195201779383401 0.8717759784774084 -0.7787431816894395 1.3236239620346364
Ni 5.2174686940136485 8.967137966898465 9.156789172559568 0.22200601622628863 -0.5167274578394327 -0.6701007033886718
Ni 4.563916055891841 8.156900880107601 12.40828988923264 0.6745687664623544 -1.4293243269879448 0.7169264054929588
Ni 4.442789816028611 2.7877041674698737 1.5613181600074508 0.32263153775985076 -0.4858148274209762 0.5546838824785479
Ni 1.9060907753496432 0.14028182099960773 3.202677096218776 0.9502897557135958 3.013481514789791 0.8532192985211434
Ni 6.756932153302175 8.021972746092906 0.06246865380471223 -0.17017643314950692 -0.29987393234836096 -0.06591305775304132
Ni 0.5503632916329606 4.830922840730579 7.987036411468753 0.4535870777355221 0.4277914568286568 0.9834608431489257
Ni 6.927093636475554 3.6398667121505617 6.9849325762232715 0.012933934452848692 -0.6268254376398044 0.08304663210953439
Ni 3.965496740742262 7.14530650231345 8.251558484092058 0.24319062072370376 -0.6046075067818685 -3.073910923720441
Ni 7.8076674777249275 1.252352503143754 5.910939157405939 0.23619259213931584 -0.011546310076702695 -0.09185985952579018
Ni 3.658550782713373 4.270567794521928 0.058274251674888984 -2.0298165260498586 2.0460525282927473 -1.2200959221422987
Ni 7.8137098671617835 1.352437119576337 3.3845901450849394 0.6907152943152298 0.614547905824032 -0.7966573429656989
Ni 3.8922455311636717 3.4403007900586613 11.316309455838223 -0.9200407270210671 -0.14678016571275365 -1.3427491128998619
P 6.50265058492723 0.08209574551465748 11.026874360960749 -0.0028055877695951684 -0.2187718255597071 0.257591369530066
Ni -0.1594643190781776 8.614758066790609 4.088088561699316 -0.37065126017223904 0.7343394587630838 -0.7453170408205099
P 0.7249855618468194 7.976065437099531 13.326630056717992 0.24778955294829585 -0.7036073197865496 0.2032225649711984
Ni 2.381490382978361 8.689299433253566 11.893021649365723 -1.723182392159529 0.6682986171829265 -1.45551975443639
P 4.714038339688614 3.1964425755048964 6.776719818494852 -0.12369500175851601 -2.083364120259012 -0.22549834565026328
P 0.9129437846610988 5.857906284095093 3.140690162862256 0.5728307285909038 -0.17344739059129483 0.794999752757618
P 0.1117183044819753 3.199951059694038 0.34790983136317116 0.13445069761312328 -0.1684579077965034 -0.27199751765306707
Ni 8.610284285364243 3.9525487633775724 2.5828615965379544 0.5184439263099071 -0.5610499339058918 -1.3424871174877266
Ni 2.0498272466540093 2.080698194836776 1.3834807074572992 -0.7933699304636788 0.3068264524067942 -0.6630882766265805
Ni 5.418593942411835 3.2042484887405265 12.893481694796662 1.70638923186159 -0.7916290365131721 1.0644187110502314
Ni 3.4104229842257316 1.885095560440017 5.644053962892274 1.3656540425224932 -0.5223214069874424 1.3133261796530544
Ni 6.83180766111648 2.633219482697185 1.2403280553473697 0.13363591502131178 -0.5109591878970877 0.8066581629321528
Ni 4.035573607483058 0.6040198954663204 2.0086489659526134 1.3321073169152993 -0.5252010425280825 0.9625019815090715
Ni 5.740223556491578 2.471541477166334 4.6133411307785614 0.1422992471232646 0.7946176868278508 0.015618423263547296
Ni 1.1072330579129803 5.333025911354432 0.2654632374295995 -0.2730215880422072 -1.2953541685556658 -0.41151791647961383
Ni 2.843375829285939 0.16236299530111142 7.578530974209253 -0.5766277337394908 2.269493991413982 1.89889338197402
Ni 8.539279248203039 0.7568004593471407 0.7910360253038857 0.3758448885580366 0.8739778712247335 3.1852749147174304
Ni 8.495228280050481 9.264765093906458 12.422322897818788 -1.8265816197834865 -2.1112513335875835 -2.274716673265502
Ni 5.893121069845368 1.7890948938572289 8.241329117888743 -0.5319301337218 0.5498880037518014 -0.38143343838940763
Ni 7.810461270690356 2.253198667469582 12.601382750812617 0.8979444093426601 0.6957497714153437 0.5645728594574858
Ni 2.422227782730063 5.145210626784895 6.426655703585914 -0.17995408136156105 -0.00803084072427649 0.9125487895193962
Ni 8.19747120918363 3.48364634869171 4.755151648460581 -0.1899595293137051 0.08400025427205533 1.2313876930060341
Ni 7.049491469814742 4.979884911501841 0.4385298940188547 0.6951869569333382 -1.7413112405497557 -0.3971984145331482
Ni 1.9553580612648942 7.533745823254152 7.04884917588382 -0.5494077216812732 -2.3179932245659494 -0.6324538395701753
Ni 6.9849743438921905 2.115987234220684 10.439511411859069 -0.5699549497050055 -0.04038354602336916 -0.9826496601015401
Ni 3.9033928579127704 6.731091888798019 5.63698965782255 0.4778174110377964 -0.4655856448582949 1.3803599812741
Ni 0.3606136999072939 8.877142562935715 8.16522749694908 -0.28632447579870046 0.49285142255278347 0.5929940909126561
Ni 8.291392774024704 6.500348722284619 12.886050762410875 2.1444262776776553 0.3152110769260636 -0.14669557641874736
Ni 7.115243062396439 9.05999213575607 7.678174709692142 0.5069531520614882 0.3215717290367687 -0.5724304078286916
Ni 7.943895050328194 6.351767201385724 3.898839253830249 1.516453613807285 -1.5861050555568361 -1.908782616063274
Ni 2.7731597369820826 6.830749546837215 13.44919124805117 1.0775179674363506 -0.3231730120856176 -0.009643693737351133
Ni 4.907366956555373 7.624873595129798 1.535616192895936 0.3617938097816092 0.39495024192891987 -1.4610447980196772
P 8.40283819640308 5.694993811905101 9.649261546901268 0.09883680506425559 0.641808798422514 0.3440637394916978
Ni 4.031693855125753 4.674702477271727 4.714587816577494 0.6279826911726991 -1.5586153347769995 -0.8420242011362724
P 0.514092247944261 8.840544803259032 6.045496023252471 -0.3126911387176873 0.6419154992037073 0.27059575220953397
Ni 5.719441820778645 0.8200079368064976 12.987840427905748 2.625599235451246 0.20245046269186426 0.9825524724020434
P -0.16999626883854593 3.3250127421397977 6.77432885149188 0.27453879601768205 -1.3369736438686651e-05 -1.9485663237191153
P 1.8322919452230122 0.45952046807637914 9.96152035241657 0.33394490589014103 0.7335938388463108 -0.6723321638223517
P 5.439440650054196 6.121358176223668 13.33397931010678 -1.0940594167347997 1.1435438966181724 -1.0294589071455948
Ni 5.077491312911935 5.012352312807709 1.6247316913001384 -0.3178629127266139 0.9889378071030969 1.811578461506435
