# total energy = -340869.5781171069 ev
CRYSTAL
PRIMVEC
9.25673033020756 0.00000000000000 0.00000000000000

0.00000000000000 9.25673033020756 0.00000000000000

0.00000000000000 0.00000000000000 13.54816052289799

PRIMCOORD
 96 1
Ni 5.61242958314036 4.701891315550948 6.635225143718982 0.12732385676035493 -0.13655154600620997 1.1078937515147307
Ni 1.0263677327685548 1.1727814345777525 9.855880409124973 0.17427220048543537 0.4017952898752113 0.06810569452898593
Ni 0.8428437995277912 8.189095978841255 0.9023849396161215 -0.07435681764502032 0.2823724331294879 -0.3252296375043302
Ni 0.009978755171670682 8.317727501907614 10.159548369498047 -0.9731869720267433 0.04927673474794094 0.19234756992990745
Ni 5.317926711353066 8.198787775376264 5.147501977039419 -1.9077752578446825 -0.8246044629979282 -0.26146370800127877
Ni 7.4829278009365785 3.1868237678165467 1.3729572998021136 -0.13184385611789554 0.14771193349840367 -0.656286680323715
Ni 8.962958624807552 9.075344586346748 12.496444162153335 -0.6479501354335615 0.6306633233286557 -0.3634853385514191
Ni 4.443258273346422 0.4346414361838055 10.896514614500743 -1.0166221603922427 -1.1199411695975678 -0.4995432327506623
Ni 0.2349774681403288 5.372772837876395 4.749876353638987 0.4655794742107079 0.7733508070292746 0.35849328465346647
Ni 7.566664182460634 4.976621811599198 3.2045735480036326 -0.49399890589366535 -0.3959272611302085 -0.10132666136564486
Ni 4.085661528414316 8.03342554681715 7.874367151534387 2.987094025935198 -0.08191817493204602 -0.4536433848947542
Ni 3.1102891223996885 5.9819952802403416 9.789169005812175 -1.0145765907171238 1.4140699719320355 1.0515212862622727
Ni 3.1788352096410812 8.813980808728825 1.420280481679787 -0.4867044291147811 1.4578548303274699 2.286246528281972
Ni 6.830494941929441 8.161751597786417 8.44299698055992 1.0824714547868841 -0.6029645718618067 1.186601647039595
Ni 7.239540593396005 8.977093651845717 6.167393701349624 1.5117765200465898 -0.4731194913414949 0.6383545213253264
Ni 0.41140056363323635 5.30893842631439 11.205900457127568 3.5098880016836844 0.06404232309288971 -2.5945246255336283
Ni 0.567365359678176 3.330571531323851 9.15437021786444 -1.7638155922998593 1.1073970143839704 0.010432765297549775
Ni 7.334672009814613 1.5451796911234958 12.951946565549456 -0.9512662606942522 -0.07556549324114083 -1.439284266414134
Ni 2.76351349508881 3.609143570411289 9.627702009327495 -0.5227757209160415 -1.235379073553614 -0.4967929236990347
Ni 3.7582232105223796 5.869211279301903 5.231703046420264 1.5799560052363049 0.007739534736102799 -0.6956834369537825
Ni 2.477795260275464 0.38678506664575335 7.019952439237961 1.1790927402570597 1.0221659730286072 1.4717166759112268
Ni 0.18020446978569743 3.5350989854222403 3.316521666203664 -0.46015701764355593 0.6586916902207818 -0.7441327907044217
Ni 4.721423016304403 0.36623049720355044 13.417922033510724 1.0188291953458903 -0.3158466536275335 -0.06967355323673807
Ni 1.9926315162517125 0.47785000148095247 12.203451063064092 0.07328801006087379 -0.2738011465207091 0.7841342707980238
P 4.924450880107977 0.9871562235782049 2.470181599673702 -0.2858891880334947 -2.0285512861841903 -0.46977397190802966
P 2.024409871079491 2.8709378492328157 4.550366047317078 -0.7915660444857207 -0.6550584643435686 0.30707559230312276
P 5.251759603776905 4.013551600040183 1.099662522610195 0.006092743161299184 0.19281602492589373 0.7649253019697407
P 2.1715826247663115 7.520565665990394 8.10161062158016 -3.3630034491825818 -0.6334565698030769 0.030595870508986017
P 4.23538913964045 4.8063627727563984 8.526006708762106 1.5179196568298503 -2.0837693261172303 -1.6612406603494099
P 0.20013976397652303 4.201953830104203 7.237088485562076 -0.8758694318204916 1.0253207166075051 0.9324923225208585
P 5.661018160038411 4.4970028489741765 4.481243265783296 0.32805476565795116 0.4739425014634225 -0.11107628455324095
P 7.661823369069888 6.775037871211929 10.305963922653287 0.40364622704102093 -0.9053178189885958 0.21777578019502492
Ni 2.9464449975958193 6.3040739513378465 1.6754061488058842 2.3229785935956833 0.8623976225863017 2.2574252331749056
Ni 0.05477947806578178 1.722705263184999 7.175607134820701 -0.3686059476074362 -0.20232267886474833 0.8875003311912005
Ni 3.7485869543686605 2.1008612059244154 12.133421121969251 -1.0951382516212753 3.4055068697624318 1.02942933945924
Ni 5.123896389318382 2.896727099611549 3.052508612398234 0.13465561453507777 2.261018092732487 -0.0187310007506
Ni 7.278307779536039 5.31804704884586 8.558088684340934 2.3343025032489346 -1.2188458517852814 -1.1599729887084733
Ni 2.30285231594392 4.757579804523834 3.5433448806976804 0.42461614442446866 0.8470255110056059 0.5181567340867914
Ni 1.4648960699696 3.414659668596074 13.322542536722358 0.25197505178455315 -0.4750555320219431 -2.0488203208458717
Ni 5.296173395348032 8.1236786664125 2.625037439438896 -0.24136153793476495 0.5605030602634863 0.1580552244059407
Ni 6.668011556467164 2.8505637860298036 9.0962759047087 -0.2825454683722425 0.10814188451526537 0.6483504561957737
Ni 8.627541005470366 4.366853222152572 12.68118628109038 -2.046434080001882 -2.2373942826659596 2.9896317047553866
Ni 0.6314848785307999 6.431872368684864 2.450225015003382 -0.3771522945155505 -1.0129830209777586 0.6164669772236158
Ni 5.881809689124394 6.043284090993247 12.139273226811113 0.3045908782080561 1.5356993494107747 -0.8468856429936318
Ni 3.1896007868810194 0.78760518764335 4.261546807881738 3.122650297907674 0.09911242732314543 -0.3861678677505994
Ni 6.9791024887995725 5.358397135852643 0.5983772572441605 -0.20133434680955004 1.1730313645543282 0.7596864221683045
Ni 3.4762724649065007 7.498395797125689 13.189676059582679 0.26882786167583383 -0.655980976157838 -2.2285864545663423
Ni 0.5674023865990357 6.241063388764968 9.212152579211937 0.357428590834378 -0.2544710787335295 -1.738857636802941
Ni 1.9828656658749848 3.2732723712935714 6.747512058244879 -0.2050398206855953 -1.0960903311218995 0.484478625108056
Ni 5.593823555408395 6.360169736440188 9.37490718686951 -2.122705598171112 0.4163217656261604 1.1536614446681486
Ni 7.605181436884866 8.849572936405146 3.740335505055092 0.5852267882624115 -1.2652190397331822 0.2985030201427633
Ni 7.612660874898512 7.100874774776686 2.0594558516731327 -0.5090773974933426 1.085970211968762 -0.5377002034363579
Ni 6.238934340815539 3.5947400981968918 12.68580631514064 -1.6047578947713332 0.06609612029812488 0.8150268466118221
Ni 2.6454809281185194 5.581215888855691 7.22557218750171 -0.4258952682472084 -0.18235831992767948 0.4912791929696572
Ni 7.259275942214189 4.331427715620119 10.81701411272303 0.9018262608955695 1.3882123874389833 -1.1320986308957084
Ni 4.0641674008552995 5.032921244766268 13.186830540714615 -1.1097130641116566 -0.3648482803372168 -0.4254378689948157
P 2.520228111580601 4.351190834628948 11.640241049579387 0.6769447228936986 0.3501868216703001 0.053332649984869446
P 6.2699721572261256 7.870349730621117 0.14869548580717257 0.11808279777806116 -0.7157907492266188 -0.069445496386332
P 7.589352428217373 0.8654561400967682 8.423026510794276 1.2174934515224451 0.47822775910233767 0.21423202870782462
P 3.099292126904378 1.4023668573678973 9.274013455892122 -0.831414029720594 -0.3057015947737316 0.8429006902039549
P 1.387944871693071 7.439347115084791 12.205943900510968 -0.035225141750881275 1.2287091177326064 -0.18677984603414283
P 4.715415398394928 0.6239193529261556 6.373650312652159 -1.3670966885062907 0.6272198448647456 0.967310201530992
P 8.904585684072343 7.396525481110627 5.0942979944562135 0.743056012700475 1.2530183839019322 -0.7040300091462649
P 8.400343819075667 1.4360706120803768 5.225945360226591 -1.4543666146685534 -0.40429543058924566 -0.31544787552721804
Ni 6.769585657115348 0.48279772378082075 1.322438694654254 0.5536572409862465 -0.5765331171431555 1.0477857304792406
Ni 2.4529501963786506 8.484783712096057 10.070144092063403 0.13281573311286157 -0.597328456621952 0.3253355669545752
Ni 6.894320096761231 6.4442301035217655 5.092035649591691 0.3503287465648031 -0.7386242021813666 -0.26635008955930256
Ni 6.424911307563254 8.527290617242913 11.301713168889993 1.349811933283914 -0.7383195264567542 0.4762274408428572
Ni 0.4039100175433329 8.330122263665377 7.086582383324868 -0.866968786896752 2.0050246638171596 0.7961526354151385
Ni 2.10690585075475 7.574976726193621 5.7041008338046355 0.11381579497159108 -0.2555763959825663 -1.3842276917596226
Ni 4.136508747484805 2.437269295394597 7.73960304470065 -0.9295592080344637 2.8579313161938913 -1.6866992096318307
Ni 6.507212895903999 1.9785150026739782 6.986041333768667 0.42106030875241035 0.700841069895322 -1.539617453518258
Ni 5.200819817404266 0.8448562126765122 8.669698006215098 1.5784110293466882 -2.1153753830582858 0.7193195883154838
Ni 5.964018710162991 1.2580636900476987 4.791713071518284 -0.6442516035360517 0.5103230969749857 -1.5842569466045038
Ni 0.08736594544132195 1.7491980250600654 0.46344745493957734 0.9391152271540149 -0.8153670035600603 1.4942963609839555
Ni 1.6004979108877853 5.824232827187667 13.755582558578984 -2.0861650800429166 -0.30274328347635604 -3.2323459000633044
Ni 7.61491951707095 1.881569267133248 3.2026092698520294 0.3679922252828372 0.5706391202562237 0.5304941726062218
Ni 5.164459381120109 5.834072731406114 2.688388649683682 0.15558079472351916 -1.649079599506844 0.2656934298119102
Ni 7.929435439582874 1.2701344662479384 10.560424956549955 -0.23971808879407103 -0.542439003672924 -0.3541722886806094
Ni 1.5375706588868416 1.8537435361072347 2.7513603339896573 0.49847545360778023 -1.8726604164194198 -1.77116740467924
Ni 4.909788219447564 3.8434869525318964 10.505162277166955 0.19650761484486803 0.764923759307844 0.5929400977462692
Ni 3.813337782221941 3.4243884920519423 5.403073818561874 2.176353465403555 0.03067377493477298 -0.5944645048105955
Ni 2.7403531560911105 3.858408801638328 1.43892261065959 2.0900042512833488 -0.757377828639786 1.3088995113402684
Ni 8.562771664156655 6.771862812748215 12.442034027623128 -1.8468905065441676 0.6818203058184452 0.7290902945490024
Ni 1.431136774875831 8.65978219680889 3.3644150626625757 -0.5596132014593652 -1.4726361024017025 -0.5097284008137801
Ni 8.86576295755102 6.26805601407164 6.9693088682322 -0.7718947913090383 -1.4769789527514303 -0.06928505954906777
Ni 1.1976542686652099 0.7639098096392288 5.177727978210158 -1.747945715147138 1.059791496690865 0.5009434555322986
Ni 8.28799488445733 3.537876004486713 5.619153671968469 -1.500833647881841 0.2348772157620019 -0.37675043109144146
P 9.200699226917031 2.386634981119051 11.902776729242518 0.5253216272663469 -0.5426848011351427 -0.8283708720188959
P 4.400816165311069 7.514039671188883 10.750803498514859 0.04154517043163813 -0.06552584961695167 1.295834450626194
P 5.903146452269756 6.872862996123075 7.02344778056711 0.00046305567934758955 -0.20242732276341266 -0.585156082925476
P 2.4582172758709335 1.5449390161379082 0.7156359615684843 0.22700912586783484 0.16362731917707948 -1.1289546859500879
P 3.2860559157203593 7.175224831862826 3.602103827082851 0.08867194871611181 0.7735410686632097 0.13818445362394266
P 8.983314174550134 0.4550654857299783 2.149063777172505 -0.00499436789079785 -1.1161953294018907 0.46305002292063474
P 5.876977675952212 1.962343494988534 11.259848680820049 0.4789283847137881 0.31152848586815385 -0.06558652765155802
P 9.2835747325311 4.645110532412702 1.1843884485942253 -0.777752792751712 -0.050150909822778145 1.4408698657336994
