# total energy = -340861.6683041536 ev
CRYSTAL
PRIMVEC
9.31995954594773 0.00000000000000 0.00000000000000
0.00000000000000 9.31995954594773 0.00000000000000
0.00000000000000 0.00000000000000 13.64070287144486
PRIMCOORD
 96 1
Ni 3.7127829392135907 1.643658734431569 12.812617095001785 1.771712992770065 -0.5236812634494465 -0.2523604601484299
Ni -0.30082312821499374 1.2742435004108268 11.74940543716057 1.8493698213225955 -2.926326516938838 1.34748842735706
Ni 2.872560631958451 7.152025067606262 10.246691517991819 -1.9569344931781523 -0.25739082348348574 3.4175044084439397
Ni 0.40978650251249626 3.5992192329153663 7.892973962438193 1.6379752620635664 -0.5068184262558368 -0.3745930184288065
Ni 7.171429223249505 8.56667375762585 0.9408387258398243 1.228589818545923 -0.7232099245088255 0.6805913185073504
Ni 6.898671289025142 0.7211057690970477 12.858353864167803 1.1309735161523295 0.1874241644863611 -1.7706871226087117
Ni 6.016145685677459 3.1813495295434153 2.251548431719101 -1.542532313172208 -1.37070626023442 -2.2690728447161628
Ni 2.3361876437623783 5.711653289414077 7.095020467425511 0.04563116757555367 0.8303665622926859 0.9703518165707934
Ni 6.758946456458627 6.962969689497153 3.7308683205900133 1.9453953821903012 1.1917055439250637 0.6133500288611888
Ni 8.12155249272612 3.198712614059919 4.485581863582128 -0.5720532269949309 -0.36277648540985263 -0.3991162003811513
Ni 5.082211185822511 2.225662244255554 4.323952330243129 0.7522135108300271 0.17175869003496225 1.4081052697081686
Ni 9.490141942981586 8.765011815379854 4.6421767548085064 -0.6442032667966197 0.9485015534649214 -0.3640910904562181
Ni 2.1087433525435118 1.6722710100438425 1.396289301834371 0.5214780851505406 0.8531097695264727 0.1313715444671673
Ni 6.779263968131186 4.510711270335671 10.543321596435486 -0.7481943623683049 0.2050480482157114 -0.8750351088446543
Ni 1.2638517455874767 5.634493344855767 9.580779480948008 2.132927533009436 -0.4226497647267172 -0.536283011373857
Ni 1.341132849619063 0.9903948144019025 6.77409605059796 -0.978939044019172 -0.42068184236706896 1.5332056364546434
Ni 2.04519986878961 2.973011155264341 13.264873720881567 -2.222213975381096 2.5297677928722173 -0.5405772678738368
Ni 3.5644930638823595 1.084423885624126 8.08796801872976 0.12410200738894757 1.1293696620003195 0.38266011170765707
Ni 2.9815202782721606 3.201928000081493 3.1903554063916695 -0.24700150982936173 0.1638180950316469 -0.7467041509760237
Ni 6.38166517663438 0.9502351089904087 7.896575194782357 0.3388690826646357 -0.7045349738071415 0.5280264277920197
Ni 3.7331936504809784 4.776786793610847 12.925465960407678 0.8375291414793963 0.7876129733752435 0.20959427282549709
Ni 6.4687415580824155 7.904779555115089 6.3779968405819405 -0.101025070964826 -0.17594778841564537 0.07756324039745997
Ni 1.11742586215281 4.434874760023922 5.226898896813631 0.8220223040930488 -1.7319279995626429 0.8515755922701335
Ni 2.979954525079046 6.877300621931024 2.904665096388939 1.5417797512768996 0.5797547094042467 3.461932299740012
P 1.4021133445151883 7.656999112304698 8.453402698055386 0.2761375079633696 0.6098278746405433 0.2553316269616119
P 1.9722898257554684 1.3004791863549796 11.424906815871354 -0.2076723732124359 0.566754697600153 0.033109123849142975
P 8.570131462593979 1.5607297349533904 8.116204699974874 -0.041113482210858227 -0.6314423675865254 -0.21378439964744472
P 1.5571042707145715 9.434501784869118 2.722057266250048 1.038914653241856 -2.0276202897294886 1.327231733990553
P 9.310369244517371 8.670675185494698 12.942912924559526 -1.4314709410173023 -0.41600346305479324 -1.2394866679640848
P 4.025290500632203 3.325398823309962 0.8579386182360423 0.06257936539411803 -1.2336356084999465 1.0172731637126802
P 8.692679609833649 6.9661011958833825 5.4129858678274605 -1.0902341294514384 0.8723187383547557 1.326588186869283
P 6.281885690411253 9.261122578610122 4.474300984624117 -1.065013664321753 -0.403020420531564 0.14714911901639818
Ni 5.367224866766788 8.489178294526159 2.4163551392457956 -0.05853733411426048 0.02785018944304881 1.657533643811468
Ni 9.173226040727597 1.547048034432603 0.38165327281764017 1.7318981747659719 -0.7893628661868147 0.33322962499067127
Ni 8.767388405047974 5.767619646108442 11.078487649878534 0.1852826926633261 -1.5086839971641954 1.4909472420060643
Ni 3.516085194328565 4.996197279755518 4.4962625371494465 0.7831911901584641 0.9470056856456852 0.39639314502303347
Ni 4.061815421845395 7.922767076916941 8.79652073439939 4.658193324246242 1.5305363171525963 0.054032761375687584
Ni 3.5545673070331505 2.600771973520303 10.617677165185416 0.1376398939743823 0.3194014608583273 -0.7846837155435905
Ni 8.739698805424501 7.148008165069165 9.350551317831624 -1.8208493452853998 1.3825312778938061 -1.906103269458898
Ni 8.698923982687141 6.394536040680163 13.154588776329401 -0.4663798586248161 1.6123750449969585 3.4341553867370602
Ni 3.9570404373394736 1.225816990938067 2.5215523179162886 1.4372695499769506 -1.1600313527502344 0.1793683840614201
Ni 3.7781997348235414 5.106005042382165 9.120528193823858 -1.3701125925144793 0.7614250021259661 -0.8777990447430367
Ni 4.33537487258528 7.407820675571883 4.9375383867665645 0.1887454544009459 0.019619831113456533 0.002597328413531011
Ni 1.6338634570151196 6.817820640511634 5.165392756202675 0.10083738043405213 0.3602588611943215 -0.8612897342341038
Ni 7.24372414895778 7.6631316456443965 11.31745886698576 -0.45088999051933315 0.8722506041209817 0.3751602037861862
Ni 1.9059410341972356 6.158619906291408 1.1266740579476173 -1.4194510337382908 -1.0613359583598496 -1.1383250714213944
Ni 6.8577473469360575 4.947071773321547 0.5401951035799796 -0.07514923163932863 0.3673098545038319 0.5799406001628077
Ni 1.5571415505525028 5.980701879764275 12.484844371946254 -0.8168708417990965 -1.683934759512816 -1.8697270448227088
Ni 5.487741262839202 0.37756087860873155 10.201117848116752 1.002958546862221 2.309145287257017 -1.8268670122343893
Ni 4.579977209212028 0.2911173224095796 6.020419819096282 0.9493672438993263 0.8763232315284585 -0.6654747745808861
Ni 8.774620693606646 8.51055828157976 7.115754581286952 0.1992036736197924 0.38778303475651926 0.48438606539424967
Ni 1.97641856780636 0.2279904408445597 13.323665889291126 -1.4405209670347126 -0.9891818047931029 -1.4741903342626999
Ni 7.911806804565139 0.09808232160130409 9.986058851054612 0.5207682035677096 1.5964468038024762 -1.4642887588782716
Ni 0.7288180355690855 8.382436798569362 10.688922663455925 0.9801412918573894 0.460435211005607 1.5492236091494545
Ni 3.0293969101354334 8.12620315250805 7.0114167028807755 -2.5082044648791446 0.42238134155667906 -2.470870247205061
Ni 4.978116558358837 0.0884585314393388 0.29621720423858156 -0.4148181844974404 -0.5141915787914563 -0.4968697996835572
P 4.454334835424061 6.82523000830048 1.2200730999088016 -0.43656046127053855 0.293107817269121 -2.385655146689298
P 7.355386583521509 1.5642247197594499 1.2404241634354989 -2.9910717796360227 -0.4657170282298366 -0.2772484816393612
P 1.8465915322106048 5.183304786332716 3.2234887943490613 -1.4088786575390833 -0.6315238715567382 0.11740016988873975
P 6.475386689193671 4.382310188540788 3.8158225472638096 1.0091536199293394 0.17199523152580057 1.0208194863030418
P 6.091469598217652 2.5056711069575544 10.87093122020007 -0.4986014376626833 -1.0583671055395127 0.4275348607331605
P 4.495212177715732 8.496941820775353 11.356403249680692 -1.6360420495965953 -2.7842980069784566 2.459892150927002
P 5.3268135224492585 2.4746170019607807 6.834864982413825 -0.5662160514878636 -0.27263823656085945 -0.9839568089487376
P 0.4299399828981575 2.1444760772006637 5.251370314427685 0.9659287478024333 -0.07974250743696588 1.0633815280349685
Ni 8.623721229620225 3.545601506010673 12.929967500837883 0.2833808197893442 1.3015101608547328 1.4887772309379392
Ni 3.123425981357657 8.43323057775076 1.3827306247787567 -1.3437644415382535 2.352782564330993 0.0631277816984203
Ni 5.088166639932036 3.4366325397374804 8.822165534912331 1.3640067367270574 -2.4571490409642265 0.1380625833340977
Ni 2.9624050413728864 2.10180930268829 5.562010155965939 0.2041417343513581 1.2129420847063368 -0.2509558664914194
Ni 2.3705130545376236 9.169218458149983 4.82992733859002 1.5856188599490368 0.08378479582713957 -0.768876830418321
Ni 0.3067049546446047 8.315929567699921 1.3917607335216662 0.4489004708931302 -0.44199551624318073 -0.1021761538501337
Ni 5.8622545146970495 5.444151812338028 5.5005179952942065 -0.1809699242205851 0.5982435122370535 0.8817919679525136
Ni 7.920940364858307 0.672154545905405 3.2076933270175694 -0.6166312707156218 0.16252483014152008 -0.3180868558119619
Ni 0.7316401193004851 1.9438173495354374 3.1926341364852204 -0.4227500377500074 1.175124499637931 0.940123099593239
Ni 5.253409521562527 5.663487738806836 2.6669623257673276 -0.7808100915207972 -1.4151395508471305 0.3406593417958391
Ni 8.087105922477598 4.89492660001514 6.195675133199172 -1.3649678150887459 -0.7619669906723652 -0.6864938000347144
Ni 5.115958759109821 6.352754662318657 10.548001148091814 0.9375232000765467 0.530036773353829 1.356691948233199
Ni 3.0587547825063326 7.455417708650671 12.893970089331418 2.44377133410574 0.9640855239461074 -0.38094801411255685
Ni 8.501611120476248 2.978975929333349 10.772485420178937 -4.438594374799549 0.9737819252982649 -4.138903247885956
Ni 1.1044711184716829 3.563113709878901 11.086726494061352 2.6104173855044848 0.14856373997573769 0.44173994858894894
Ni 3.898492451868366 4.350174968244006 6.615686563260276 2.70888163772067 -2.5385275413427184 0.24572572844073165
Ni 0.17269139324916463 6.096623535811655 7.303709272181139 0.08571955095600721 0.9324265022799296 0.48411789933452753
Ni 8.395270382777213 3.222692869809228 2.088105234264744 -0.4467330309281661 0.9400158845914133 -0.10237618567608174
Ni 6.209245926202114 5.520957598435991 8.23127730771337 0.22233897408567516 1.468314335097897 -0.18286894101551085
Ni 7.764653964290812 1.1433633093935123 5.814321963076879 -0.026158146452606564 -0.32549060447520073 0.11213994993106492
Ni 7.4184267894633384 3.470762231363586 7.982239602368745 -0.9253937638028642 -0.9296965049432764 0.19731725523035695
Ni 0.9530870165921532 1.279397438004829 9.562651227757966 -0.12731511500960654 0.19110007067605153 -1.1166666126113542
Ni 8.8754719751703 5.531312073421409 3.975705520195728 -0.4638054130294206 -0.42635780970592374 -2.8715607340518674
Ni 5.802662693763865 2.7219034869185816 13.194079308650027 -0.01239117457550124 1.2721425063258929 0.47582223498463855
P 6.735739757346392 5.853503072742676 12.237674386481988 -0.6266660292438047 -0.8518090484371783 0.1203152866530057
P 2.583259769652074 3.293813480622667 7.9664021952195805 0.3734877011797697 -0.8604358708742408 0.3963970016777754
P 6.722188536258365 7.997578391685579 8.777437185362356 -0.2314766747208852 0.13759515677937592 -0.09187734302728694
P 8.369053336752025 6.600059787195423 1.8426678292683354 -1.3299164799115677 -0.527471326619498 0.5094772040349226
P 8.69961365968887 4.9705860310967145 9.184776266514662 -3.176241086649936 -2.1269162938183497 -1.564344523951293
P 4.569026256819708 6.473280378350552 7.082662201151284 -0.3675083436678832 -0.08803585779400967 -0.4811624162506294
P 2.7930427376509863 4.79170804874285 10.98116117699129 1.091378784578843 0.8387776691745168 0.37729396229973733
P 0.6770689605406986 4.176329764010868 1.1756989088191745 0.8415022671945314 -0.040696706388413786 -1.7931421091781183
