# total energy = -340864.2102923127 ev
CRYSTAL
PRIMVEC
9.33829181398518 0.00000000000000 0.00000000000000

0.00000000000000 9.33829181398518 0.00000000000000

0.00000000000000 0.00000000000000 13.66753399877181

PRIMCOORD
 96 1
Ni 0.8740052783266083 8.751763001144226 11.586528468347971 -2.254908637400639 2.2034143261760892 1.5216557268335147
Ni 9.041016588684485 1.4555128465524583 10.573791659844911 0.44316639662283036 1.5668408080105856 1.672870017058222
Ni 5.605748533967863 8.420496438935892 11.323934769978615 0.37766651514780764 0.07296225129033886 -1.4068235747822673
Ni 9.032061166878155 8.113696201161957 7.036784783964977 1.1107628455324094 -0.038919816993649096 0.07789696958779488
Ni 0.9617319926907552 6.5909383155819805 11.279528391130183 -0.16656943252453896 -2.5361418147193615 -0.3003886672012504
Ni 3.53495431934914 8.488647292264991 1.0961744454577722 0.8957463732500767 0.08427433386904841 -0.23651963646143137
Ni 7.726493271258187 0.16022454251164642 12.086650956149905 0.9135818587696007 -0.8282384602060898 -0.32586135755105816
Ni 8.120830656073363 9.494988304735562 9.17213180809426 -1.9371984482018054 -2.4552261129099007 -1.729200316218835
Ni 6.7232152184878 4.686748564411385 5.034026561686596 0.2508602214538196 -0.07991631401066882 -0.252612685368552
Ni 6.951396377859751 -0.25997991050325436 6.814796779694129 -1.1491406739796595 0.5358112139437611 -0.5178512870312307
Ni 7.70267128895584 1.9702861803105454 7.43121555169784 0.13286149874913247 0.07021168512839521 0.8316107191124322
Ni 4.454645322496514 4.138768265123252 10.880245446994223 -1.1613870954471806 -1.0034455138009686 -0.14546196112196239
Ni 1.7745555848353616 3.284501334108471 2.2959404291657974 0.2844632542202456 0.36205092009773776 0.6609684020701003
Ni 6.7081805687399445 4.055704159839294 8.034637289217661 0.025742913292058894 1.0149488864548777 -0.3971313087406387
Ni 4.001168535909185 6.5714959921192255 10.670763283060225 0.25602633903579136 -0.36035373490097294 0.6232819432629201
Ni 9.209694152905298 4.706237579332983 13.002540340718177 1.0554080229111888 0.44114756642058855 -1.6269172044771913
Ni 1.9964147206797995 0.9906806971742033 1.8959599146347044 -0.9095184873335045 -1.14653460381538 -0.23432622835453837
Ni 5.355995920609858 1.0573747769873598 4.127718264473167 0.9773426460663296 0.8467558022839868 -1.194134979302163
Ni 4.141999314075275 3.2376417860123605 3.303880157187197 -0.22995792408351362 -1.3266223825413281 -0.6486440761767925
Ni 7.176327811696142 1.1897730776861746 1.113641720211414 1.8475443380780825 -1.2503521499236787 1.074823194213007
Ni 2.851671510622079 0.706721921066885 12.882525548734039 -0.7356458362793331 -0.27848081138456554 -0.9754400297269781
Ni 7.578490685013617 7.882872305219419 1.94309961148388 -0.4932106056644151 0.7454047154383099 0.6363251496001234
Ni 0.7097353878206943 3.385700402007544 11.225856559188694 -0.07889455761437379 -0.7707871600671564 0.3694158451032412
Ni 6.399419289694549 1.6914914795514036 10.29021762135847 0.08330374242566298 -0.08765199209202969 -0.2149730206389072
P 8.06770511420035 4.820883787379206 3.1251910103609952 1.4769329300048435 -0.3447782490602191 1.2593723511444181
P 2.176008747978403 7.1914465060699175 9.514899410445112 -0.9309015809949709 0.477380580610694 -0.3783519712506065
P 5.553659542481195 7.8940222255914305 5.621524644082165 -0.22520164034545087 0.43047157476398124 -0.5007308253008602
P 8.045405273456327 5.979672412976322 6.93651954524279 -0.6138336533658267 0.379148756120289 0.6212330311536913
P 2.3402693001925483 4.196618982631303 6.720955351879737 0.9177925544168386 0.143913642798236 0.7186040503056979
P 0.4879164066308625 0.9563811515072018 7.4656038111366465 -0.7695931397590553 -0.45234883445304674 -0.6674784352744763
P 2.0758368921739043 4.661675251012011 12.193449263793582 -0.515208450091745 0.8127095113325551 -0.47024679777939016
P 0.6652458981755192 1.3584879950740631 12.652363737677915 -1.1933181398278223 -0.8048002837878075 -0.7965742963335893
Ni 3.8071188329523955 9.025393626555193 4.611918030980026 -1.8206495705697676 0.24110005674326218 1.903684118494444
Ni 6.242965549399166 5.352652812156608 11.163149929960838 1.2997944637152066 1.6201906843866356 0.5532270954273633
Ni 8.874851024949493 5.8045981188938445 4.983715580952716 1.7524055506907046 -0.07770130863722101 -0.6999306422659107
Ni 8.680371760571337 5.938415839941524 1.1087633965913646 -1.2880859170290269 0.5986356054691496 1.2023051738177812
Ni 5.334910057795785 7.7969039911953475 3.272102884126963 0.6636860581115795 -0.45354979673968343 -0.289444766595237
Ni 5.701260582179704 3.0641923546976626 12.593935913738546 -1.5307006106446026 -0.9057407654586273 0.4259613455984535
Ni 8.87348763435124 2.080459346599487 5.38574678435625 -0.8976726437385121 -1.30599519320928 1.2386621151802604
Ni 0.9229687435582414 5.901781721332309 2.83643702143037 -0.3006784305275273 0.4360513828446039 1.9722721519764874
Ni 6.326076346141969 5.430394091132319 2.041861385231282 0.6593599199324 -0.3466803511789384 0.31989614110655873
Ni 9.181716630765811 9.06859256427791 0.4412426905409524 1.0682964488380828 -0.16695998309473825 0.30055913134084367
Ni 2.791364822378819 2.437854449177075 10.416532958799054 0.4619151379852432 -2.028416817488855 -0.048145963577607406
Ni 6.209655862659663 7.655158060435911 8.705303131935823 0.06020135208024471 0.3902854894633988 1.0657855094907707
Ni 3.7776565224216605 6.759914705139397 8.224328811405927 0.06891584913510712 -0.0826671372829286 -0.8134525601461668
Ni 4.2815507462690325 6.2084512230214814 1.5610514186365176 -0.6256797540711354 -0.0279391496124293 0.6530710015998946
Ni 5.771643287241558 2.8228815570987016 1.2997389338978476 3.805232678703124e-05 2.505885844048297 0.6924122224016784
Ni 1.1399439528075686 0.0876884273678946 9.408197287206654 1.5470764808994646 -0.8111089996146547 -1.4362056274888104
Ni 0.8575754877884862 8.724971442059383 3.340769211161702 0.23519628966431752 -1.159102927398694 0.19714910508360886
Ni 2.374615537318394 8.943711588453024 6.7846863917146365 -0.5330889299165915 -1.7213777348506225 -0.9626554763678
Ni 4.647817226027032 2.9249677627158155 8.83194717724667 -0.12258017142778244 -0.35232957904491585 -0.6157200717552622
Ni 3.6974686110025097 6.728397970419514 5.516161631883361 0.4314611923707602 0.019970272474339797 0.44167747078212966
Ni 0.9713410949209061 3.2787302697953185 8.775007877015257 -0.6564121501579856 -1.0438290598243376 -0.326908824978966
Ni 8.57528796329642 5.117365212748558 10.4691803801335 -0.6094830897066148 0.15148888404233266 -0.49994998127077767
Ni 2.5711212110103925 1.4926418946254225 7.901201504303327 0.6027167175170587 1.962590663022665 3.029519799199576
Ni -0.1770530781082985 2.3600291255754438 0.904887943035386 -0.6807988065324662 0.6657781647539179 -0.17682016371826967
P 6.523497172427315 2.4343339131802164 5.384420746925073 -0.6377014611223598 0.4948545690257414 2.6296898605808514
P 8.851523972110895 7.185292571794243 12.855695702652945 0.401900705104824 0.6619569912356148 0.3788332817623992
P 3.551753906241309 3.940609713788166 1.1144065263072829 0.8212257763336824 -0.6355887856547312 0.7394258721470556
P 5.662674760590798 0.6838468415498998 8.296863058891324 0.9907743460912033 0.01961803134124363 0.7609902285813926
P 5.352839577991985 9.53747753228385 1.8345111533081129 0.590180532723261 0.06545025918400986 1.2479563959979927
P 1.4213813901372963 7.213372815143187 4.967178400059253 0.18456304088848213 0.5841893481368327 -1.5235359745753634
P 4.551427378388919 1.2877784498002993 11.358212837574548 -0.6272568687502681 -0.1499505930209353 0.7728612689873657
P 2.6317173862984875 1.5233928894202593 3.9958541140635306 0.11810722325809338 0.15152873614133258 -1.2405331069507282
Ni 3.8940022995698147 1.616915881485334 0.9349628455061578 1.0347065286977792 1.1233818198480006 0.35976598071830296
Ni 0.12586896709403186 6.397775750343231 8.759741637631535 0.102850554209339 0.4683359539099225 0.08122963350545366
Ni 2.995966795034414 8.712065922834826 10.948938855075092 0.6966056916577358 -0.15441711343272116 0.9979284406374813
Ni 2.9039192530688185 7.450985649201683 3.286099115830122 -0.1348366201976323 -1.2203933987780595 -0.22825816778358754
Ni 3.816746611766084 0.01181293908760055 9.118855919723769 1.2002020114318492 0.28176359590089545 -1.7439268237957322
Ni 1.6012929193560408 6.4467644289626405 6.851931430742154 0.6233660183362941 -0.9235744512059385 1.1135578917790436
Ni 7.684639047550183 3.4579507654231687 11.809378396949086 0.29612654949078676 -1.352031309532736 -1.0260437108164586
Ni 1.547495020475672 5.134799803481009 0.8293308905044099 2.0788510628800068 0.6255630259876129 -0.7153197231274714
Ni 2.4840603168493653 7.478337505792656 12.872192728891804 0.13205622923901772 -0.2478564016304893 1.2307341185824352
Ni 7.124425586044851 2.573465122244375 3.4582281126887033 1.3572444783025592 1.0660989269661316 -2.079530862555851
Ni 1.8026171516007685 2.86633262869918 13.49935520557558 1.6728299078489062 1.0860666283373102 0.1735414929669979
Ni 4.6631040096526455 1.5945973641577724 6.611601153778923 0.37500259516239937 0.034328855188857005 -0.7251418514242157
Ni 1.9921284447578953 2.138683595778293 5.940402094600761 -0.5966257741279725 0.7261111573160204 -1.8133990596549414
Ni 0.12891044872314766 1.601489023483187 3.158649175939623 0.4169424299292948 1.3934530670126324 -0.8828502340136989
Ni 2.284697125876097 4.670042360436905 10.080352587461949 0.32690445410359187 2.2658746494938393 -1.0403786393818921
Ni 0.5420943739862238 3.772371049280489 4.324393895075358 -0.4191939449676329 0.22950361015491444 -1.1752761947244468
Ni 6.816131221587899 6.7041557649875685 -0.23456948477102524 -0.12821114446131468 -0.012830576105765 -0.10226151447508841
Ni 4.58898598788325 4.254796540351266 6.011200353646329 -0.9797301724618998 -1.4695991153475916 0.49525334712605673
Ni 0.21085956196990446 4.324105341859701 6.749779857082659 -0.8474209466718114 -0.614430149299245 0.2623162858095611
Ni 5.848049190494323 0.2271072558185339 13.319312940272072 -2.5731662144625105 -0.11911612413858194 -0.14641866860827688
Ni 2.6066253963155765 4.764928743100231 4.629494563747363 -0.3821026965422903 0.29581801711143246 -0.4198583180245092
Ni 3.711989654703078 5.460127212124351 13.168204438185182 0.7190267396654133 -2.2997569040635812 -1.0882338111919578
Ni 5.746233795338505 6.052277631479163 6.933348261358087 0.8861132210356868 0.4061563950573844 0.15928446882735148
Ni 7.634473744167898 7.644391010026421 4.907040734897009 -0.8412592979457898 1.2763927969618147 -0.5975896807031386
P 8.42851803156534 0.19613027436289074 4.156392423178611 -2.1213236302219207 -1.0072499751487236 1.0320878601280097
P 1.5731473079647145 7.669072115171503 1.5512238003789753 -0.4307690513997419 -0.468818807083612 -1.2441151678750315
P 4.795520986934998 7.180894236371112 12.883030750318735 -0.19663694133388068 1.7118654244848133 0.13947129075616624
P 8.041445837746332 7.463891168426239 10.37919379916129 -0.37491954853028975 0.2063819365357865 -0.6392055564717121
P 4.733271934003816 5.134669067396245 3.967343375464042 0.4405916939171186 1.8981410771890277 -0.0843676649138031
P 7.455103835871746 4.149059062652529 0.2812488038359967 -1.8666311795062045 -1.078410397343633 0.7850084458728609
P 8.066444444811555 3.138992071766185 9.498690003592737 0.4998059994937456 0.34835671044009686 0.2267062499154354
P 5.332547469978265 5.4441307183243035 9.16848240367099 -0.278139883105379 -0.19859432217056766 -0.24573472730179616
