# total energy = -340885.94618614245 ev
CRYSTAL
PRIMVEC
9.09381005491783 0.00000000000000 0.00000000000000

0.00000000000000 9.09381005491783 0.00000000000000

0.00000000000000 0.00000000000000 13.30971023178112

PRIMCOORD
 96 1
Ni 5.425312353014507 3.431258119281669 8.855335532927796 -0.38061557047380257 -1.2708620969515725 2.1992745929761024
Ni 4.541348573166277 0.40259841852072326 6.218189805944433 -0.11309485764516652 1.832063468833664 -0.6690686625797316
Ni 2.5627538160626444 1.8149152748394661 4.98730809548899 -0.38374254613855846 -0.23848190239412476 1.8569797724593697
Ni 3.4074778067020373 3.1020622051773947 3.1281814456329284 -0.24281189722804636 0.45281060458081374 -0.9722724306322739
Ni 4.9928653226467 3.2440711387313272 0.8154155510933518 -0.4272767219757673 -0.39575551143903454 -0.06130384111580411
Ni 5.153843943405646 4.64936484575552 3.16668645501139 0.02681506331031511 0.41928959000523275 -0.37928373903625645
Ni 4.860350326505057 4.535637660623253 11.946249636693578 0.6806357985920406 -0.1773690942432042 -0.018651296552600134
Ni 5.836443493253575 8.194913966375932 12.512245629375228 -1.7045164403189097 -0.9763769397189507 0.3025779615430853
Ni 2.462385437499969 5.30752932871952 11.585556403028765 -1.3728901552596164 1.0131943656576166 0.2566683434951644
Ni 1.1858055141285915 7.884496769471252 11.715299605948887 0.4927778890023707 0.18759719972911562 -0.8265443603331185
Ni 8.046984962653992 8.965050529184294 7.2250427842801805 0.2956046155490457 0.03226194535749928 -0.41053626929263487
Ni 8.610737512462451 2.64628955271905 1.7870145570476614 -0.2880620273150974 -0.6953486793221831 -0.7353640433728561
Ni 1.5114093733690201 1.5240133937267142 2.9344714753260397 -0.02144274325480823 -0.5037948089381646 -1.9699915834724264
Ni 1.8820639662689125 6.969968694946103 0.5465579742728699 1.9230676652273784 -0.27810723009523075 0.48199776766773117
Ni 7.5343305300099495 3.9191864831287635 3.778519795898638 0.40865782132299944 -0.006149307430847474 0.7627018119558606
Ni 7.5596931654916295 4.071917018415539 13.163169620990892 0.276136222411789 -0.11760534392101037 -1.9485069312360892
Ni 7.628142271719886 0.9474658535551406 9.798728269081632 -0.7437808066816417 -0.2895512102661142 -0.675857660477107
Ni 6.686250923561042 0.7223531393094431 0.48480191204408196 1.923502695882268 2.5408885853757273 0.375103896626954
Ni 1.8158246558176545 6.7000735144295085 9.599921218391994 0.699293265792228 0.7760805472556117 -0.6843973225170019
Ni 0.038424074471403 5.083248698068865 1.6864870368138025 0.19609083902242358 0.11655607672088958 -1.6667479633208842
Ni 6.545315059561372 1.8371405459463956 7.281369842069183 -0.9958921269337428 0.00888264720161051 1.0788662539341292
Ni 3.068178669930088 4.633241521012236 0.3553760830853456 0.8421990361512399 -0.9988792345865247 -0.41724067789600394
Ni 5.767494227487314 6.130100798730238 5.0842290107633525 0.6983172750322038 -0.3198622025448297 -0.12503531783649435
Ni 6.549234491577365 2.0525547120597114 11.670831785496443 -0.1949994057304577 1.1849759385107141 0.4921600529127137
P 0.446532432338971 6.145132866299696 12.655018442950839 -2.7267955418866134 -2.2441696537165803 -1.0713635177991805
P 3.9461314415124917 6.532056284899381 12.855822494268578 0.15875970667213304 0.08312890741069554 1.0221415475485751
P 2.5750031778388456 -0.27280065274190773 1.5049691372814884 0.35802277277495115 0.42881449877653244 1.071761524568548
P 6.333320165926045 8.308122804350631 6.060097560410258 -0.19300474389793212 -2.161487604035316 0.4657206277742624
P 4.796702751841637 1.434430273565355 12.819247191325832 0.6689043690877254 -0.6303668751341596 -0.13352561469569263
P 3.8734537137356586 6.3428504785774615 8.553857551038712 1.217069733721465 1.1172417683885338 -0.06212633701709945
P 4.428785395686092 1.3740019075647225 4.014168598157629 1.0771500425739708 -0.3823904029860382 -0.2820849837960561
P 8.9634409248529 6.01091732772884 3.5521621390938 1.3017253621893323 -0.6567476791205334 2.057039109211238
Ni 0.6660215346155501 -0.019243410879449006 4.810275262941102 -0.3029628556863298 1.1333152769116288 0.06713587441654889
Ni 1.7950362066562633 6.525163177084713 4.811913058082819 0.33132418043784234 -0.6518448425022775 -0.7561807230078913
Ni 8.437636843264253 7.285696676763403 9.480320341521608 -1.6111859097848638 0.41564325150189707 0.7777106266598671
Ni 8.636218367471297 2.9305074836421157 10.875497185163452 -0.6634883402784767 0.2870415564703831 -0.69771383712025
Ni 3.8919778042613604 4.54627741806806 5.3548553335864115 -1.8056245579158452 0.5909369512733113 -1.2001048237323524
Ni 1.329924211551921 1.275352259050823 7.442855897413958 1.857600436762504 0.5297241272094168 -1.8845707947037607
Ni 1.1718283284938324 1.2793171601157252 11.158847566633327 0.0637913834243482 0.046055913817798104 1.3235344876446238
Ni 4.182525026792619 7.029724119022877 1.7299427162375232 0.9095382848278466 1.9012911927822351 0.2213444713828898
Ni 5.6193105970914825 8.170397055203967 8.29607532515159 0.45103191541383614 0.534421532685086 -0.05549083397845282
Ni 6.927846168036408 1.0102677039088455 5.1156799518940055 0.5906955246864665 -0.7834884096839086 -1.7966557787583313
Ni 0.8608791437169129 7.335949069618106 6.7147618359892105 -0.9593246122223542 1.223151678249487 1.6262343194775541
Ni 5.1140039627512035 4.988172916799247 7.250291747139587 0.8944767625090337 0.9772169191217427 -0.1591962799889194
Ni 0.48310318837682564 -0.033338816041372336 9.043588307984574 1.678333354165639 0.31143541193371527 0.6363745147808202
Ni 5.114986094207647 0.508173003183529 10.487146038428008 -1.0459409639610182 0.4875194688169088 -0.6454307114458174
Ni 8.077358287325492 7.5571105235135745 4.837041073272126 -0.6221023211325222 -0.5849982171913731 -0.12229143654277004
Ni 7.461007141738603 6.468108614513159 7.035153123462662 -0.7785251521413624 0.34758409394013046 0.3206448463471252
Ni 2.576621875980021 5.494243431161204 2.318950594572237 -1.426765308011517 -0.7784184513601691 2.4889983242643394
Ni 3.343484667266905 4.545295286611616 9.56083056766358 0.7018114042283913 -0.7376119588667683 -0.594421310277486
Ni 0.9259408058014164 3.966383355896752 3.8022510019054474 0.6241365779537316 -0.2701427238325154 0.4188049370593303
Ni 0.752035334437519 0.04381033800521408 0.5826122019151134 -0.18616406682701486 2.0002948624416583 -0.5466425002313102
Ni 2.254873792087112 5.478883986439599 7.393170958289645 0.1474108573182171 -0.823486290233085 -0.8213941835907467
Ni 5.626740239683283 2.884665588531628 5.3162439266335015 -0.8840301132544129 0.9303320816447461 -0.25998892322796513
Ni 4.046536195314295 7.171196517799677 6.404432849039416 -0.17982655464476127 -1.2401142742457547 -1.3800622475280233
Ni 0.872856600580635 7.731520701320366 2.8092933649164222 0.38921051123166517 0.3690785163684805 -0.7666286578140926
P 0.1389206757520036 5.741595057228503 8.29948277567686 0.5371258189901265 -0.10842547719395519 -0.9614578565152732
P 8.541524526212518 1.9900893326679365 8.101141328048058 -0.6017078166365702 -0.3635233908782062 2.7957157618970947
P 1.841178197489553 3.391218074812025 10.622466474887364 -2.049964461752644 0.13041535120148506 0.18055957615604387
P 3.720786835117356 6.5038927560048805 3.860894253045896 1.8145686544830106 -0.7672637202949302 0.8538777580407488
P 6.545897063387413 4.26970738117156 10.638690740919229 1.5147651703612688 -0.5840168271147104 0.2376493791905004
P 6.402996936474856 7.9257735720712335 10.430246980003727 1.6374522996805605 -0.23509961618545316 -0.36475212107898475
P 2.308954678859988 8.834008730227318 6.06777728277106 0.9141457016928708 -0.1424296020535418 0.3703193307541171
P 6.755954975539197 3.9991847277800145 1.718562722676471 -0.15265050845060163 0.5524601353543518 1.2774240664398064
Ni 2.690812845411164 2.0548463521247466 0.07584964862875491 -0.25270473086172607 -1.2425064286270149 2.079685900076477
Ni 0.8779327652008837 3.6425073205148815 8.537566900195442 0.2728639794184204 -0.20209333646276162 0.0020941635248673614
Ni 8.143879505879989 8.661290001039957 11.757332104141742 -0.613546204032395 0.38591872785427084 -0.23210505233350345
Ni 2.7800685884203746 1.8833098182090309 9.229312094541012 -0.5760268669306984 -0.506514778972489 0.49362172505990476
Ni 6.1451055848703495 2.0110141889760564 2.828140285689381 0.36873116033139075 0.31832005486869047 0.07752441673972454
Ni 4.584307730575907 6.731201625312903 10.910355576819377 -0.5035181582380103 0.5358883470385997 -1.9507903279536276
Ni 7.246393230886093 6.271418602740747 11.85686203344253 0.6424731714793903 -0.7691491102431012 -0.44263057872401834
Ni 7.460325106004961 4.090177388457566 8.006216504020818 1.515583809607822 0.08282346035513478 0.45189966273077015
Ni 3.380205471166161 8.912724747699324 12.17809177017787 -0.406687584970506 -0.22258451443757796 0.44467563417850514
Ni -0.04644663346098284 5.194993432668681 10.387788891513079 0.30205268516723466 -0.3169941369684154 1.3452137723902702
Ni 8.746271653451682 2.2444250046477245 6.05758130324361 0.4638205825380722 1.9753978420896627 -1.7149566618156271
Ni 3.6610677862797103 2.5435476898033014 11.39385707406465 1.0342283035097803 0.4741749291892027 -1.2231290525416676
Ni 0.8941633968995939 3.4778275191747072 12.805165426878583 -0.7044133606276126 0.6321841308485564 -0.9292198224171737
Ni 3.239933455280569 8.518380780317617 8.048022566350104 -1.7017705021426561 0.9523216985419599 2.390905853565276
Ni 5.7332924088976425 8.15641986956921 3.8269006827002277 -0.9418061437226167 0.8817498018606686 -0.7778474093480475
Ni 3.008050399652258 8.646876312535667 3.874536786480681 0.8371833281042034 0.16688696376495776 -0.3838834425917969
Ni 3.6623591072687387 2.995009876425033 7.24701706623713 -0.5995347202446513 -0.08585813341640053 -0.7893258423012922
Ni 6.39949581970883 6.0531944494048275 9.282284445901476 -0.7503551174650496 -1.1374832922463893 0.09428569535846343
Ni 7.9860200618762285 0.23012340343551668 2.7026166105080516 0.3574607296238941 -0.6034780211631156 -0.04202956626722439
Ni 4.5157404048204866 0.6874720131290629 1.5525643189179237 -0.6175995481661621 -0.5505654894348002 0.7506171128771847
Ni 5.896480825433587 5.822848247629655 0.5556272307683449 0.060361274696876695 0.05406412883425527 -0.051779960785768894
Ni 8.376162689138702 7.476193804074352 0.8214902160276517 -0.9074942578146241 -1.1790438892969952 -0.6489235550904243
Ni 0.11447651505829397 5.121288104386495 6.080314918317346 0.5274427873744078 -1.1579220197167155 -0.6416031101696111
Ni 7.133338987677686 6.2652439058988465 2.6174212535664525 -1.4003171411223172 -0.18524001235084872 0.5306834057988925
P 8.729848232985594 1.80934076944317 3.916235541854541 -0.7180736317235246 0.5722388606431758 -0.24357731463916113
P 1.5976095962915178 3.4979703078415847 1.4997247371802749 0.94795905069789 -0.7517501980403634 2.1375586040235444
P 4.673881756927484 1.3505671597568023 8.458599893573455 1.1080716718534915 -0.4966031762857318 -0.8248505175704632
P 8.62495113715154 1.4699597883831839 12.740959492294554 -0.7154667902282968 1.8329756962352883 -0.29288053174966333
P 6.461533790040856 8.131057234087528 1.6395165999093833 -1.6516427322483298 -1.5060370464596513 0.6000270865000376
P 1.831129537680569 3.675108628582943 5.91484850243104 0.5204684129391037 0.1701314388441844 0.6828883420716433
P 7.167104303397829 4.446072728081457 5.931459255378632 -2.0184504503047624 0.43613751480050694 -0.5066245650774758
P 2.35988001363855 8.943352699044715 10.161670401905505 0.8777481369004431 -1.1049261842459743 -0.281960799513366
