# total energy = -340892.4312777045 ev
CRYSTAL
PRIMVEC
9.06822365928621 0.00000000000000 0.00000000000000
0.00000000000000 9.06822365928621 0.00000000000000
0.00000000000000 0.00000000000000 13.27226195546322
PRIMCOORD
 96 1
Ni 6.360479191898606 2.0369950525962732 11.414476748596318 -0.1445232513577769 0.2801348020482208 0.8285878731257086
Ni 4.93745728194171 0.33800261627537137 6.016422629591479 -1.6084715961774942 -0.4495962114085741 0.4174563934512359
Ni 2.8514484811404643 1.621461845566406 4.998214379624098 -0.8465269741026326 -0.8812700340107725 0.9859825811295149
Ni 3.3958864857158773 4.52917865373959 4.862744188239441 -0.7290890089974218 -0.6878192037143573 0.884352015370206
Ni 5.110660351454192 4.76778175138422 2.459138087760572 -0.8280857366783093 -0.48855819449406823 0.11641466604701886
Ni 7.350275790709464 6.071338884495177 2.617502823103249 0.5916185507213682 0.08804845619949997 -0.02248918224145159
Ni 5.088561090700165 4.402078432677446 11.785901209531126 0.2648621921598664 0.39081230850114634 -0.42188614708781536
Ni 5.552373519828694 8.00671542416177 12.444099171526807 -0.21246053862969863 -0.5951754148346912 0.3887387138015692
Ni 1.7395210477644691 6.621208754967866 0.5075883714198675 1.1683095335986267 -0.19779316642551098 0.10230419478756574
Ni 2.756912250791374 1.7073469906634071 0.12122129174460758 0.02431286571375168 -0.8259689474456227 0.9821567796255215
Ni 0.6956125454774384 8.99964962831563 4.896176914767118 -0.5598883094976229 0.6582772283911824 -0.6570631534784233
Ni 8.475052896834109 2.447350303987835 1.4447656963483637 1.5764341081259754 -0.04334237154137696 -1.0809848429390285
Ni 6.933998989349753 0.6487144138231086 4.642610341467904 0.8149114040798805 0.468575066503922 0.1524517621762342
Ni 0.8381514171073834 7.566344352870402 2.762674200025313 -0.08080565859415761 -1.1079451735779562 0.0694624656671965
Ni 7.430883229709279 3.9175451127721623 3.828277520296724 1.452626749159311 -0.4451536022561882 0.007649289015141666
Ni 7.799125651005764 4.040863884620342 12.702603392540654 -1.031296988795598 -0.1269890991287555 -0.6320146951502276
Ni 7.96170983075913 8.885779945390592 7.014841295339116 -0.755414534265828 0.11755495029904915 -0.362903240795704
Ni 6.853872166197278 0.725201252048762 0.427851481879383 -0.28951727170438524 0.05680363925260539 -0.3121774323060623
Ni 1.8858368344966103 6.277514014779774 9.250859370318178 0.6780500401427355 1.078899678275226 -0.837152474866268
Ni 0.19459863612021752 4.69482789304768 1.4477518623583352 -0.33740509652459955 1.239843279972555 0.26407157793777103
Ni 6.409547349444786 1.865959288508581 6.933787699741396 1.1932268656655967 1.069909044740841 0.821932829703036
Ni 3.184651286698927 4.168490062647498 0.0793134035014147 0.3889588002321753 0.5561422121916293 0.9015087296551507
Ni 5.723554375492941 5.329467517122604 4.723624943704425 0.5852509566321276 0.9839683789129635 -0.35936694550767145
Ni 5.503332566953118 2.941822396887134 9.161935463514705 -0.37400269314297524 -0.08776666329302303 0.5370098622375525
P 0.21493503421910193 5.708247214166393 12.599543938891314 -0.4473979182056747 -0.31225199429773964 -0.8071970661547583
P 3.987479252671652 6.308790317750901 12.71019440246154 -0.3044453537691273 -1.097241414007207 0.7007564806013157
P 2.2666296771650996 8.595723747410162 1.5642685597331483 0.9853310635884449 -0.15721344523093572 -1.3104306032728141
P 6.455595788553915 7.838699378511129 5.697237483972932 0.7640148743403293 -0.216618269551814 1.21613565194297
P 4.738427911802445 0.9503226217643754 12.648319192817324 -0.07161602167508956 0.9042423265362299 0.08848708639881535
P 3.9456747421767546 6.155229020414547 8.076715762093064 -0.913358429904885 -0.9364109408489745 0.8296193997140163
P 4.729287142479483 1.089719353939552 3.9073669386768315 1.8927900972897598 0.9742992312543156 -1.0292231369857048
P 0.3462819043625387 5.505454531260233 3.6019192448909796 -0.7377837085579423 0.08837215808750587 -0.40061206820038747
Ni 1.5941211516093312 1.2489120180909459 2.6708566230919213 0.691211774335674 0.25836064359592276 -0.5541069269291554
Ni 1.8623682719888457 6.654806523163874 4.793754957232265 0.8243149567819674 0.05152413602122094 -0.6472389682991498
Ni 5.66329603010496 5.496259352596064 9.241661471186948 1.8173012229228251 0.09193056486272555 0.14121964090584063
Ni 8.561509340013794 2.363287871821306 10.519620822904198 0.6091753286582089 0.7979184690663097 -1.3651033122253458
Ni 2.1976386325132165 5.5842029844354375 6.787461031141013 0.9980919627985392 -1.4207358139879853 1.7469807801307076
Ni 0.2503074537608474 0.11152917443073634 9.22796482636016 1.1687545915558453 -0.4758248060877999 0.22765370143036923
Ni 1.7061318487097592 1.2376311480137976 11.243663155985226 -1.7921203527818232 -1.0005643355984317 1.2884296735216907
Ni 4.006069110917756 6.994429630984894 1.7285793292475182 0.3085022974473203 0.2810475436704773 -0.7101379218162157
Ni 5.557206882972681 7.657461862946915 8.09812402421375 0.4457632108157291 1.6512115582481819 -0.06182166129248708
Ni 5.050683120995786 2.939410249426908 5.108970941409679 0.6607969094892426 -0.9948855400460996 -0.5232670587301634
Ni 0.6551483184209673 7.400259838832648 6.987633904268001 0.37792028302982655 0.2652416869864722 0.07872023682003862
Ni 5.092931974443883 4.529369086433819 7.013448416204188 -1.1940912705484208 0.2801224607530466 0.8122361712405625
Ni 7.971802763553234 7.082754128212724 8.823532031759102 -0.3611073252375458 0.22162523584810218 0.7484046786068981
Ni 4.683574227641136 0.3017242812025109 10.435036967884422 -0.05722041507504984 -0.9673945337146823 -0.8851331165106046
Ni 8.423500046039425 7.035427069585205 4.914944510194501 -0.9027562289090064 0.035422602473668026 -0.6443886433345482
Ni 7.01008138480576 5.992182361260912 6.668940256365034 1.0437239017050413 0.31860030511327064 1.416636189997315
Ni 2.4808483217249613 5.223378369990325 2.763218293437394 -0.9211486153732653 -0.07968465761583696 -1.5022708945489998
Ni 2.2662306753295733 5.287046367427348 11.44123344895776 -0.2276123066694725 0.2208816728138583 0.8501296038522264
Ni 1.1540856045887453 3.3966300800457216 3.8325513740486206 -0.42199001965553135 -0.18068607443157914 0.06573282342143519
Ni 3.5268225653331933 2.7768804790147503 3.071029166276386 0.5931046483485914 0.7247523292952808 -1.6452124032419537
Ni 0.9394951628639616 3.3946894802092995 8.162016006772078 0.352356061407477 -0.1823395508746021 -0.16795628556973655
Ni 3.783226585776409 2.6454093742088887 7.376245369268096 -0.8826939109414927 -0.2541553472653235 -0.6088526552114675
Ni 4.3701129447176825 6.978478625787384 6.0779260420707715 -0.4894848200733957 -0.13161862748096687 -1.0451945727132967
Ni 0.776745034619911 7.379139946220366 11.179558070173831 -1.1132357325529345 -0.49019932964191704 0.28492862389243834
P 0.15468031612053454 5.541663947834231 7.978434355424149 0.05176324861522053 -0.32465191062398924 -0.3306505514095854
P 8.406542468029564 1.7394394337526569 8.020547185519225 0.07802321075301401 0.20978479156974839 0.392745263857801
P 1.782413745083529 3.140588788543893 10.278198414562635 0.4489647484721623 0.9102093427529421 0.14900802660200788
P 4.009759877896373 6.326237579831635 3.87588569385382 -0.5725723327231945 0.3468464444431575 -0.8314034881976328
P 6.957585438763468 4.123185217868212 10.4779858881894 -0.1543798324368825 -0.3490696773467214 0.8774090083934696
P 6.229461498269478 7.771177386071865 10.1968664245024 0.5012920971209689 -0.608039672391869 0.5065358620184115
P 2.493235515073341 8.40150053574428 5.884296799046412 0.16967044004736584 1.5913125678997047 -0.07307358005722255
P 6.84518480805105 3.9617436342802166 1.4901693847641775 0.32955011925655503 0.14742474127528804 -0.02236936883413567
Ni 5.089495117724237 2.715760652390974 0.7656010947181366 0.14931707320199447 0.33037338648879877 -0.4661577153116811
Ni 1.266286734383402 1.01393620986019 7.0476510349099595 0.7765047792772239 0.21291999476462042 0.09193082197304167
Ni 7.090616278017297 0.6097618596298694 9.50163837170283 -1.838479142552021 0.41202056714764523 -1.1505414109819283
Ni 2.6645251894200044 1.3409544869679977 9.1705221643797 0.6993392885388149 0.37157402909682463 -1.5986749218020468
Ni 6.599345268025741 1.968820148062512 2.6172371241536827 -1.6835048710642488 -0.3541550622894288 0.7728360721763852
Ni 4.189093066518302 6.686146303699745 10.574489016223163 -0.47951768155835484 1.1073911008466992 -0.13606097952303664
Ni 8.177007593919619 7.481919191762485 0.38881187274021095 -0.3701689212191818 -1.3982643723583468 0.21816067433826947
Ni 7.518291836360106 3.963312436951717 8.324242898518177 0.7938684673666521 -0.11973498866950345 -0.8239933117764905
Ni 3.0202171893444856 8.394001114881094 12.170372123665283 0.3373657586462319 -0.3196117770969205 0.5357569636670579
Ni 0.22960469943116174 4.849486445431731 10.127691294912761 -1.2481805961936567 -0.44879788387699476 0.6494303195235138
Ni 8.687847830299024 2.369227558236525 5.7852863072053085 -0.29881978005223375 0.0968079475596849 -0.15812027331592124
Ni 3.836447989701475 2.3651740623165205 11.13845362653581 -0.15413532052624423 1.5499936545462596 0.58265671354239
Ni 0.960896170405818 3.291121299219663 12.442254694859852 0.46803384928847136 0.176888812172676 0.5185781378949262
Ni 2.996567262366027 8.16185459239316 7.923831861054751 0.38534948561436216 0.4374179241748273 0.9423455611658546
Ni 5.7937242892043335 7.727813141129002 3.690710755630847 -1.079288429073212 0.19381181318025978 -0.8424959985663684
Ni 3.2703913402193727 8.666845824592695 3.673616247445612 -0.49249609609589373 -1.6202595899513579 -0.039139132093306786
Ni 3.5334695731841173 4.4294644677521955 9.55178111373787 -0.329777918996645 -0.946009383170687 -0.5956914352391611
Ni 7.177217812773537 6.270721915352294 11.421816568725292 0.927722669046357 -1.1067907482585388 -0.2767807979743233
Ni 0.7962725471795015 -0.2112061807016395 -0.10875973896324358 0.5033425518920944 1.7157349347425483 0.4589609404529257
Ni 4.798459551602059 0.3404791481226938 1.6143315014010835 -0.9482886661231669 -0.12831244592586935 0.7389838995136305
Ni 6.200951003476428 5.790731775437886 0.31165035868357704 -0.8888604447635208 0.44587916756830304 0.64192861182983
Ni 7.794237878520569 8.736281212197778 11.628173970302937 0.49509136762689576 0.2936968570033716 -0.6759792736566359
Ni 0.20496270879800893 4.7565462224247455 5.715831876330804 -0.6770668502938597 0.06029159780120584 0.6572878678947196
Ni 8.43127151360865 9.200075504879237 2.2536303787281287 -1.2815666278532702 -1.0261568393555554 -0.6777209389380909
P 8.811973674041791 1.5711694778430436 3.6675505127232615 -1.351889641748549 1.3192176054368245 1.4063201527832876
P 1.7692013433934928 3.240321110978358 1.5190099628938893 1.0284942292394803 -0.6815338849262778 0.10403711831827245
P 4.9088289002427095 1.0303496944579698 8.334064691428596 -0.5666521105840177 -0.8417796892256342 -0.19990352790029442
P 8.486043583758146 1.5936768086561317 12.503333714477721 0.3846689146075698 -0.2170011068125295 0.801998038452322
P 6.351964129999536 7.778023894840552 1.5076356901143342 0.15523163891421654 0.01169671961163792 -0.1043073412605236
P 1.965655338048907 3.1835812363218343 6.1921865654301556 -0.4965029032624417 0.5764919794925749 -0.5070027743525011
P 6.83136483538419 3.9121585879925593 6.01144508169329 1.6254182513341617 -0.8724825176261296 -0.6107943523188707
P 2.195834056029814 8.49044167217247 10.073766196841405 0.9669713301343348 -0.4744531225512538 -0.28801523323756206
