# total energy = -340870.1774240266 ev
CRYSTAL
PRIMVEC
9.26719073142376 0.00000000000000 0.00000000000000

0.00000000000000 9.26719073142376 0.00000000000000

0.00000000000000 0.00000000000000 13.56347037743402

PRIMCOORD
 96 1
Ni 7.308310275565497 2.4571584819154033 12.198645603921884 1.5450226836942293 1.6877657032231321 0.7731338059224621
Ni 0.6223465158654578 2.3409108447753115 12.654310578721562 -1.507783853947429 -0.4243433503790563 -1.6897783627777867
Ni 2.014946687507646 8.868135972353512 4.666878344932607 -0.23881743135667255 -1.4849545147577394 0.7511112789047838
Ni 1.3051725701160928 4.1108422836902525 2.8573482011787292 0.4128813724860438 0.246906121902078 -2.0849443202619384
Ni 3.0814705688775934 7.644320067292653 11.576082235799642 -0.5310708710452983 1.2533174031995897 -0.36167888147029964
Ni 5.459246297305909 3.5850960344689757 0.7051766642039575 -0.13944609394518565 -0.535751050129787 0.5272918636188403
Ni 6.949484660923886 6.678187660184395 8.747352972201911 0.09362492184601297 0.2784964951138494 -0.6357587355736921
Ni 8.28747235246162 2.758972340842262 3.4106977039065014 -0.7104865634048861 2.0910458051739855 0.24973484960012476
Ni 8.176599685788785 4.85311643802778 2.0975497896798565 0.029883417822993693 1.2068334007054375 0.22172885130550202
Ni 5.483118579932893 1.3752695987614738 12.984634949101029 -1.0527096501434192 -1.08179499754515 0.40199763569400443
Ni 0.7877686457476152 6.684498616888189 5.761477179803504 0.8434614478034311 0.03177780663222914 -0.9998027748420587
Ni 6.118699570495398 6.358979284762641 1.3106624537450624 -0.48262331706687206 -0.7925741740352609 -0.5939703387829964
Ni 7.402863419836891 3.415126494227711 6.190665791456719 3.36715835189122 -0.870305821689785 -1.9815242667023742
Ni 3.408435582715024 4.7200025142490585 1.6775431103351872 -0.17730918753954622 -0.9170867865990657 -0.6262410258912441
Ni 1.2284773018626332 4.344672033396789 0.13120580926284564 2.0966135290697507 0.9155148141262555 0.8128015568257292
Ni 2.8667312315202746 6.984301495485057 2.079524177514583 1.1715660928627112 1.1191700957594983 1.3114397612636186
Ni 0.8676240259482029 0.22243017872072487 10.936917622685952 1.397411280329432 0.5006848025542732 1.8646074642079564
Ni 8.791802124528022 5.942595150169093 13.330205701226577 -0.6098494719070982 0.018877553630793294 1.6577519304698611
Ni 6.177916917539816 8.936286891002126 4.651388236077404 -1.0672710928973617 -0.1962080813265782 0.45608516156702744
Ni 6.576563649591422 7.150656831446616 3.3953299219653807 2.123537607154104 -1.5773195960547222 1.256656751985468
Ni 2.1432787410086025 4.500851994232406 11.343021662901352 0.5246384851563932 -0.4531805863257227 -0.3220255287447358
Ni 0.5232329871683118 2.351614449757519 8.398026227782605 -1.890745556055905 0.5553582828377532 0.5131119725740324
Ni 9.069743700827898 7.547014567454407 9.906216066042171 -0.9043068612255781 1.5986324985998857 -0.4293909401052928
Ni 4.632853855155832 3.5095220962612705 3.1516074464419557 -1.4625890025783455 -2.319338425739935 -2.6479014984928724
P 0.9270897336969706 6.245678614189079 1.7439499437390833 -1.027579687845011 -0.5238586695675752 -0.5342883495413314
P 3.0768462408376616 9.227980977945808 6.791568955314965 -0.7558300245366918 -0.7847852741184614 -0.6835750837260227
P 5.217493099755401 6.691161726829494 12.949994191158613 0.09549848471964197 1.268487168961493 -0.186556160059111
P 2.680432901687106 6.341695974553276 9.829677413307499 -1.1679045848507241 -1.220622741180046 0.8918915182803607
P 8.47636549562381 3.7508212014792006 0.29294145077970274 -0.9155317834071199 -0.9298736539510888 -1.0334752273938395
P 2.8253624933033286 5.737401018986383 4.749126513710169 -0.9781923956611346 0.29036702129919023 -0.25404350427780764
P 9.007533051264645 6.693339516587778 7.591596240604108 -0.32884152322530463 -0.4785416907983307 1.453376739951458
P 5.220458600702853 6.95141223653973 7.268148125546545 -0.6381508899549525 1.1345121254332073 0.7488055135897427
Ni 2.965065389499668 3.602175466488203 5.116344496033066 -0.6680389357636367 -1.1001519027857827 -1.1657201756048956
Ni 0.5840785795766905 8.788067446772326 6.784298844398479 0.22694356273722205 0.8182929189576036 0.5129584777153037
Ni 7.36250480538017 1.5563690347461419 7.8074179858072466 1.086665952484206 -0.7078483544510906 0.14015674685896506
Ni 8.347366204409676 4.378163659722068 11.054798138785234 0.5995545177389933 0.8911852362419554 1.3622396175243057
Ni 6.319204503304951 1.5948186079679403 3.569512326990119 -0.6846400346554273 1.4546203825505721 -0.001395851906262112
Ni 7.760669643527815 0.28553789232058124 11.50496952307976 0.05040981991111964 -0.3110466611357289 -1.7458746915507224
Ni 8.198081033276884 4.4788331496975795 8.122931532392284 0.1851749634408682 0.332543397556924 0.1294445026477835
Ni 2.5571978029395814 6.751259456967688 7.772844878355194 -0.14871800616541483 0.05501877943804073 -1.0090564322298428
Ni 8.207793048879788 7.558950708767898 1.4241910972039598 0.9216615504539417 0.12727346313839372 0.9145380520352832
Ni 2.1423149532006804 1.940151193298647 6.909068589886309 0.6527508992563146 -1.1469148699729343 -1.3780573012828525
Ni 6.505437962804894 5.481691432601932 6.559605617767231 1.1516798954617458 0.25324029165022194 -0.8496403229206334
Ni 0.9713869040995247 6.47164978638487 11.82657254051658 0.7922998373279516 0.7717837196524708 -1.643307472909757
Ni 6.653499864796862 8.443624511725854 13.40122388860376 -1.3363892321201047 -0.8011539452844718 -1.288269750905059
Ni 1.6279858826270912 4.423470953884848 7.007715978903278 -0.31412967093642674 0.2862218887825651 0.4749858551262722
Ni 4.828391573878405 5.711462152886645 3.343612512160876 -0.8974980658338607 0.9969871597701345 0.69381475917616
Ni 8.4587856353197 0.677844012658917 0.30743348322227887 -0.46774280041061383 -1.0708271856797364 -0.7868832942980706
Ni 4.60190143901681 1.7605808437400088 8.920111010052826 0.9273308329245771 -2.009108604078546 0.4489950874894654
Ni 0.4695212779766458 4.596146513740662 4.757048108116048 -1.714083000961422 0.04604665784641747 1.211238728861985
Ni 8.21997013714526 0.8033949823025915 5.553929182243754 0.4190327367994203 1.5178805760617986 -0.8479845324847654
Ni 6.824840949226323 3.1781922357168106 9.656512545795353 0.7188750445788975 0.1432433562040888 -0.44764165878536455
Ni 5.229141958164608 8.856598320229834 11.298750440632087 -1.8274573375202205 2.0998443773022224 0.5971567069307779
Ni 4.332059387179661 5.624341295364801 11.185074448844864 1.6585453729054338 0.8969113400924553 1.5875613283873884
Ni 4.15966184303767 5.176847202394397 6.411451970589701 -0.3991650513412158 0.5083088947584343 1.1228478017214016
Ni 7.515153966650227 7.967318723612868 6.369377999178688 0.1679388020682398 -1.1364437952382813 0.6810597735033367
P 0.2820237736978514 2.8238519412582206 5.97786885721998 0.057079518621811376 -0.6239748555648866 0.6639202856095727
P 6.540708889698643 5.18515987223772 10.233678728007344 -1.323718578630972 0.9146784342678893 0.6047939117610617
P 3.6529782045942287 4.043933168563382 12.989558607392844 -1.2946185759412219 0.14085145893314452 1.6797086372466103
P 7.449662731663857 4.828734459925454 4.180817912140597 -0.6933334486643673 -0.046605615673681024 0.6526264578633083
P 3.202787359199735 0.5088957168064308 10.351206164150073 0.15099111847030772 -1.0252448690642473 0.3194495404874434
P 6.195209494939642 1.5900274704997144 5.841854302827033 -1.1963060188115526 0.4155980000862584 -0.08404627701864235
P 4.191392703175399 8.647335892434839 3.048186527618637 -0.5633621269788363 -0.13977519514983025 0.7315130450578821
P 2.550228875713071 2.3794345555207963 2.97088796526618 1.679149936529663 -0.07371069942058918 -0.10409342547750461
Ni 0.3491868098433475 2.1166170340529225 1.4187799846939073 1.9858244367396252 1.564060417051971 1.89952561624138
Ni 4.34727611391627 7.631318199076172 9.446563419187216 0.6470229956336018 0.22106576380020637 -1.5370761751536433
Ni 4.196637932976204 4.3270087683785325 9.401600864509577 0.4397676553539265 0.006877958066755896 -0.7832210149551349
Ni 3.129113195036491 6.131052735379625 13.463263095143487 -0.19972483623058507 0.347403345387892 -1.1459553342731423
Ni 0.8131941094958259 1.6188669672136786 4.106204981583676 1.716041924460006 -0.15117520945665577 0.43287658466104806
Ni 0.9855008351713008 8.655945112372908 2.445696820753504 0.9254894088404642 -0.371182964305993 -0.12965584732764124
Ni 4.645216287230521 1.42785163743597 1.9029415701605017 -2.851882796006966 0.27409528072236017 0.13148415878563163
Ni 5.75471213076713 3.2270210622546887 7.6418077319587345 -1.262005160781575 1.608168977335411 -1.1956082214135797
Ni 6.0406142236728195 8.838314153450705 1.94289891527027 0.10034192885487234 -0.5598155472781585 1.068332958502973
Ni 2.6048774978603224 2.5188594360033125 9.572744557782222 -1.5272195940745374 0.4911256981109283 0.6304504359869013
Ni 5.287794006590919 9.1412771439947 7.025443187535714 -0.40240129889032633 0.16217798832506264 -0.6170305630365696
Ni 0.5753229380293404 5.472025752951333 9.51352628401876 1.550020136908821 -0.5455911761486604 -0.9004934010167588
Ni 6.716312881740065 7.29194441721175 11.196170055983563 1.142141359843691 -2.7412891075170984 -0.05192060012869122
Ni 3.7283297302308744 1.0902015529972542 4.566698162613424 1.0432019677633002 0.8401295552167208 -0.250932983673284
Ni 4.229480855969227 7.406653700735352 5.182764303503608 -0.04763739937230505 0.7070587686702597 0.1159904340254067
Ni 3.8620274870086257 8.773758904700873 0.04060604844202335 0.11847643367205403 0.04691363383240307 0.5149536537684615
Ni 8.326135071064018 0.49631643247496066 2.7400515180784764 -1.5994639933622454 -0.09844985403848205 0.13153789484170247
Ni 1.466495821657445 7.966466142090476 0.19441360851967848 -0.5271231992514599 0.5006472644481184 -0.4302594587531752
Ni 5.4469487355644475 3.69523659309541 5.024940343080249 1.5396259381586903 -0.053527025383862656 2.092631661603867
Ni 6.364104041087455 9.11934170417402 9.0647922409647 1.0831615388753733 -0.14265868734521236 1.5115608044913582
Ni 4.958475126376449 3.26195837029185 11.63500210603027 0.8635767304960675 0.45134687555109365 -1.5294533685010627
Ni 1.8596471097658043 8.853873766234363 8.775510403697961 0.7727674237219788 0.6022426060941176 0.3550261520404725
Ni 2.823787070924995 1.962874344308493 12.100704374818026 1.6553955144225427 0.6000954778441278 -1.1455190180666723
Ni 6.780015548967504 4.9642578532239785 12.872736404444183 -1.1504635065561413 -0.1860987608067182 -1.1615968974651414
P 6.663350888256677 1.5536908167029748 1.262257137811242 0.8946636817088592 0.80822833563275 -0.04900214093031561
P 8.711260972233337 8.055801858132446 12.721191892277051 0.45077531931833975 -0.5254905487440433 -0.7512866281403836
P 8.99661630090184 8.415748802819811 4.295930318449243 0.3018688512912027 -0.6769557786372922 1.064110435781193
P 2.085090052105331 0.9867241043121245 0.19246286492768316 -0.8025078882092049 -1.455305581543055 1.671518388126334
P 0.6680161571752541 3.1122469083978617 10.528941609997473 0.5196955393288211 -0.5556153931538818 -0.6752902180094111
P 8.986366788252212 0.5270677505809848 9.229032804063108 -1.4358346173026368 -0.8783849991534937 -0.9382207403642036
P 6.027130461552377 1.598506949771333 10.649738510934766 -0.4491650374084265 -2.7299124902490406 0.7724316376491149
P 3.5889326513197406 3.3345297387902604 7.622222451638911 -0.5255692245007787 0.354885255587234 -1.1035182481548542
