# total energy = -381177.4439383678 ev
CRYSTAL
PRIMVEC
9.11037975048738 0.00000000000000 0.00000000000000

0.00000000000000 9.11037975048738 0.00000000000000

0.00000000000000 0.00000000000000 13.33396165613605

PRIMCOORD
 96 1
Ni 3.9382350265486235 4.0209481657316415 7.368334058549124 0.47069751216356354 0.1611757723127934 0.26242555769391585
Ni 8.629151420320792 3.351599443524845 6.015350627402093 -0.6457176465586169 1.586138994118565 0.13509681583755442
Ni 3.0795817202374183 6.392826464350378 7.941908089899074 -0.8360319881085795 -2.111787408596711 0.9362512753426586
Ni 3.3699204175194533 5.600542275667578 12.912022097364014 0.8180931442419718 -0.4850936329842356 0.37451125734827756
Ni 4.7635625631570555 6.166688614278688 2.168742335738289 -0.6417494059394883 1.7757529671673933 -0.9544569997174078
Ni 1.4173655749175422 2.170930648992145 5.862196030771878 1.795781346573178 -0.787483903996547 -0.7775095663926546
Ni 1.0659782218732645 7.519744017426992 6.941674013592537 0.16508719155205764 -2.2581662251059886 0.9200039602458607
Ni 7.140843317061124 5.874400295696383 9.779114590412204 0.7833472561203542 0.322903817584631 -2.0695189868458037
Ni 7.696321400800189 0.8395041987829768 10.475360798258823 -0.7518946940380277 0.09500688979520412 -0.5642602133130734
Ni 3.163670526786516 1.0240158120178862 1.4815764435457863 -0.4240137349537795 -1.2988200156170793 -0.7938563831817941
Ni 7.255151253764431 1.1341511947234157 2.070204466655403 1.2621856522234973 0.8618432927447286 0.09225478097136369
Ni 5.543948595680255 1.6955510254025572 0.5580645205948918 -1.3159119381023594 1.3318597196808677 0.6450391324343536
Ni 8.549982218921913 4.686616294455682 7.992897064167111 -1.280120896545679 1.992158092267137 0.43529984939055993
Ni 7.733892607540002 6.939312603120432 3.583649019118713 -1.1293233821434165 0.44217189392004497 1.2198547526657701
Ni 2.3399464170418587 6.287273602738478 10.842297747729752 -0.3648313110563523 -0.2293071778733922 -0.7481570813724663
Ni 3.4629920586576524 1.0977187854720787 9.860211548199576 0.33879554911422294 -1.3363828043622017 -1.4698765373786944
Ni 3.8661537007180216 1.435276581816299 6.963248304252224 -0.7293636028150472 0.19450961057823277 0.8772442006808312
Ni 5.464779394281375 1.545539509840538 11.599480553665748 0.26629686772386396 1.3503312961224938 -3.294208441896056
Ni 4.528113904819583 0.4261935935053063 5.035690522041366 -0.9609431216623837 -0.6523048128578314 -1.1462756937270389
Ni 4.563808373298387 3.241946910954429 9.852997949388572 1.219250800533184 -0.2504208199235558 0.42043398802232107
Ni 7.242642702151007 3.1592611029111346 9.92706807115305 -0.15433663790377292 0.44533666480127176 0.1848065243578559
Ni 6.949179144560592 2.643823138866901 4.200744246326268 -1.8430541635172126 0.5032721036654751 -0.4895123308772215
Ni 1.535153676745633 3.885668134480553 4.422555576979738 -0.42212397413023434 1.8988231908577171 0.18339678849452284
Ni 5.134892537819532 8.682784226838077 1.5952348101616665 0.98950010736447 -0.6644720443479847 -0.3891056102226847
P 6.173840262506321 4.12317573867719 8.368727566504045 -0.06452569048721145 -0.34549430129063724 -0.4489999725854719
Ni 2.7630871222400573 2.8802010559549704 2.7396488478512317 0.38606193830035446 -1.4639241764500015 1.0108937425488977
P 8.05151689264593 1.4385016563036643 5.577916647166528 -0.1569175112570717 -2.1389220600299743 0.27062711966810166
Ni 7.444638045466996 8.079868394919039 1.5473260553404597 0.4140411971220998 -1.0405025665542662 -0.525559711419082
P 4.404486049470584 5.283947463491231 5.648400012361301 -0.0728267541537391 -1.2059088320086393 0.3512957384637627
P 8.388764936073287 4.777710983153886 13.340362096375602 0.32426187427442216 -0.26568083140641985 -0.6170225926167696
P 6.420594902309387 8.347185162174036 8.581204401903973 -0.9060487836173492 0.26835066492909915 0.19842437225160664
Ni 0.027835854770326327 9.09858196583058 3.413334110894146 0.10596287458607556 -0.7725043998685792 -0.5440935085572114
Ni 3.1591882198718726 6.860699134895929 5.0175963965064625 2.09092136378098 -0.4770257683744365 0.9048030841357062
Ni 6.691036529872762 4.867985737660387 6.079006673893951 0.5858214844236168 -0.6820211089753415 0.6400275381523751
Ni 4.858456280276816 5.564264742874673 10.043219948749698 -1.2784658774407593 0.38718473905088807 0.6729397154993636
Ni 6.382294865176948 7.858413280119965 10.926101399387735 -0.25373060102307915 -0.6685811814203518 -0.8963258999026306
Ni 9.113477436979851 7.581630828140753 10.534043488359007 -0.6456081175639462 0.8417570635178148 0.11635347379178027
Ni 7.969742122593417 3.474689786459282 1.7729500799853486 -1.6785130742766126 -1.5570762724246536 -0.28931903965065014
Ni 3.8177502522678206 8.21048391165733 6.958488130750394 0.35842206509589886 0.7535967643307989 -0.07094033576430364
Ni 5.898898107268486 2.626404092483166 6.532601557047981 0.7372933991850852 0.4769157251591335 -0.08825028779766092
Ni 1.122125493245105 0.7196535069437574 7.467178947434903 0.39542563890344157 -0.02360941188882385 0.7141755822206991
Ni 0.07776984704503948 2.7197581553985075 11.204301426480603 0.28521607322587006 0.3111582470129286 0.8208719925386894
Ni 0.0030392227372458146 6.0142172961415605 2.1230464921966896 1.0176110066680732 1.3376552433167221 -1.8469221311130513
Ni 6.6730161984151115 9.146365908447049 12.702705652754108 -0.2741101931206956 -0.22767298470407885 2.2632474962836375
Ni 3.96542951057344 2.8450076583710957 4.913564968339166 -0.0022150053734477982 0.9157084181943003 0.0401554891729631
Ni 2.921999478972008 8.096175974954022 2.935564834654739 -0.6057634747631825 0.20592556572465828 -0.11143906720929841
Ni 6.813398042414574 -0.1086804550342521 4.2169324803844574 -1.3378210794706251 1.2505457539917235 -1.1815039208017135
Ni 8.281745303296228 4.732505278051327 3.899783757109715 0.4003495585676202 -0.9278774494566665 0.3594111684820455
Ni 4.559335176763652 7.860636212817471 9.35052041180119 -1.4373070880831054 0.375054017225625 -1.0851348605516602
Ni 2.6141597418870677 4.308863501958198 9.583184938038837 -1.845573844615273 0.44868604088947883 -0.7302424058755747
Ni 5.702733407093495 1.545876593897127 8.674395389018963 0.15179895908358373 -1.2159554176113638 0.553446153416705
Ni 0.9559248325869053 4.037328628805886 1.7484686670970784 2.091469780085282 -0.06039598458955406 -0.285379852497244
Ni 7.725183084348134 6.74007770491651 7.089907182996551 0.5796863180601566 0.5588552402474182 -0.34281341202436444
Ni 5.433794992214909 4.3379620553837475 0.4445528310955274 -1.690685190862772 -1.2722232389651575 -1.2066593370214187
Ni 1.8995415419183577 8.622145538171685 11.398204019324485 0.41748313292411326 0.7928379692196088 0.8380377056846987
Ni 6.813798899130518 5.457819064031807 1.6357304488518873 2.1405572816405525 2.0828110759690195 0.6623796805953301
P 2.3097819491670957 5.985191625755274 1.6355837717353714 -0.44173532060325865 0.46159606408292764 -0.3695667688588087
Ni 3.2716740805936175 4.944166734449504 3.3155432929637003 -0.10239366917757849 0.8990610394456063 1.145637803032724
P 2.020627601273076 0.9862441769201009 3.588115838387513 0.010603229437143029 0.688076314030486 -0.4441117912552351
Ni 0.7163655708350284 1.5243669869347847 1.5661408119260716 -0.6460151231943778 0.5883236820201804 0.1604023844818786
P 0.9084214896715962 6.2151376146284285 9.040053241150837 0.4508611941639267 -0.20618190470983846 -0.7349233562910117
P 2.576779853125318 2.480638013958187 8.277710316035058 -0.9814366136300453 -0.16786089764245282 0.6874628488162031
P 5.617943101291497 3.434403686506941 2.3670051564060484 0.2840922440340721 0.17821395874200274 0.7002175773787102
Ni 8.406821709050568 8.521320963731938 8.458625151282364 1.7887774044515192 0.42379827650886365 -0.0011112307863077636
Ni 8.852902350856635 0.3055229674743839 12.440226497230158 1.49708472236237 -0.2764025886992982 0.3721340153653527
Ni 5.5783038383126105 6.12710401357925 7.784314005139783 -1.134215163018079 0.6868732948613202 0.2667316412684374
Ni 5.399849716678404 6.761733077957377 13.064575408920312 0.31004315957187895 1.6356283590979446 0.12435371838843745
Ni 0.4200577526373954 2.9293606659375198 8.72163817506891 2.4274911088884776 0.04119755728423227 0.831167975148059
Ni 7.201627771806041 2.7362661637914614 12.53804464630033 1.006801574757395 0.623107622468585 0.22084876269339387
Ni 6.592216239012734 5.259258333941062 11.849985025838869 -0.004575278075508249 -1.9194658068087331 0.016374841813597607
Ni 5.7099579383603905 7.083775897318595 5.564275675330563 0.04269213955188777 0.8615854110976516 -0.9732574202533626
Ni 2.056303848992065 8.315672358072916 9.029225554630404 0.21563585103388666 -1.1492424896648465 -0.21637118653801446
Ni 7.858404169740058 6.928525913309584 12.735520330144054 1.1437799238883783 0.4175291556707003 0.7061162022513323
Ni 5.838888034815733 5.0468953782899835 3.9938019667203366 -0.51996524805044 -0.8045796831365692 -1.5461917643016663
Ni 3.2952517437950326 7.733081783728207 0.5910796263428088 -0.8261059872441191 -0.31810845307851665 -0.45113321687839075
Ni 9.085581453702133 5.327850384266973 10.942368893751123 0.13260721664648129 -1.4030772203659578 0.2808475118445293
Ni 7.968721760043743 1.7207230050878393 7.814394657519394 -0.989253795681619 -0.9300523456207983 -0.4810364321957264
Ni 1.9577477591493633 8.777286197621802 5.293116149830452 0.40754890452953685 2.3446671343127106 -0.23435245360678353
Ni 1.2102593084732702 6.926284759852263 12.907635449438404 -0.5945796902322211 -1.2682994784307189 -0.30273351328434317
Ni 1.1858343799404285 6.8944439820744625 4.120633942682911 -2.5137451921917155 -1.0426334968543398 -0.6738961658753619
Ni 0.9119034768723616 8.293333706538965 1.3535172994096292 -0.1619044229487018 -0.14089722456941542 0.3479988128800458
Ni 0.9113295229381694 1.0237425006206518 9.865678687182255 -0.06833863647539844 -0.4488050829658464 0.5449399157179067
Ni 2.5271738345272863 2.4551653917359464 11.343375019925304 -0.05929940909126562 0.2858259388957271 1.1663400685770815
Ni 8.535888461204529 8.379991640222064 5.515860383386482 0.34430490896822635 0.2065007215018379 1.1276799330027223
Ni 1.5196204790028152 4.556538290131954 6.776786158679053 0.6375721346333472 0.41641124001617313 0.32046949711152545
Ni 2.91129478258033 3.1965316671139905 0.5217377917504854 1.0562271763783746 -0.2975601966135198 -1.3182619263917748
Ni 1.5957285927526699 4.367816770341645 12.39173103394289 -2.2178431000069097 0.05893996886931784 -0.2821477187131915
Ni 0.04936914872042887 2.310091702083961 3.6466117656995873 0.17302572967284396 0.2735728325599869 0.31196223097146275
P 4.922893997364765 7.900676332512301 3.59218271197836 1.170697574214829 -0.43762644064120765 0.6053155885924865
Ni 6.222006841078918 0.2268220396027661 6.582283191799247 0.8450203076501189 -0.713869620944506 0.9273159205262416
P 1.5920753304096376 1.285210403974833 13.0487351913746 1.398714572521888 -0.035015082622604214 -1.2837170985373698
Ni 3.8166387859190674 0.3569711048897753 12.393797268105981 -0.3282190591499573 -0.1703558961501647 1.1627533796670877
P 3.976088655065579 7.536088038981605 11.34930861035926 0.8299909241208222 -0.10565639908925029 1.813633801373567
P 4.4673203396947585 3.420537688287252 12.066769248859208 -0.3799604533883069 0.21336762382500027 0.051087048483802334
P 0.049313575402991215 5.694206091499785 5.6159315294078525 -0.29138903480580136 0.3262400810467156 0.5956706093035549
Ni 5.084712565287308 1.468720786457874 2.956672673863147 -0.7544863660246037 0.656462800890263 0.6889849418876844
