# total energy = -340865.16170215845 ev
CRYSTAL
PRIMVEC
9.31157179724772 0.00000000000000 0.00000000000000
0.00000000000000 9.31157179724772 0.00000000000000
0.00000000000000 0.00000000000000 13.62842655337409
PRIMCOORD
 96 1
Ni 6.00972548909159 5.780772569175098 12.934821289360293 2.02970751127582 -0.3363085210263111 1.1632668289683967
Ni 2.0875053440116718 4.295083402450022 10.69643403431678 0.20608805944445152 0.656202862360657 -0.40678734377316395
Ni 3.817921232765593 2.3745904047707973 10.246995206444105 -0.5205026086111488 -1.9963381917867553 1.7272305940869737
Ni 1.5525648732014152 2.9970410244900827 8.583482958881008 0.24847552327172692 1.0292349640602467 0.795857472772223
Ni 0.8067629347320989 5.769477632951789 5.681541014068294 0.4014865003855408 -0.845128551093209 -0.322460045178993
Ni 4.6895029478308095 5.6109853745371705 8.021105942661043 0.9399197253331814 -0.7664209126786607 0.16252148770741043
Ni 6.7858077269051575 9.139800935529246 11.954568879163896 -1.1517634563144874 0.44533383658779435 -1.1463955071343546
Ni 7.547205616471274 2.9569081513470827 2.064665921448992 -1.2128690653765564 0.8900909747365123 -2.193037868037772
Ni 6.389395505224462 7.5320184433631 5.621698337542049 -0.6943834871954363 -0.6708766623227478 0.2121985432175636
Ni 1.5505535737585179 8.663700284995235 10.211943657865868 -0.877869750079972 0.7864027551172262 -0.4682415944239033
Ni 5.682712409762352 7.603838594303229 8.17693322931382 -0.4364966979121385 1.470692091301454 -0.94848304152216
Ni 3.073479714891681 0.10235838081478921 12.028230858945717 -0.6112211554436441 1.2148102482633272 -0.10112097311274199
Ni 7.62383053830277 6.927213251626642 11.606199710611117 -0.5822584496627069 0.20287160938968288 -0.2044142712864544
Ni -0.2013031395195497 3.9486091386964524 3.689637574594715 2.792557161663455 3.145269063748454 -1.4097322637886303
Ni 2.056628172934598 2.993632989322951 3.567731411740692 -0.7512269785470417 -1.5887026410806833 0.776542831604011
Ni 4.7125677104236665 8.63550484650869 10.435204414127531 0.6123295580164745 -0.337186038535258 0.4926534476093645
Ni 5.976846330143114 2.490687078169156 9.14550520422702 0.28257580738954563 -1.9662210606864008 0.3542962158529833
Ni 6.899883789289124 9.49836161908319 7.058161881559358 -0.6172982148756594 -0.33594342437740854 0.7157529540101479
Ni 9.069349585598866 4.785440068942719 8.24050984600952 -0.2955807042896458 -0.4189144660540011 -0.44507286961692377
Ni 7.144899170034312 1.276039134517501 0.06344718585191954 0.10504781897097393 1.2753319597974682 0.6002605426670823
Ni 5.646955975221953 1.5686925150305746 4.489189628361167 -1.1644557070701753 -0.30195189792331223 -0.22273338131061643
Ni 3.926903865541851 3.1611947183735967 8.017290060662434 0.33483476469426204 -0.11723896172052711 -0.919264768086991
Ni 0.1568813565460008 1.0625806695685147 9.074623659693575 0.020830049371473803 -3.1282226497891283 -2.063967460899955
Ni 4.354807822018283 9.094323220348176 5.9938362234927 -0.36184883138926066 -0.13994437373784285 -0.29302117109258563
P 0.5033816926997563 6.027901676649627 2.8838979815699055 0.38532351747243315 -0.6504739302966798 0.7396079062508747
P 6.393529842968196 1.1617209712746681 2.3008595193599155 -0.4495525026548322 -0.5086827331580852 0.20828506709577033
P 1.9776474235148935 1.1105166396242372 7.66297824718161 0.017295039635021825 -0.7868629825830964 -0.4264064035556721
P 3.448791915564942 7.5439279433050705 4.343324792050777 0.610357007671136 -0.21839644449815937 3.5115129388816166
P 3.509084340994391 8.258963518398103 8.05487715015873 -1.0944247704940184 -1.4366236888628354 -0.12248324083860197
P 7.3990957602734655 3.939809703633776 13.295960347061172 -0.1667725496742805 0.6691684213823895 0.8636924301383253
P 9.003861303275265 8.074538533370202 12.803020650635792 -0.17714180872374655 -1.4858662279387314 1.1670445508432739
P 8.982789216982317 7.930767869489014 9.16992759394383 0.7583967568226035 2.6306609662448697 -1.4508442033375917
Ni 7.087316411909876 9.273785137769298 9.449433035506111 0.14141890140084032 -1.245322300809255 -0.4556226201083121
Ni 1.5917945239094102 8.193745271647854 6.288251353332608 1.0132388457423067 -0.08803740045590645 -0.4145752152486989
Ni 4.649519059831728 2.3192144890906534 0.9876495225919405 1.4443809642107512 0.6855684600069677 -0.2557733424847208
Ni 7.753708337513574 2.3951876009175064 7.30614486013997 -0.23887785228096278 0.4796891741392126 -2.0864332461026387
Ni 5.852555473829248 4.560537682626506 1.466704734761282 -0.07400277673971126 -2.314912528758097 -0.46754379702593024
Ni 1.944628590993994 4.842547936920913 13.00803258908176 1.0760316126988114 -0.19599725086735278 0.874474608355494
Ni 4.6435875887894795 7.805275820452306 12.890637882617014 0.16562892298814055 -0.21009640927289625 -0.2953346497171107
Ni 1.6312848986192627 7.056048154830017 1.044102787094044 -0.68851237312664 -0.14181433706704608 -0.06443775875909548
Ni 3.5103972725751715 7.162525974874148 2.3725455836705187 2.1808588094730763 1.6228738876457534 -2.144853337912745
Ni 0.4140185410632434 0.5816482445858022 12.240302830899115 0.4622594086985394 0.580129319134846 -0.2641080876026613
Ni 3.920013302635628 3.4814662199405304 12.58138103897139 0.05101865713971213 -1.9385338791837774 -0.16255954003419745
Ni 9.283776453983322 3.0011474275193315 12.798482190689182 -0.24190455492242852 0.5209913753221093 2.37869825575549
Ni 7.386832420614688 6.605144616761193 9.260638129975655 -0.6286020699242528 -0.13059301442992993 0.5413516841460161
Ni 5.1333855609924814 0.0024955011606320166 1.0042064278670144 -0.08311193812983106 -0.7883822474411003 0.4909102396660126
Ni 7.6957251818148595 1.657385233519455 10.774838397460952 -1.854207094810239 0.15215737086426698 2.3635837687115555
Ni 7.7002133592753985 4.865277482939954 5.350383354266678 2.662311503270615 1.1719700131693493 1.7202281946272115
Ni 4.647451890959861 0.6253446561398988 8.54652253814632 -0.20695889208517904 1.2215948752853283 -1.3966517764555881
Ni 0.28113869120248547 6.417171922993736 10.384792497211317 2.163482265867842 -0.7683258430108574 0.5449142046862938
Ni 5.552937037837992 4.0318080300033445 6.18517970614131 -1.319883521155598 -0.6715052970456823 -0.7052155448139339
Ni 0.9723422302114817 0.4732745885853104 1.1923104147925494 0.06551247988051298 -0.039834615498434624 -0.4134171903848557
Ni 9.077478587513909 0.24337468184778693 3.264471220137783 -1.5319679073928003 2.045184523865497 1.171995467090646
Ni 7.074093980387125 8.087760964892952 0.3234532655467395 0.3606627815009595 -1.3303335128443283 1.0401559818481247
Ni 2.28074838724524 2.986220978413014 1.0768338920557514 -0.8065679172111916 -0.42430812626574665 -0.6778554076334261
Ni 3.185740020834142 1.0341338186516087 2.1561530425434903 -0.36287084489587185 -0.4908328494608579 -1.0110204979347492
P 3.283474275244566 1.2496035830434926 4.176771506193028 0.439460665636469 -0.30880928716477785 2.20013616964545
P 2.0063922447196365 2.3413294713910306 12.006833798807596 2.523821345480795 -0.04847352212035523 1.0461577079575144
P 5.597073886723797 1.8551071426420676 6.7255190261043065 -1.194920965538568 0.31173340279010825 1.1451729475811634
P 3.2006478467974695 4.278527428332097 5.03646700024501 0.8374108707339771 1.5992621617640843 -0.2483613662913658
P 3.0256368605509074 8.799695786678184 0.48534331639984457 -0.5518952639898174 -0.4650266870310314 0.4884360670939072
P 8.330197040334054 2.8310250163075894 9.188121473487707 -0.18131573759577804 2.85925697698385 0.4150205303162336
P 6.772967069813697 5.578292447018593 7.0323902451329365 -0.10224943029023037 2.767138978700667 1.5896832598263977
P 2.740553787663184 5.083335864207418 8.609049740734543 -1.4054752882844892 -0.9353483039124149 0.5852481284186501
Ni 7.864367053158913 2.3491046335892682 4.184185379417264 -1.2018498314479171 -3.908213073622108 2.106105527720586
Ni 1.2401709611191634 6.611476485377723 7.9450453020621365 0.8549997874603339 -0.01643757673073298 1.3453690670212122
Ni 6.343917790043392 3.8687344784132383 11.351306614824143 -1.0320976303200224 -1.395763460313364 1.272910237729853
Ni 4.631584973132559 4.476631111886001 10.097273517220529 -1.1728351893831221 1.2843097378160462 -0.8900534366303575
Ni 6.675027960830384 4.524539147227239 8.835581652062363 0.723844986989663 -0.17437812993568033 0.33245263761533067
Ni 6.789364747216208 8.415090637653018 3.2366147228536537 -0.4993002635019207 0.46733682322144676 -0.18658212820103995
Ni 2.9879901769970445 6.946404400477622 10.12454431665763 0.8980333695120404 -1.3388757459873843 -0.9034645678299408
Ni 5.2003450716122765 5.933286798689991 4.042614108723171 -1.0308182493869669 0.27281075758298173 -0.019397430690005303
Ni 4.013808762303711 5.62045524274748 12.032046740944324 -1.996974282708858 1.499845830047275 -0.5813595919975213
Ni 0.23660982515674528 4.6930413449988695 1.085599805461046 -0.16886568475788336 -0.43401095537580736 1.7425145168292377
Ni 0.7836702374247578 0.8765736485436301 5.398533490466782 -0.4718773914042776 1.053040551120277 0.34435401703860696
Ni 0.4334406168872966 2.4264837927118506 10.751997112583974 1.5494400960356347 1.4062731015954362 -1.2653254834040595
Ni 8.445353245011427 7.241106326719572 7.0217061479996925 -0.39039167602395997 0.1567079663494269 0.1857100100087318
Ni 4.33722757503592 3.624566450674086 3.152691391284458 2.0669602249796917 -1.3282131240672157 0.7338877159376458
Ni 1.900473118965199 8.877680197947935 3.649978660440805 0.5131623661959936 -0.676781457842957 0.014686912588213417
Ni 8.852762432627594 7.741193585424434 2.1485352459035165 -0.3646539049382236 -0.9490196307519203 -1.9052635471664217
Ni 3.19612242305095 6.134575039695149 6.435397461880695 -0.5478403771941532 0.5986546316325432 -1.9515369763116648
Ni 8.366921878309922 4.515134460017395 10.852193346497646 0.8072739421392807 -0.6100523319465235 -1.4792962880306975
Ni 2.143570315982438 2.9575785844947156 6.278779622808 -1.1445921353770288 -0.6586865480144591 -0.3989197680996291
Ni 7.369494274491192 5.812739194117074 3.001197710005404 0.4333555811799956 -0.003136745856768791 -0.9614267461670216
Ni 1.7674759433036056 7.2283401622000705 12.327279426761484 0.13676520467891284 0.4193294421042326 -0.39300083151203286
Ni 2.755396432626047 5.127090938661932 2.8624329469598724 -2.6336681285023094 0.9697211249653298 0.0553458237601563
Ni 8.596591789231523 7.168364330201448 4.552221518124414 0.8082072525868275 0.607679975059605 -0.22152599126607656
Ni 9.17339708548283 5.59645001143364 12.690831112636692 -0.5804756467306712 1.1982968239893363 0.3173679753680663
P 0.26634446641139536 2.561752991818199 1.8612611602430442 1.5631142510886176 -1.0226819934330775 0.33444267146216594
P 6.471830847668773 4.006676098538621 4.089903855717147 -2.8511407756346183 -1.2003799317706103 -3.1086115604264206
P 7.86911595462131 9.160183965531573 5.290963423086301 1.584893294636922 -0.28337284936954427 -1.8751052784154867
P 5.557658004585904 6.621430555305765 10.796984107947262 -0.30800067522055347 0.09459679884097902 -0.16477788784175493
P 5.712574619546483 6.552208332812712 1.4805240380168567 0.17474914012185389 3.454960239297553 0.45730823534085113
P 9.236175700501414 2.9453152448359377 5.734091798956887 1.4103531852020808 1.109644158546934 0.3407429026485809
P 3.7078212114099474 4.5786207544695925 0.9760035401232746 0.12857778377211404 -0.1401127809949071 -0.8082075096971436
P 5.5251513084972235 1.8384580528091945 11.993055466466599 0.04792047783036263 -0.3139198689184658 -0.34800421219668454
