# total energy = -340854.90813516104 ev
CRYSTAL
PRIMVEC
9.36560862833157 0.00000000000000 0.00000000000000
0.00000000000000 9.36560862833157 0.00000000000000
0.00000000000000 0.00000000000000 13.70751491779144
PRIMCOORD
 96 1
Ni 7.666031464546294 6.1987965173864445 4.933170339998695 2.9727076753065385 2.276779212221485 1.7591932630364993
Ni 3.1826866144214305 8.317737326836562 13.225969861280607 1.5449149544717717 -0.16507202204340604 -0.9486241950857148
Ni 9.03858011052407 5.865905331509527 7.330189175454493 -0.5889726284580888 0.22661677552542261 -1.0010934686290245
Ni 5.105886207778044 3.0490112853638895 12.29008896189964 -0.08238791547961295 0.05659923655128316 0.12654301273027238
Ni 8.025558440785408 7.05327716769779 0.0197286541483718 -0.3381370895946177 2.877837568199515 0.41049924540711236
Ni 6.2176682183638805 4.714937615271285 4.484317000279433 -2.91430969498362 -2.010669263697447 -2.908438580914823
Ni 8.110448315554383 7.775047146619424 2.463527767128834 1.0381248103507088 -0.8180319519867331 -1.0329939168820468
Ni 0.9516394721177587 5.063122839707088 5.563523551639605 0.5618570031882194 0.8696702449883151 0.4766853543158822
Ni 3.1140741670960224 8.89629778732347 7.8152705616853755 0.6579671533499313 -0.1611606028041418 0.3599984084440832
Ni 1.6911666446141906 8.249752375275666 3.574288926396289 -0.35224216153743204 2.3617050636316033 -1.0706698341662657
Ni 2.385467294023755 6.582243257544356 2.1845806126612644 1.50924552609462 -1.1389115400524836 -2.2630289525149285
Ni 2.8719731892961597 4.0468325726279195 3.798475368399805 -0.023916144495965262 0.7354092947884947 0.16923309539963113
Ni 3.3814997500785093 9.149347161372773 10.662555070611004 2.809541097815961 -0.3326354430500981 0.7702461999620218
Ni 1.2729454003723 4.460970411596281 8.815192554919252 -0.052885020924489566 0.36686633920851014 -0.7028506441261831
Ni 5.839794015219159 8.30371701102355 0.8742270991157258 -0.15393760269314133 -1.1533894219536844 -1.247345501886871
Ni 6.780597478388583 2.2450487268998343 3.424822244972468 0.980320497747731 0.7788038597240458 1.4041866513800525
Ni 5.156320009149503 2.727134054995391 5.750960282742196 0.6617158217590863 0.050475640152048556 -0.40333409511724083
Ni 6.085969032684125 1.2557501433030331 0.7706078806173845 -2.601569962416184 0.34317465201852515 -0.12705106271494246
Ni 1.2907025939470984 8.518929327033726 11.22999106141007 -1.2342760702974227 -0.6143255054005807 0.38765807914288075
Ni 5.5059194404575615 8.230300006575847 8.059429163656326 -0.42597780065868573 -0.4450438161512013 -0.42236565782739516
Ni 5.459569044359629 5.500506118787606 8.848570646786985 1.2566240989753197 1.2943236704086225 0.22531014089885715
Ni 7.72491304471758 4.847254931107125 13.789485408392748 -1.904649824841823 -3.0091180956147725 -0.1926159930999457
Ni 0.31059916470247934 2.1528911399926525 6.438158991282683 -2.1180840402387004 2.4006397930235885 0.4347547755203674
Ni 5.928804757695364 5.020003578515964 6.7078679095993134 -1.1013451517629356 0.18851251245453343 0.9225264695573984
P 3.5497810022683716 5.952415456536117 0.2667952775354488 0.7462457232823664 1.1912597146368966 -0.10453565522124576
P 0.7586049168592297 4.12082087918958 10.886179576108988 -2.1831509479413627 1.636236939216221 -0.9155878334560361
P 2.50125431098854 0.8112162221896254 3.2502707179417154 0.9532768633663776 -0.026830232818966696 -1.043262131577274
P 2.6890347599203483 4.569414791555453 6.63465601197613 0.5285982411350896 0.13129312582074806 0.5706519757720301
P 3.985450375007018 1.287050006661143 13.123245058386905 0.6753884341501722 -0.5411830197786357 1.7240123442599922
P 6.7199926262670004 9.43023112366274 2.545704425136932 -0.5438492537568892 0.27144910134876477 0.6049263235738679
P 1.7969043637383861 0.9419647986141896 10.166534653739108 -1.2264550315911071 1.936227085427472 -1.836269793605528
P 3.833268603700636 0.9511243636543547 6.146901681100601 1.058273517384442 -2.9784384071427286 0.41585896705712894
Ni 2.6047255528737576 6.499807172182869 11.394617853192292 0.5964897627707404 0.22780411096530448 0.5591151787770242
Ni 3.501679237394867 2.0954893259525997 1.5162564147807407 0.168838945285006 -0.3472223397253375 0.4034976172782986
Ni 0.3247562183985053 3.7021781825685403 13.072089168605835 -0.12032248574185729 -0.3196665415942559 -0.13419847239300114
Ni 5.883035029319815 7.448889833200459 3.200443807996229 -1.132773802585862 -2.3410202815887424 -1.1916687771498573
Ni 3.5775313000332067 4.781892349905376 9.803134998416036 -1.5606143674848993 0.32779971222435156 -0.7791087925589744
Ni 9.141517512729033 4.043151888516688 4.043223067140722 -0.6504055389525895 -1.1529531057472142 0.6591172077939746
Ni 7.131302051490852 0.8190336955424126 8.06865428795547 0.1280288532471795 -2.937262447125051 -2.412304630956026
Ni 6.7629714033317425 2.878416727892922 8.42551581203668 -1.6272193090986427 3.2746107222697867 1.7594583437724278
Ni 5.036074962574167 5.816773349709215 11.29740471085701 -1.4981306471283813 3.250748056719576 2.550671890014736
Ni 2.6335247987822528 2.4929189194898216 5.871668926934596 -2.04952506022238 2.320735306087461 -1.33744749818129
Ni 1.1225337290583426 0.18459614206712943 6.662359481698837 0.0401680875784534 -1.495881188972572 -0.5891055544915274
Ni 0.2810225732946663 7.587032557476977 5.0598411305147835 1.6758005604414559 -1.6337766506011862 -0.14592193147751642
Ni 8.555389640634301 7.467265156931343 11.577298728336402 -0.14189069883093627 1.1354922299582897 -0.6824101168836441
Ni 8.483377477450427 9.399699240195526 4.094132641420199 0.6286334373828206 0.8030272510477847 0.002216290925028441
Ni 8.23320334518776 8.358824250999348 6.316628046670523 -2.5341489526590486 1.084608555734545 2.81021858349896
Ni 1.5431619346655936 7.262289450930268 6.999988728878229 0.24011995221818005 -0.4972950601464339 0.9751281549135141
Ni 0.48802687008071066 6.215851290329328 3.219374512306746 -0.4911948607859669 -0.6192638232424625 1.7574415704527153
Ni 0.7129101133510853 1.673353257388839 4.0733110207685685 0.7625637437160996 0.9864857460181786 -0.4209343246975073
Ni 5.534662492715502 0.6889126148823586 9.75554178608004 -0.5128368645357749 0.5036261445707843 -0.8369856102711005
Ni 0.2678545278483759 2.2017140567149225 11.114779092802612 -1.0898430646606068 -2.111629542862609 -0.052817658021663876
Ni 3.81670084239588 6.46681213369974 6.815897393105235 -0.3716812440986502 -0.5100544166946313 1.6700747137012724
Ni 5.4794522310470235 0.40934264745449145 11.947291771991042 0.3660009058844213 -0.9052134322002475 1.3265077113403347
Ni 5.607882819386269 6.9394569285023655 5.546347962348031 0.022062379116678136 -0.021389007198737355 0.45822431939721725
Ni 6.401927198527691 7.689276904658451 10.265050552206379 -0.21171903247798377 -0.25816266865250376 0.7920242150690618
P 7.066904127956931 6.827781413636386 7.601324475934331 -0.06971109134289286 -0.2133372848076971 0.1155327776626978
P 6.249445727751692 7.101116695535381 12.651145341994644 -0.5527810090288803 0.199908670106617 -0.4920993748781073
P 1.5175188987965018 6.82955151362881 9.48878022473492 -0.19425764246842672 -0.21367667042498686 -1.2965718430128508
P 0.9640208064563047 6.245999183851098 12.783271599418603 -1.3766779044368227 0.1819032346681319 0.3537269736130747
P 7.544774932261002 0.16632103034639936 10.601816290288937 1.0793264813999992 0.4489477791912978 -0.5913550126473365
P 7.570296215220561 1.2001746229059582 5.7522901991386215 0.5623748233649024 0.26321951435012086 0.7500149605168115
P 5.060285060354154 1.6929273789981896 7.871951223876662 -1.0095071466140162 -0.5226363671247 0.3204018770983837
P 5.96350433691194 4.295611229235183 10.607066650372287 2.3782025470659947 -3.6416051024157285 -1.8284837219022059
Ni 3.7947853186801477 8.622363106485242 2.1806049118846285 0.005621202841519351 -0.650248444549435 -0.04910138551234124
Ni 9.139166745014226 1.1851334557745623 8.892996410353472 1.4640766428674654 0.22738065027464063 0.9304344115505653
Ni 4.88974669653374 0.9077016567502431 3.4327595981131016 -1.805692435039303 0.608309638223804 0.4593823442610604
Ni 2.229642301039843 1.8243736932504555 8.114944744159478 -0.026589834673386464 0.15277109318886592 0.8230628295424212
Ni 7.677775937511904 0.5852868404581194 12.896440928828454 1.46550489067356 -0.6978066539443725 -1.1025952221199526
Ni 8.048288772434162 5.2337735908286085 11.71747097995873 0.11158176343474976 -1.0002997690831352 -1.4117999449509364
Ni 8.22145887222215 1.4219054023803008 1.832625730834187 1.4877346486060377 -1.5940513069871065 -0.5776237791041731
Ni 6.3076529841163405 8.92627709989358 4.724034430734999 0.5189128955265256 2.207968264095359 1.9460183604862809
Ni 1.688591102297171 8.653316442331608 1.0540533368117346 -0.628264484079176 -0.31997096020855215 1.0586126458914156
Ni 2.555284505995403 4.0721384465936925 11.76110253993073 1.4944061470889425 0.08975438314701316 1.5980321460117253
Ni 2.739065840129512 6.630270097550455 4.739263846595749 -3.676301368246333 -2.953330299221191 2.265621652942769
Ni 1.0411091294068142 1.5311458590556428 0.7258983391156056 0.2890752990709602 1.2332419726059534 0.3551858175467883
Ni 8.192191345892379 5.6525193091423285 9.466436692714142 -1.6752585718950568 -3.2676360907241655 0.22257500135588115
Ni 7.388903111234962 2.6834715885155855 11.148280810701564 -1.096883516447156 -0.25623151306806197 0.4417327495000972
Ni 2.424802849410966 4.146360893365991 0.5205536281425647 -0.43350419094271797 -0.3728318127633256 0.9972170163927535
Ni 6.0963180299943325 5.7708537715988575 1.1409343399319747 -1.6992857880475896 2.1704962352918296 1.1518611582346163
Ni 3.6632172515183496 2.56910814403148 10.165012742369958 0.30948445885493153 -1.6802963914292803 -0.19010119709789197
Ni 8.388709907485204 3.644982411913849 1.9604072825095444 -0.15954055070221557 0.7292191068173828 -1.034187680079832
Ni 0.0379279044408551 5.756468197057249 1.074076071064668 3.3270188035578574 -0.7456245447585997 0.24143635703675836
Ni 5.615890414590094 3.5576574789542392 1.1216964436651005 0.10672469245276457 -0.34454325023127763 0.5225247812475001
Ni 8.927560188247877 7.583529819925831 9.207324023770152 0.422129373446873 3.743096828604328 -0.8245648680092443
Ni 7.705872762788484 3.9864524951085496 6.071003726980977 1.9922645359380142 -2.0498438770143794 0.16211962428330143
Ni 2.1735891346130662 1.7183081778313667 12.270459583200578 0.2532534042763445 -0.3564664840314248 0.22053843054182665
Ni 3.896008814543239 8.363076237224536 4.918996428207502 0.7458975959143282 3.4499365608307166 0.41513340174501406
P 3.977676920013831 7.271842371524305 9.697737250877688 1.4095923957766563 0.09497680788821708 -1.2370109527300823
P 8.57113322839761 3.728280133250483 8.020828808530519 2.439159803475657 0.17305709713141162 -0.2948895917598921
P 9.063698672321332 9.064316802477416 0.6569206330616022 -0.3148187265836514 -0.6383267534111845 -0.06461465065659194
P 7.75168931920616 5.539495146663073 3.0129527563647693 -0.6483766814480187 -0.25784436608113664 -2.3022925260012412
P 4.105882733750865 6.186293430138367 3.419558773037322 2.41000452206794 -0.526897456393899 -1.7165965114118953
P 7.560424863940057 2.61366034331171 -0.03931120480530538 0.3376745481359023 1.6352339518730032 -0.4138774178507259
P 4.845260056512488 3.1786687684068795 3.368224000135325 -0.18722258999851626 0.060913290545604765 -0.6648996188037065
P 1.1984513509556611 3.5491816033291377 2.4733972452876536 0.19959628107252075 -0.7300482875868975 -0.9415091813074882
