# total energy = -381173.6828004821 ev
CRYSTAL
PRIMVEC
9.15826078626328 0.00000000000000 0.00000000000000
0.00000000000000 9.15826078626328 0.00000000000000
0.00000000000000 0.00000000000000 13.40404039188393
PRIMCOORD
 96 1
Ni 6.4461976389617615 8.54079265223072 5.506514277267476 -1.3988858079924296 0.10662107699536477 -0.5534718644483178
Ni 5.057420636534542 1.589306283531045 10.728955785666908 -0.33037081538563745 2.2947980173964093 -0.757100149498367
Ni 8.154964277932992 6.855672642954872 4.850814849310311 1.537706095428158 2.023431962679754 -0.10860365464303232
Ni 6.2158124272588084 2.2422902871254364 4.311396028601916 0.4140756499044611 -1.7569764578908387 -0.32107884856075025
Ni 5.4294108785821855 0.631280756866229 2.322183292086952 0.05517818783404045 1.5539125299846916 0.27932953253810605
Ni 0.28109908154732755 6.5057904427680535 11.967623396659144 0.9361096075584717 2.0009628350429605 0.38896111422502044
Ni 2.2674205550898545 3.497805434906064 2.633760150149872 -0.6002209476783985 1.4591108142217581 -0.4065253483610289
Ni 3.1256228693791006 1.7974094464156922 1.458640795855267 0.018495230590710083 -0.9287675653711037 -0.6909670053147197
Ni 3.5733794040177176 1.4697360289598198 6.553637776944477 -1.3450309669555027 -0.7880186934540945 0.06476943106690136
Ni 3.4457956711415116 7.056751419713898 9.193000035299098 0.5399208652367604 -0.5633641838613653 -0.5102073973327278
Ni 6.244496100460178 8.162354994495415 0.7152372821979381 -0.5254344986951274 0.06297454395000768 0.5661741425063346
Ni 0.5156192480556498 2.0929007349987647 3.2877158452278734 0.047877540407569155 0.6612090573259968 1.0180131272024981
Ni 5.295507945671195 5.517513348632368 1.5447751556337468 -0.09728514430641955 -0.10242477952583005 1.8301045453350804
Ni 7.768934421895023 0.13867896598075838 7.5281115402215715 1.2131961096986719 -0.3483034886046582 -0.6045437434234686
Ni 4.63209268288895 5.349285253793303 8.278228059133244 0.49712511022747286 -1.414366677236848 -2.1618938383347994
Ni 1.435081169638625 2.904505817727165 0.19452512524468882 0.17437812993568033 0.08588101623453596 0.8664872192746432
Ni 1.6308206802813028 8.87837530800201 4.555041486290904 -0.5671532185901522 0.6226911037564566 0.10811025994638154
Ni 4.183502746506615 0.09529170487236525 8.969461539459921 -0.04630608215539122 1.4137269867703202 -2.1079523511213374
Ni 2.5059566190115867 0.9385202625574481 10.801069763802994 0.9071083352301151 -0.05830259239563508 -0.055241179861491956
Ni 0.20228491972218568 4.389133178942869 12.160413947285589 0.819675401127427 -2.5299624253815267 1.2377725134864555
Ni 7.3384228925687225 2.3645164373634557 8.77854751649598 -0.7501923666349403 -0.4135979389370942 0.2510304284830967
Ni 2.8669935809989378 6.091379136139075 2.464520067479149 -0.2387351560555114 -0.9222580463873601 0.5396156752915158
Ni 3.0134066983266172 5.812674939822322 6.43591016447035 -0.8582746015568637 1.3370669749134199 1.2251196006091352
Ni 8.048893299957813 0.47123739981134716 13.069649754725317 -0.3205772263339834 0.03489784031844958 0.8610976728279557
P 0.5658779523323021 8.392831788807566 6.677772508758219 0.11369701000553967 2.5219472683865343 -2.886973726172828
Ni 0.30427497663142244 0.9824432819296599 9.257688495481268 -1.3294562524456977 1.9104268365349162 -0.09894453428671347
P 1.719262005985525 5.6565357493976265 0.4626661834163403 0.32316298478328864 -0.1754325393421237 -0.5832156713696536
Ni 7.478489335078858 0.5328761591071633 10.691894135375943 -0.521352872426586 1.5831804257108735 -0.2321413048880776
P 8.436003830784339 3.5027325792810116 10.51560402344902 -0.4176595106009775 -0.23962784307310991 -2.646942991234345
P 7.952795668124489 5.961890484991514 2.941556478105026 -0.1412939457872018 -0.0027765343038726378 -1.8866269059018412
P 6.566390655275545 4.462811388044087 7.236144350440507 0.8029503750632623 0.1985578125056774 1.0534118184167665
Ni 4.1428583845437545 0.021103380637904016 0.24513001178411617 -0.46190742467575935 0.3464211839802808 -0.8697131824111087
Ni 7.624719287188138 2.1863058381216143 6.231646144563357 1.4836532794478126 1.2217571118948056 -0.1352323129741542
Ni 0.1222389718033069 3.3668880950549864 8.092555308893806 1.071318009273226 -0.6581455879093245 -0.3515104255777301
Ni 6.749299442369335 4.321105616829276 0.33935386343321206 0.647885343633897 0.461550812667289 -0.5383332090346664
Ni 2.36253825300474 4.152831730685611 4.897688660350939 0.7326767263486801 -0.11496867762911168 0.22949358285258542
Ni 4.540995461517934 2.9774147329111056 2.870059766754946 0.3675001161377671 1.030357507700464 0.14105071942814418
Ni 7.069444769348986 2.8204512990036124 11.999055463962598 0.6871648579598101 -1.2387071094855828 -0.1600663412986985
Ni 4.4564189219219426 2.7260662619623246 8.592927884169876 1.3080626172612697 -2.0194593511852514 -0.8524829345757512
Ni 5.687966900874989 6.341207335775139 9.994857065104275 0.48182858907971865 1.6757218846847204 0.8199183703761685
Ni 1.7672879262498866 8.620359623103486 9.175923541987709 0.44775221622129985 -1.1917849910127474 -0.7538397335795405
Ni 3.1635197530659673 2.8062102032730474 12.07181326784136 0.35934097736574244 -0.6351653249640674 -0.8937159730836093
Ni 2.519400946042114 5.117572094256953 11.67568368166084 -0.4076574050829431 0.3585835303744276 0.9584869468124072
Ni 8.873319947974183 4.939901832409392 1.1807068092818835 0.9721294772965063 -0.40523979678038596 0.2305348796329062
Ni 0.4559605047707328 1.9218885288400258 11.59304777755379 -1.1286245563041788 0.08762833794294586 1.0152782447698385
Ni 2.990053132980675 3.7014027334180826 7.157368653311229 -1.0777629935676212 -0.4899450475392658 -0.13906248535352178
Ni 5.1049245359264654 7.516377060504805 7.220005663047323 -0.1180066931244871 0.5567970721668088 0.9332435988645863
Ni 5.126922678656251 5.509948625112467 5.884816392741167 1.7209031092070493 -0.79959868498221 0.21631642204067908
Ni 8.472545291855049 0.19516345603081123 4.7661146731918995 0.7472903624967969 0.8475453880648177 0.681256462895175
Ni 2.743631806406842 9.010199315684165 2.543765583393622 0.28919691225048905 -0.6726332400025383 -0.09955491417720273
Ni 0.6222681122948791 8.769868232622116 11.803410283407397 0.1816309548433517 -0.369471380931525 -0.9442196382601158
Ni 2.7217985123736157 1.5768235738971157 4.294628168683529 1.1286155574431143 2.209421194491801 -0.17936015653130402
Ni 1.3573092179061765 6.862916827342574 5.171694668815745 0.1751317202722532 -1.6996480564830148 0.3778665469737557
Ni 4.6623149439248746 7.649666389934156 2.689024759845384 0.3430486679636221 -0.1934300043608088 -1.8663732978591276
Ni 8.0135424128067 7.68890037971534 9.799506780550697 2.4516458517578097 -2.272907645081221 0.36379901313709606
Ni 2.0267780911565274 5.184738779844069 8.829590167907382 -0.1618825685718309 -0.13400332566305953 -1.0055910993890615
P 4.361896510966855 0.1458975072378846 4.167624153723557 0.4015296949186504 0.6453841744785982 0.7774293479740224
Ni 0.4955287710754953 4.951120702036365 3.737743628574645 -0.017048727952170637 -0.6015550931087899 0.030928828368372543
P 4.355320879626311 4.954582524664116 3.8422146583671033 -0.6057580754465438 -0.009355730183287114 -0.5095425100552193
Ni 7.6435761464223715 4.70095364674626 5.2536061544840225 -0.704290204786187 -1.617356814482266 0.38496459147111767
P 0.32690046023422675 3.1998230993527574 5.318682924929198 -0.33353095828117396 0.2761349368602083 -0.1089255567588253
P 5.963236749346751 0.8382794334839271 12.434552750533735 0.2416520725919903 -1.1962067742295268 0.8363459198045724
P 5.787920160555623 6.350457179304317 12.951077750594369 -0.030383240277547678 -1.0812419532551572 -0.3730637262684736
Ni 3.874924303068895 4.160103389856072 10.044518650768945 -1.6218601016692582 0.734739779525296 1.6787676134895797
Ni 8.52913418607959 7.336545449080128 1.107875739315763 -1.2598217799770108 -8.330374242566299e-05 -1.736982531267415
Ni 3.6898633246589103 3.910339298046448 0.5916236554305427 -0.210687762999992 1.825479130747927 0.43045331993153607
Ni 5.528585686084622 2.3129279536012226 0.5828317249473643 0.007208601933297263 -0.1911054699926902 -0.055012865900769765
Ni 1.6590006491320735 8.037253150328523 0.7154424272425457 1.3642347935774635 -3.1275896441908198 -2.0071681925227236
Ni 5.170314518895104 4.133974871451376 11.91270680087859 -0.9550871771022391 1.1931649020794095 1.6713453528835795
Ni 3.7493279128123245 6.8197447853658 0.349941728882798 0.06655994730842085 -0.45551977598186066 -1.2500194491746084
Ni 1.084292301620729 1.4879609681905748 6.544724041591062 -0.016055767911282024 -0.2215254770454443 0.48719782381143195
Ni 5.238543562748936 3.119376935431676 6.134988942987824 -0.764068096175768 2.2200768744334343 -0.1972169822070668
Ni 0.81355762395654 7.244175229441235 2.765092359220625 0.20000380092358458 0.23348882005490756 1.9977630971587401
Ni 6.1216013971750005 4.122902533999124 9.866526933963092 1.4588287642049649 -1.2028826435878057 -0.8755881531346469
Ni 0.6167878089603647 5.124926177775696 6.6068381146286255 -0.012501989121752663 -1.1708407846609126 -0.7884719789414292
Ni 7.04731841096632 3.7069892725792686 2.6239076930521605 0.019319269153902214 1.1497453974431942 0.12633321071231146
Ni 4.869007734627846 8.518281646889417 10.94061876457115 1.2524406570215916 -1.1246498879271467 1.487529217463451
Ni 8.442139865600724 2.343928666815346 0.8239861356661182 -0.8983619564960529 1.5504307420836783 0.4754584238873167
Ni 0.5165387374520156 0.39021701293058275 1.6967638222095083 -1.6374070482649221 1.3356461833064934 0.6384946464476166
Ni 7.514490458755289 6.701529953410732 7.02700080911535 -1.6090909749290483 -0.29185543291925864 0.10852343622440018
Ni 7.218074185819299 7.730945955598956 12.07145151653502 0.012925449812416449 -0.5690344947732651 -0.7097070049263842
Ni 5.7196911167017905 1.268519878286995 7.024213034491309 0.866020821161186 -3.232970935241813 1.5693826005958327
Ni 7.395506332882943 5.421287501146166 11.600138103158036 -1.2942771334414034 -0.2486647564643975 -0.6199865603410999
Ni 0.40685482554390584 6.933224796425241 7.975082296073254 0.555553686678011 -0.9394787811410208 1.0053442734855782
Ni 6.121427390217521 6.3485888940766415 3.9460153034602197 -0.21541473616201612 -0.34207910496150123 -0.8705606180130685
Ni 1.573480808661324 3.234102469976233 10.025779933100578 0.13962324295299824 0.3805425511440221 1.1441650751419392
Ni 2.827521476433835 8.254148243696347 6.708789706841999 -0.4787864598192851 0.5262281982410163 0.6522747309508444
Ni 8.073593129658992 5.267703465518144 8.892132847555999 -0.3620637756135442 -0.58388004442653 0.47619221672954765
P 1.9310009984554033 0.7152473562849502 13.16578401960232 0.36814829124472725 1.870452610134824 -0.6660211340026594
Ni 7.407723452950193 8.574550001981757 2.8215502903140095 0.40752473615982077 -0.4893272114496089 0.27280253005286564
P 1.0649866876014167 6.674274968912878 9.93223287693347 0.6864151242779791 0.5174136852731799 2.5095000437621167
Ni 2.8608025966170327 7.49397595429454 11.317138682469814 -1.430488265389059 0.19185906032926311 1.3040221286433091
P 2.3581239712413113 1.9799885361163627 8.53861481778395 0.04813027984832356 -1.227492728827002 -0.8961351240480631
P 7.629499899388366 1.633549842035456 2.701624695219089 -0.2697557728067419 -1.3644731348405146 0.19000735183250503
P 6.40995840050141 8.506998669436005 8.94343101444707 -3.2132279482869306 0.5454096562654736 -0.35634821328600563
Ni 4.1090918765317985 7.2841968296615365 4.840078620033822 -1.309512719444235 0.5650801381112075 0.9097689127814138
