# total energy = -340888.5587652573 ev
CRYSTAL
PRIMVEC
9.13432605471263 0.00000000000000 0.00000000000000
0.00000000000000 9.13432605471263 0.00000000000000
0.00000000000000 0.00000000000000 13.36900949290200
PRIMCOORD
 96 1
Ni 6.5988838988593645 2.310829253869441 11.409300517943418 -0.4547823835952039 -0.05234894591536146 -0.30508812955944875
Ni 4.501012326829067 0.40034199051859615 5.926575565591911 1.4434576810655333 0.9624847551178909 0.09223884013176373
Ni 2.8765272119195404 1.8777251754443312 4.949261118151547 -0.5449800249272228 -0.2951060786460724 -0.6232449193773976
Ni 3.6941042158954525 4.286282585700364 4.621185349639917 -0.5782308165605525 0.5817388297138111 0.33436116749195316
Ni 3.4771822364703864 2.8246533732318633 2.5835345636106966 0.8857820629485131 -0.8053972939418581 -0.9145089985695605
Ni 5.39328985075353 4.589058097406725 2.6196973611744427 -0.898390495741143 -0.8521895717050484 -1.2862234098989913
Ni 5.474466608002586 4.714591142852181 11.494714689132818 0.6318270046194538 0.4714950683641944 -0.4603673338821491
Ni 5.921162563865143 8.004839392926492 12.589235330222952 -0.8967197929069396 0.16491827007436113 -0.8415536892577571
Ni 2.1494713809309283 6.580880141850487 0.1461163361830523 -0.8460076112640527 -0.9886770972425426 -0.8933395635807969
Ni 2.786435352265278 1.4866664006782067 0.2001486161600227 -0.12495715630039125 0.66141140314479 -0.05173316670823349
Ni 7.955587105868216 0.047788054562831306 6.939933150922344 1.31325341743359 -1.2881365677613041 -0.14115304933396336
Ni 8.686771652314977 2.461088920432618 1.3494012266167175 0.8182993467155069 0.35926950069785873 -0.6638742628629857
Ni 6.7623335325056555 0.7889664673431349 4.845718049683854 0.9706580349573025 -0.6986977983000741 -0.9275421776044349
Ni 1.1096836226399758 7.167349557758621 2.408293428227845 0.05700984172614053 1.894002629540622 -0.5153850848789253
Ni 7.767182492948331 3.9786476124370656 3.5829476865110172 0.5752709626012802 -0.6216531494102455 0.12757402509794805
Ni 7.88464992832842 4.075818574923332 12.721441914415585 -0.0335040452947165 0.15726229619100013 -1.035879465959958
Ni 8.403625807687295 7.555585825718179 9.175980589339742 0.36987375857626625 -1.0569967075545472 -0.39687702663798746
Ni 6.86076503201233 0.930943126876556 0.043453816764398016 0.0326838633862663 0.07931673275345695 1.0620815782766224
Ni 1.8405576019947525 6.700457606590825 9.113306323311987 0.5788825912119385 -0.005954417811222003 -0.38977204016209
Ni 0.041278020255258265 5.278590116222599 1.200730932818403 -0.18237657476012462 -0.997024183655657 0.11745493438607514
Ni 6.71736524445152 2.012584367975562 7.04581552033878 -0.5668356873497334 1.1736494577543013 0.12093209430139819
Ni 3.6529358075550125 4.721222663698677 0.5956110496039654 0.22414748804932366 -0.32604544853740625 -1.1245439584769021
Ni 6.028956747762532 5.512319255919778 4.612188038298595 0.20060878149743516 0.43142622536776665 2.077042548916358
Ni 5.118127407255101 2.9243636784114164 9.507103569083316 0.6031363215529806 -0.8702384587869593 -0.18914500383220972
P 0.28181588672788893 5.710022612946733 12.420197315786183 0.8566890022372987 1.5590994735022696 -0.11577137603606512
P 4.182416162083957 6.341469451235237 12.372738096967806 0.7388751418499081 -0.9457905822916616 0.7709571099861173
P 2.5500663922862294 8.363571787147505 1.0548895398550195 0.2573265459044536 2.4253560648233456 1.578200970218411
P 6.59387828808267 7.924338575818816 5.7837941719172 -1.4264801726709304 -0.30271731533442703 0.5700621647068311
P 4.721487559159487 1.306793248461666 12.391107227026076 0.6835552862316808 -0.03819913677754066 0.2832309244750413
P 4.086478333639395 6.348749509244406 7.950603417474485 0.31298347314712555 0.11713508915281118 0.71528527034511
P 4.824815057528038 1.151838538213779 3.7034961301301186 -0.5780811783565656 -0.3214118064201368 -0.7692768940702172
P 0.15599876373652963 5.643415106042252 3.505902385017982 0.16280842282020994 -0.36108418530909425 -0.3779979303452974
Ni 0.6875087655548565 8.99532005820176 4.632241538114572 0.7569109163056964 1.3674643562583546 -0.25674393392810624
Ni 2.1720148980785225 6.747234491239459 4.609929119420719 -0.43931025610153374 -0.2836014204405825 0.5526732798064223
Ni 6.547969164426346 6.030847553293145 9.062303899347114 -1.07278148119263 -0.5203383151191425 1.343523272061725
Ni 8.833962185263246 2.2503874171734806 10.178910427840478 0.1763653355690382 1.567192020702417 -1.4858829401092797
Ni 2.503179895722777 5.213234012012292 6.862767276323008 -0.09776851170074129 1.065983741544506 0.18167697758993873
Ni 0.8370742233241858 0.031598374744194496 9.157357525012143 0.0912988448159976 1.3241816343103197 -0.5183369684183976
Ni 1.5368138517074978 1.3027924135708047 11.342695751336809 1.1043710830734528 -0.28297535682080943 -0.115457187229756
Ni 4.532470946381868 6.814974654597059 1.3750960863153328 -0.8593120416824427 1.5319766491435487 1.2042296445340037
Ni 5.726044221162648 8.26044524395612 8.03405279509077 -0.04509637811800621 -0.352598002214954 -0.5351794938970332
Ni 5.634408660374698 2.855262500444824 4.792749918713243 -0.78384296480985 1.0668178074100272 0.02755476968981706
Ni 0.8192294035917953 7.669107232164816 6.719973094591569 -0.12069838102403731 -0.9075413090024758 0.8150538431950157
Ni 5.524677999315521 4.879566208979691 7.036430913565102 -0.7209766643029324 -0.4837818561513474 0.43387700090110437
Ni 0.8140465868861451 7.8004588434218665 11.282441168328663 1.1859305891144993 -1.6408512980597805 0.5626707573387664
Ni 4.86004615381583 0.45195732777382697 10.272252280769099 -0.2834628379801893 -0.42544301120113825 0.063910939721348
Ni 8.325984034691125 7.33562211565691 4.711840797222869 -0.4749935684357562 -0.44322398933364315 -0.2892858724198695
Ni 7.622513034040878 6.3299327972006285 6.987286411556396 -1.3329030733437175 0.9359355438744527 -1.0691773087811391
Ni 2.4733471862397782 5.225793710585203 2.4294430471920023 -0.39498700870412623 -0.29815129323029943 1.1949718733811614
Ni 2.467236321988668 5.558447603405738 11.18385803900649 -0.684671402113995 0.17671551981960532 1.0502586174997655
Ni 1.3543008792090878 3.16887132306571 3.4761564516342136 -1.8450603953139644 0.7210239726011002 0.24928619209848032
Ni 1.2586644835302752 1.0601024998372446 2.3686678075884706 0.09979402677120232 -0.08504283660395677 -0.8246623128190572
Ni 1.172874891532624 3.3654054863346055 7.765923782793171 0.3392593761245189 -0.26322079990170155 0.530616557116699
Ni 3.8408745698369193 2.91888308267051 6.865320320505647 0.29248586741440596 0.3660880662815889 0.3085508912970686
Ni 4.420858614118314 7.113055122618711 5.872565207997904 0.16926549129946333 -0.4827966094199427 0.10663418962148732
Ni 0.703688397614635 0.10940273874734538 0.10190619720640924 -0.11892817649749195 0.07984406601183669 0.1205382012970892
P 0.2204743188977967 5.772254777584722 8.049427693009259 1.9353238568869122 0.7799791109790697 0.3949183602497199
P 8.71930812236349 1.8346020212896343 8.047261944258977 0.544368616595469 -0.522676476334016 -1.0450235943530712
P 2.2131376347877882 3.4499071383331437 10.191289266753937 -0.695988369788711 -1.087301786295992 -0.22797354666363318
P 4.090241676048151 6.3059460565079295 3.7515984055154283 0.07353149353024756 -0.7607058645717544 -1.2059116602221167
P 7.026781411330613 3.9805475522939133 9.973214535358036 -0.5391168812782263 0.4624504416634229 1.0550922914429828
P 6.65988292945565 8.111455248739587 10.402881366820973 -1.7589677772892545 -1.113596972547095 -0.2592898402784115
P 2.6099875723868036 8.608207312369087 5.775452705199541 -1.074735262484891 -0.23349550492312693 -1.0570283321234313
P 7.031229828206982 3.8761696064083555 1.2741398590373472 -0.938791525266009 0.8887054072428953 1.3014206864647202
Ni 5.168484947787794 2.9770504721339943 0.42933799571848374 0.8662182818839728 -0.6545794678246211 0.5001106752183581
Ni 1.3936606909550286 0.9297739331184962 6.855828842115021 0.06354430041054862 0.8061382858729407 0.4267565878062392
Ni 7.280770486616674 0.5564211363259924 9.25211702537241 -0.6024642351866205 2.09656442099937 -0.6151739694438051
Ni 2.9559319098790358 1.6322036205779695 8.76259752125566 -0.9291817700903868 0.33510807296030676 1.4858734270275828
Ni 6.564593638173761 1.9889812689847262 2.433467631331075 -0.5017435828360907 -0.4755887788175938 0.4985279041122705
Ni 4.339617916585615 6.996629000429394 10.085406897337501 -0.0005383890019732663 0.8931130493922878 0.4967625846817315
Ni 8.069546959974124 7.577992327972251 0.08984340598067478 1.6897405675613157 -0.034474636738101916 0.8231199080326017
Ni 7.997559334917322 4.170331448475259 8.03299686697802 -0.6481491388182451 -1.3283900159647122 -0.06162985699665516
Ni 3.5733392887445854 8.43837278468464 12.354288584838669 -1.1043065483841046 0.9494040106745326 -0.3741351049557815
Ni 9.091824214872881 4.885594864294688 10.397988108256968 0.0703834348195691 0.10824061487665874 -1.674268697177962
Ni 8.844329645539794 2.2753241277946037 5.602577360311514 0.12098480191620455 0.663505052449025 -0.38375565876468104
Ni 3.6870251130634486 3.3432821481938135 11.981079196968054 -0.8077940763088088 -1.0475121651028798 -1.1873128141740068
Ni 1.1619228343770465 3.6554294786171244 12.09660102086012 -0.0029374853617691343 -0.6881516473531116 1.4012491660182835
Ni 3.2002203307036936 8.460432182541787 7.878143547751341 0.25676990207003525 -0.2001434118252424 0.6336866835360119
Ni 5.682665305873376 7.842284923251215 3.6495387516282736 -0.6208951881982984 1.2536627023541504 0.14726096200391411
Ni 2.891379626377396 9.03824225717929 3.40853594795029 1.5884357605725417 -1.0514744921847374 0.10848152724287123
Ni 3.7259830144550565 4.675605838481868 9.408667502413525 0.48597526425824045 0.879125476863944 -1.5701667870600249
Ni 7.5821393120828695 6.5168119776392945 11.428591301518786 -0.2605154851553965 -1.2478113857796962 -0.050514206699467844
Ni 8.364722712253096 8.69511129216739 2.6029998128171483 -0.5450473878300485 -0.729931302393059 -0.8394407566798123
Ni 4.528524917448416 0.3543506579261586 1.422542517076981 0.9217255709226577 -0.3917404767423705 0.43964038574744285
Ni 6.284553464465926 5.866018636385391 0.31229165277782117 0.7914832549639272 -1.5793762214734348 -0.22970698441497214
Ni 8.258472229489394 0.09621642539472515 11.484607557153963 -0.8878160626594065 0.06916267503859057 -0.04593687174143056
Ni 0.13690162787734209 5.329011597038935 5.624717140239529 0.2505699439069104 -1.4254419612144031 0.4627468898579192
Ni 7.208618443687644 6.251094427467693 2.744042944209369 1.1918806360503473 -0.18892466029128754 -1.4129317445625342
P 8.522545600938724 1.4171267750523422 3.498335509165037 0.18023304605456056 2.0071859331345365 0.5345346612241827
P 1.6924901737279376 3.25705410853689 1.0652670478904254 0.9880296934665307 0.03639833612337602 0.795989627474713
P 4.939039807094757 1.2944984453495667 8.020897538447347 -0.22727780614818924 -0.5804658765386583 0.3902970594276246
P 8.686086577847364 2.0268247825756833 12.253419133659916 -0.10797990501610435 -0.7206375357959588 2.6787776192464383
P 6.5927364973033145 8.005661482287628 1.565069976482363 -1.5459534230386147 0.3738445702985561 -0.9841408999350856
P 1.6569028387169868 3.689628396040379 5.572202985282789 1.1423395918974262 -0.981560026581787 0.2952588021738528
P 7.155328784433567 3.9462390229558406 5.934984626323708 0.46865682758445093 0.4909362078079416 -0.9035684403976568
P 2.6036757529585266 8.67934544508605 10.239498413756195 0.6433357765900017 0.005903252858312414 -0.22004117919043392
