# total energy = -340859.4324263755 ev
CRYSTAL
PRIMVEC
9.41775129523221 0.00000000000000 0.00000000000000
0.00000000000000 9.41775129523221 0.00000000000000
0.00000000000000 0.00000000000000 13.78383098145776
PRIMCOORD
 96 1
Ni 2.430269592254073 1.0013518386449498 3.552340994066099 0.3017539229798932 -1.3746611311171102 1.1934580078397963
Ni 5.045984127934568 7.089024034603136 0.2898454269139843 0.7980061436841095 -0.24752010133699304 2.127968132121632
Ni 4.050989271505495 0.09290517609097082 12.034552775124556 -0.20156574609406575 -2.126684380313202 1.38570221942262
Ni 2.2685197114278686 0.7867128075577915 6.474609931249332 0.7758959420486315 0.04742914001624089 -0.21740811244296104
Ni 8.045170666379626 0.6385150710406938 3.333564744775334 0.08165026598264004 -0.5902550947149382 -1.0246861683472999
Ni 0.642532683801128 7.067787005126391 4.40863403274588 1.505370616520246 -1.3025514576350534 -0.8175282728774372
Ni 3.5043923962058106 2.2966222816977604 12.945154219205932 -0.47779504244029325 -1.9693884026707889 0.8875520103647424
Ni 3.8989490924045778 0.5837282438664079 9.92070550432255 -0.5478385774219404 0.032765881577111314 -2.065522464091901
Ni 2.5421524792535086 6.061829886031717 10.672655507798495 -1.2673394285102948 0.5066713591550113 -2.720545190101528
Ni 6.307096386547399 4.5264821235016655 8.190669275336619 0.36843496924721064 -0.34765531349769807 0.7046804982460703
Ni 6.1887811753206385 6.524458089573239 2.4094827312957263 -0.4037213032533305 -1.0857532108619496 -0.42249447009577556
Ni 8.259198485398917 0.9073268919088414 8.82705499277878 -0.2926984976458443 0.8251058281143788 0.09856246835694639
Ni 6.1102559638895535 6.1258235070048785 4.955617977629376 -0.4151809671534979 -1.1052959088805674 0.22909866140701188
Ni 6.823697723539575 2.099499326496987 6.703435863092041 0.24335774242918734 -0.619210601407024 0.027003525172037367
Ni 7.944042851514311 3.6040322063450385 9.766877836000042 -0.2638782309800423 -0.48644114815106543 1.3786214013164386
Ni 3.8848883895182014 6.715685532378251 8.258293439486405 -1.7659048707287202 1.4599613351475116 0.8639243436434735
Ni 4.4444346730354125 9.11295532361835 4.878980083585048 -0.19769135074032407 -2.263073689709935 -1.6330950511531295
Ni 5.980074385859822 6.819346722378485 9.59000398815091 -0.7237233738101343 0.6524107423080764 -1.1261480697392283
Ni 5.909262312850668 1.2535215509595028 3.9775176254922457 0.8519622861855909 0.3471320940043764 0.14838633385760897
Ni 2.337354056636528 2.1272251867096417 1.2936336378541151 -0.4425058802206959 -2.6177206040341177 0.6652842558366349
Ni 6.312417416105873 2.5418416934562877 0.378542751665616 0.18185335526680294 -0.5486003952886294 -0.0828057197433219
Ni 8.681867169619007 8.626057574639322 10.58357017168791 0.436499526125616 0.4440904510989965 0.09268389808898231
Ni 4.041015872740141 4.091542109167075 1.291978938927701 0.9565503919113267 -0.7919591661590812 -0.8110187538936935
Ni 7.713515131988033 7.782745022756791 0.9681269533717756 0.6381568034922236 0.14079515177391236 -0.43988335499618436
P 2.3666055925809935 5.413606055040878 3.9983176713025954 -0.8164751490225745 -0.8655014583226062 1.2617326238464786
P 4.349795688906008 0.2303949292311023 0.4065859901014931 0.5347249228581178 0.002813815299711283 0.175929019362568
P 4.3584976912281865 7.490813563900857 3.1428646960504536 0.15336681779133587 0.1642785796078332 0.9452665914673916
P 5.291721516021797 3.739167521627438 10.00674419784523 0.8551422265754692 -0.09377353160873528 -0.24497573764858455
P 8.05322284385307 4.862385063788608 5.2314460233135645 0.2050375066927501 -0.49514664634486333 0.21299378542534933
P 1.441368021000811 2.551683243701609 13.380061271410515 -2.679425280132766 1.2832337311430482 -2.2742644162194314
P 8.330321344205293 6.2117134000549505 2.3919355768296193 1.718987637351891 -0.16429374911648478 0.6341484536637789
P 6.541560726171805 8.838776326209715 8.555113653110135 -0.31521004848479905 -0.0804413332762034 0.3702504251893946
Ni 5.394073638573132 7.004245436221913 11.910070820260822 0.5251971858733407 1.1077574830471826 -1.9049367599546225
Ni 1.2924733708778249 4.139977604776342 9.81925654413344 -0.6163361080727062 0.37595647443523644 -1.9524000956429082
Ni 8.89995403950503 0.6557834600644451 12.631737102235475 -2.534908970753525 -0.07459130225332959 0.47595798923155447
Ni 7.44005188368815 7.798576262912183 3.9023677361740052 0.5116346166975575 1.463497630435544 -0.36678483523829736
Ni 5.559016137134421 7.432564771300561 6.999705138257062 2.9576698071368095 0.2506781873500005 -0.40826187143616144
Ni 4.40821400103206 1.6734308340103312 2.1020618966613425 -0.05283642707474126 -0.9428569535846343 -0.3005318776473341
Ni 8.10867456427838 2.992744796466303 12.550384681824825 -0.2687733542888145 0.8063203199767597 1.150803149283747
Ni 2.896005653767801 7.888562877834709 0.4570689048718446 -1.102780084437249 1.8108793785568813 -0.8607307764068403
Ni 4.830176353894831 0.21190411607161644 7.059251697004539 0.5044293571983699 1.4732783639713916 1.530503664142448
Ni 7.741344587466428 6.13556146198446 10.9325082217304 0.23326847651398533 -0.14871852038604708 1.2060183610033102
Ni 1.2651901449824237 6.754853960579484 8.101722380172069 1.000347591601935 -2.2370510403939283 -0.24045008186408914
Ni 5.921317034682256 8.931851963601584 2.0883468252524806 -0.681715919030097 0.8393057737638449 -0.09043855369823134
Ni 3.325982513098293 4.628466953747195 8.75036153400101 0.6395171741748599 -1.254405494057446 -0.3319080779657703
Ni 2.3801483191386694 3.243520681569079 3.1463935275116226 0.6168475004914861 2.401526823614232 2.382816134578606
Ni 5.640715130797729 1.7397318040840708 11.752287696337328 0.44652991377842455 1.5461462557757113 -0.1250782552592878
Ni 0.560483349784589 8.927086581377536 0.6668107052149197 -1.6008909556167592 -0.4683457241019353 -1.4778446431858354
Ni 5.994370532531972 1.7997982227105356 9.029580911975478 -0.5884092997554511 0.18757637379350922 0.42459891803328814
Ni 1.8547602200614368 8.383550475292903 10.151571321125198 0.2207873133278391 0.6989471953067189 -0.18053772177917293
Ni 6.38314472935215 9.271663270732363 10.798873154250948 -0.09808347183799881 -1.050001507183637 -2.261328424884054
Ni 2.3079706721720297 4.485100523714164 11.960891832307546 0.6842728811239958 -1.576353632597027 4.2107480977424
Ni 1.189094713420518 2.716522146997158 5.314576515194374 0.11556517356253002 -0.5827608432204222 0.36165625576248034
Ni 3.444740358642307 3.012286630685481 10.604935282584115 -0.08827522749832539 -1.1992509603724895 -0.737123449266124
Ni 0.08959295291271312 4.516753586273516 11.645228581620811 -1.1893149322057002 1.3711975980485418 0.6875518089855835
Ni 1.2754743295449982 7.267179638422018 12.315246972973107 -0.5782349303256107 0.277275992443187 0.2594253374150113
P 1.9967328228826906 8.990166680461897 2.0319844082638006 0.9223974001787018 -0.38118686959624026 2.015895802203709
P 8.465192962447626 7.717809626640537 12.58762906340872 0.13765403504176937 -0.27299227746616855 0.9805349277513824
P 4.918703217345563 5.321754725335029 6.866939329234684 -1.01502910487351 -0.14006470136579102 -1.3104198046395368
P 0.4159378172724056 1.8516429443377993 3.241089018149613 0.6388682277369513 1.3482186206548652 0.6055433883325765
P 5.868389271640437 3.1264580312826324 2.4063400276432256 -1.2541684383459755 0.10216458388590792 -0.04637267372726852
P 1.6141555065040643 8.096469158423895 6.380783699068417 0.6004986268198174 -1.008660739453321 -2.25171944103938
P 0.09048198864779282 6.798448731953254 9.91091951881067 1.991782711205589 -1.099686276003274 0.24337933969574213
P 6.943133647186615 8.962356060486364 5.9111957772194375 -0.1876843601262832 0.017011189846015864 -1.232774803161548
Ni 1.9109088540926351 6.414355157594249 2.2458408242070487 0.1254114702289905 1.6958885894405824 -0.8275375774843232
Ni 3.620541524603457 7.018136619582533 5.640537135295685 -1.2193461884604677 -0.8766610744838514 -0.19878381247355442
Ni 4.888142613952199 3.843572713990716 12.432657138287356 1.5356458704650198 2.5085153112513443 -0.6648697940070356
Ni 1.2012341950149854 2.2504752996862085 11.15369729893777 -0.880673280967038 1.1617550203095606 -0.5402029152535536
Ni 9.067721863495597 2.6580190751082275 1.1767687603477182 0.302597244816795 -0.4841533805581533 -0.01664532186616488
Ni 8.270452698358877 2.5115353693515585 4.765676999669828 -0.49172810758161767 0.7101564337589769 0.73407206403431
Ni 0.3281219940547087 9.289208541648183 4.771507529580716 0.41821846842824106 1.038362894503444 0.9694575868912981
Ni 3.457557918339801 4.185418255430574 5.650005742584341 1.689895090861309 -0.5559421803656813 -1.204036554686591
Ni 1.6012155160379682 4.986708800428301 6.035746481668616 -3.627141875802547 1.9104376351681938 1.0282579448589582
Ni 8.824112887231758 4.152079415365086 7.708827917100859 0.18487800102573967 1.154972193059772 -1.0489494117700389
Ni 4.445611891964279 2.890901232492238 7.201665992367904 0.5657159719229935 -0.9420388285587131 0.7299354161581171
Ni 0.09112522107052526 4.250306562789675 3.4056265533993724 2.9536871683399775 0.8658102478122767 0.23411179835088716
Ni 4.4231317192986515 5.196752910592308 3.3280506513125245 -0.7444657485638082 0.5735380390705735 0.2396576678697808
Ni 0.5430784033650893 8.898381275016064 7.947894711849561 -0.6863166510269019 2.1797115832425105 1.077436463466138
Ni 0.03562923721349034 5.893581756718171 0.16121589432007075 0.8188616469768801 1.572958233762233 -0.3657006010351831
Ni 7.709719778161368 4.778538822799048 0.8357510392586385 -1.9094724430414471 -0.9986205816084994 -0.9685533299094738
Ni 1.6146640650813344 0.48453860224557815 12.359327700320714 2.4497326938954975 -1.889317822470443 0.7656362119938362
Ni 6.344908658542579 8.841337954598927 12.989234946553537 0.6365475500235748 1.3954862953925775 1.4999569017038425
Ni 8.156921704859029 7.094156709132992 8.29695707621094 -0.8710028477568097 0.3676266144133023 -0.06995380348131823
Ni 8.357858849389329 6.94156088269765 5.813441400916682 -0.5301522158857709 0.14416432535646143 2.1206314892509024
Ni 5.44271632471388 3.5269102398771617 4.571806935813297 1.098552933729779 -0.6611596921453001 0.8533105726833692
Ni 1.7050462255639596 2.9138805459837043 7.79209590815256 0.10765414624556943 0.2854860390578051 -0.46547560164299195
Ni 1.6782338872401048 4.385554891089245 1.2250611061352354 -1.0328694754890406 -0.127731890832051 -1.3675666861641738
Ni 7.398510182126322 4.194581727572868 3.1322103938566435 -1.47485445020926 1.1976872154297953 0.9908332243535967
P 9.094091567502197 2.145627473005677 7.09612313563177 0.021816838764775328 -0.606604225496923 -0.9235507970568546
P 7.798962390720851 1.6777441641656965 11.00564459579271 -0.5610689600692853 -0.9718733954216424 -1.6260461147261478
P 4.146777221309473 1.6912115487119248 5.268621655312014 -0.7499848786098245 2.005551225744591 0.9119453516074423
P 3.247523225927224 5.847811484763857 0.29148505743810904 -1.2190258290065716 -1.6498545299996554 -0.5846534322574447
P 1.7431881188592218 1.288969967345519 9.229515065978383 0.6699767762162978 -1.3270389012534565 0.2613197262242467
P 6.191841944535691 5.517465017821163 13.012391313771907 1.5660666488487223 -2.228118256680672 1.2963345301910643
P 7.7073276692979125 0.7369013784644652 1.2219080429561606 -0.002650550248969629 -0.4703745816065061 -1.2390716919138534
P 3.9574333287906467 7.449855762927746 10.521721914490712 0.16987175742489455 2.6498102854798105 -1.579962432994208
