# total energy = -381166.122353942 ev
CRYSTAL
PRIMVEC
9.27098412759647 0.00000000000000 0.00000000000000
0.00000000000000 9.27098412759647 0.00000000000000
0.00000000000000 0.00000000000000 13.56902239617096
PRIMCOORD
 96 1
Ni 5.0769021625979684 5.3855332243586425 8.691759002368286 -0.23848935859329248 1.248334862383334 0.3484253588945032
Ni 0.2763717453742987 8.831224270865679 10.67103160283252 0.28828314218696804 0.3858919883813935 0.39666568195812973
Ni 4.671018477290598 7.1713843557745385 11.985897271266381 -0.7198754608189538 -0.5266771128529768 1.7976389686072074
Ni 4.246972934068265 6.049298604287067 0.7746185371970448 -0.16404589477173684 0.5443439340051206 0.5660124201174896
Ni 3.5122010866713826 8.499221058107748 4.752047805704371 1.4763117514810769 1.011562229370832 -0.998147755737139
Ni 8.33276053801424 5.111176990934683 3.9112029204574257 -0.06497100555474616 -1.862733387113695 -1.4532839231273358
Ni 0.8770721828418993 3.61525734628483 3.5460744813951726 0.14793639080438392 -2.3261605908680907 -0.17959592669119392
Ni 5.730376750139659 6.865376982523275 5.226923373628274 -0.7703852966430473 0.5299041044307068 0.9952498653640538
Ni 2.210091365305005 7.443237423482807 11.204254109392373 0.7106991936363244 -1.0760179858520567 -1.1773611022779336
Ni 0.2961588068076363 2.0002148265204407 11.526178835300197 -1.5310011726041568 0.5346079376642793 -0.2423097607806472
Ni 0.31939838273180216 2.4127921623712525 1.257209418115758 0.3942251908374372 0.3058016106867056 0.2732959247495164
Ni 7.7041692718833525 7.308344604359411 11.154971411942467 -0.509896036739896 1.5443572821960887 -1.634078498112321
Ni 5.195181378156475 3.720686977836118 12.071409120508067 -1.492877626259558 -0.2176053160554317 1.4213621347180747
Ni -0.27213027013382085 7.69937617308701 13.095490371635723 0.17776504413004224 -0.28370709278051137 0.1655402199290762
Ni 4.425012913342883 2.3361952914710815 5.564479905881387 -0.6522621325453541 0.08147131720261452 0.493726111848253
Ni 7.271084519132131 0.5295298735800017 10.633812309935422 -0.15085047912738536 -1.147693400010172 0.4096911476835202
Ni 3.4159219164585677 -0.07848258907265881 12.68240869424812 0.8275974841879812 0.5129397086622263 -0.5580057477629293
Ni 7.190964674261728 2.6670581731807523 11.566194257011565 0.5673784472270809 0.22966378988186253 -0.8898485197084028
Ni 1.4092081300614603 0.4346116838377928 3.3887551516560053 -0.105231909957322 1.490649765370304 0.5717210404664927
Ni 2.9780533358951358 2.4560042194114002 11.82689525790722 -0.7879754989209848 0.09888282781084261 1.112077707689091
Ni 5.802996368847119 8.148462644450394 3.085812765758844 -0.36412065814257294 0.8462629218079685 0.4920764920599719
Ni 1.550386676426481 7.955450025802286 6.132057898339905 -0.10012338508616306 0.2621285952787873 -0.36752788405190895
Ni 1.6062165428705417 4.440282224208603 0.5115571437413341 -1.2057712779895104 -0.9916860592721953 0.24950576430845417
Ni 0.3578683313883332 6.56571096241843 8.137030593916988 -0.771292124728033 -0.6467144632542474 -0.12442750904916637
P 2.939282080254309 0.5493614357371738 1.148292042333939 -0.6248400317786593 -2.1597690786823125 0.9763484004738604
Ni 8.9052438081771 8.659905755086902 6.919319276598021 -1.167520719148744 0.7492559708636 2.1343537239330015
P 2.8746355079005332 3.4106374555032186 2.632594216767742 0.4074566019260467 -0.13866730679763214 -0.17153808938372392
Ni 8.310213504604748 -0.050562093260149155 2.8039572332703537 -0.4116012202220395 1.9463847426867642 -2.9766404347020416
P 9.041610713777514 3.6304988441981534 5.390389365847085 -1.4487014459629761 -1.2181958769061083 1.0053581574426491
P 3.1485003791654873 6.958179533686517 9.17683821542808 0.42627167775002067 -0.7312446218878438 0.9163882178701444
P 0.7017513832132547 6.64572882646338 1.4430110653058459 0.12009879976682543 2.6011436735120426 -2.0240479989971982
Ni 1.7633226399746689 5.0269037451730565 9.451855470020666 1.0292388207149887 0.9484717286682505 -0.0388406270162815
Ni 1.3764815560748223 2.7276904094052887 9.688336024870969 0.5581448444439548 -0.83968398303887 -1.0483847975158203
Ni 2.1439336225376824 7.1134592469166025 -0.16710114509704324 0.22546466419885042 0.30323719239363905 1.4301265111742658
Ni 3.9451467746606204 2.8410560033737333 9.784201709191487 -2.098239237598632 -1.207903750951481 -1.5561478470731134
Ni 6.715743298629694 3.721308133772975 0.3469276430139333 0.7018330014949461 -1.2959308669947422 0.08189837743770412
Ni 8.37860555454793 0.6727257860921877 13.639852892728818 -1.035321536573959 0.08050278264175813 -0.6835748266157066
Ni 5.697659447137154 0.9965473553534587 4.326075751979368 0.9855400942754576 -1.018398278456059 0.8135186374974119
Ni 5.711463942509988 2.94579958209924 2.944423768054022 -0.39061844732278533 1.2958452492594714 0.113101799623702
Ni 7.830069236398521 9.0235786496404 4.797015787139156 -1.3442753197364012 -0.7491546693990453 2.2824135276891275
Ni 4.825445259980523 8.216938133250764 0.4802379051459629 -1.3118323687163471 0.0592731838390205 3.9481973273245297
Ni 7.3046176687382705 7.609688672592182 1.4074874354065252 0.3125949794594552 -1.1121422423784395 -0.47932330615936153
Ni 8.009991225451973 6.832464988853992 5.8553180948955585 -0.9214710317096905 -0.22174350659352135 0.5271802777416404
Ni 2.66941300315033 7.690476028320104 2.5950077928990085 0.34411130490018155 0.5453916585433446 -0.9635900723669277
Ni 1.8304538360758718 3.3381939854942693 5.899593533815668 1.1431335485536311 -0.3243459493477962 0.534139482668293
Ni 4.0794277088312905 4.125421061111095 7.113071719779877 -0.9205773162508274 -1.22449765075442 -0.5755882367313829
Ni 6.5389363602446595 3.589020461190726 5.605227735339199 0.41636804548306355 -0.4765871381751211 0.18115452942756544
Ni 1.6654303185228527 8.381674250295685 8.432305875936827 0.5281189875058259 1.3602619249726444 1.0118591917859605
Ni 6.45219703270387 8.636997153296255 12.865916699963902 2.4422433274969872 -0.25219899486990116 -2.4068564633572613
Ni 5.694182828087581 1.7387823449767563 8.330999978127537 1.3410470426070904 0.6294883291839481 -0.2428610052984269
Ni 6.502121282255724 8.190460202569223 7.449786446673787 -0.6273764250472679 0.8989759359309678 -0.05070703943656428
Ni 1.341335255229682 0.7403557611397025 12.958186169539545 0.4441565284502415 -0.7288326700122415 0.7415879127953809
Ni 4.476596669054399 6.2779025310186585 3.0523519298289363 -1.059397089465924 -0.31821798207318747 0.4896506562272987
Ni 4.203631083250268 5.353594684023241 10.615426094204459 -1.7664018649697966 0.27496251381866194 1.4786416851658342
Ni 0.9034258823360685 8.81261740571237 1.4051947210306344 -0.3555205751783877 0.04011126619858898 -1.1253140038737073
Ni 6.8893517474891235 5.197675272888034 11.004341097254676 -1.1692572422238767 -0.25765770399162724 -1.1851685141374944
P 2.6151499330246093 2.5057894042012716 7.809732405606145 0.5452757017907706 -0.2505452613165621 0.4605858776508584
Ni 0.582879751768701 5.706689385681908 5.358922718604012 2.413102187156657 -0.42515504764707424 0.8492446301441117
P 1.2778660978606953 4.071297055747357 11.59581505131392 1.895804201525735 -0.502743999076147 -0.21211909612987984
Ni 3.4417416072667226 1.3176757037243279 3.3654571685318064 0.7920632958371133 1.0253749668842083 -0.7027776247964025
P 5.715376297813773 3.6926607928045017 10.033979636582595 2.3733112804119645 -0.23361737521297188 -0.9682201149397712
P 6.132681835572002 5.44659192585326 1.3323841200500506 0.7236776081738634 0.4074062083040855 1.8178861488920177
P 2.512826081157605 6.741933828803137 4.727244214757104 0.03984721390392492 -3.3357566976514876 -1.2672643522979852
Ni 8.176470287513746 1.9210035380949917 9.060782181864473 0.3455346676102694 0.409360760927295 0.08617515043618708
Ni 0.3768172958561206 6.071187397823172 11.295587209570662 0.542445174320511 1.0833543716124696 0.236842824128805
Ni 6.893838903809104 6.225920122989457 12.960573447953584 -0.46901086848976 -0.3803114089698224 2.012515058656934
Ni 9.29175113664819 3.8208321484320567 7.576657083227596 0.604320828779385 1.2301234815816298 0.1657489935057726
Ni 2.5605531074701298 0.8595314808637919 6.2130649763917605 1.788617224724571 0.20937264373299425 1.2118920461752676
Ni 3.731589655175576 7.467592298798075 7.17432233064603 1.851160337564115 1.3368394322836459 0.040981070398052
Ni 8.598930492449474 5.166496953251473 1.4312202276865238 -1.4662967904472362 -1.281252181936645 -0.19616797211726217
Ni 3.7968759254344726 2.3322829361672968 0.7385812947768009 0.24317288011189087 2.263818538295759 -0.029296692081588253
Ni 7.328091800560982 6.031433417864332 8.326305151762995 1.3967700472010074 2.4152428876487435 1.2856803929113276
Ni 0.4986676945023475 7.698894081912135 3.813369933304055 -0.32008794540239066 -1.9206230603416279 0.18950058739941558
Ni 5.509430656301257 1.0077374332010145 1.9665046011173772 0.4687126205230508 -1.9022923803532397 -1.6560010092170254
Ni 0.581222099805865 1.6027028398844412 7.472542077226252 0.86856415640833 -0.23458693821509277 2.315272740310993
Ni 0.5041598255022581 1.0511256389396735 5.424365668494742 -1.6245728726147313 0.09331741790792315 -2.9217759214536776
Ni 7.08541451991672 3.837288145266698 8.198254318929157 -1.2171597223321102 -1.9046094585221907 0.2917145364660202
Ni 8.751558704217752 4.395012008691109 10.055676520747163 0.2279000131132204 -1.3948517471323718 -1.7616651216157595
Ni 8.669612475473308 4.323356572333396 12.451342394131018 -0.7862495173688137 -0.47551395971560034 2.030468300701245
Ni 3.1925839087140604 5.091680111304682 12.78992985981963 0.12346308825336802 -1.2629996634843603 -3.256345091191379
Ni 3.5144724777837695 4.448551942054518 4.610265718272345 -0.006765600858607702 0.6290373576894587 -0.8750829313634542
Ni 1.7038585477507888 5.371719458001676 2.599418000050693 2.170294660803985 0.8563691570040347 2.0971909988397752
Ni 4.925293759084232 0.5005070577541744 10.85680543707021 0.47084380793344077 0.7182235270378277 0.9530740033269521
Ni 7.9962608979521965 2.3977453551247048 3.7391343820623537 -0.03878869073242352 -0.4164120113471216 0.5889775135540953
Ni 5.397288832238262 7.5897375147397055 10.026625891968939 0.4861105042845241 0.1800309573460835 -2.2135506432791425
Ni 5.863665689008185 1.5298607175578078 13.10557256687948 -0.49833867091959977 0.2868906327148156 0.19841871582465181
Ni 7.610958797418293 1.4681994020945985 6.4537387973650535 -0.6088667962788546 0.5680273936649894 0.3871690553216042
Ni 4.023987223720781 0.36420968453475255 8.772508347061267 -1.2915525354213886 -1.0181841055627239 -1.568565761121492
P 8.128038666407175 8.271442248963922 9.132685153498516 -0.23265064042432837 -0.3885160562678019 -0.9654006432131053
Ni 2.5835544191020987 0.23249959426393935 10.599577346830475 -0.5965260153253146 2.2953873142409758 -0.9310501907576934
P 7.572085560952012 6.9452557818062415 3.594230754273018 -1.072071599609799 2.510646498661734 0.3253713052885171
Ni 6.096701146154964 5.009492836972799 3.880482587436994 -0.20515500610722087 -0.22646122378416483 -0.7807648401051585
P 4.834299049826766 9.206569334441609 6.251560883803862 1.1541427551799412 1.1409907911790156 0.8031946298635845
P 7.564195953455516 1.857645632535591 1.632109474453341 -1.376530580225681 0.6851948787176328 0.36981076654881473
P 5.994534901018208 5.253950146570441 6.9021002777693 0.5994115644032258 0.7489813770459746 -3.5795718393330676
Ni 2.3046275905009677 5.772874941401628 6.914176661699894 -0.04781969058644023 -1.5454985948893833 0.36216687685031174
