# total energy = -340870.5378106421 ev
CRYSTAL
PRIMVEC
9.19388982476367 0.00000000000000 0.00000000000000

0.00000000000000 9.19388982476367 0.00000000000000

0.00000000000000 0.00000000000000 13.45618709116785

PRIMCOORD
 96 1
Ni 8.488589823045478 7.391105992719054 7.962026328469313 -0.49938768100940445 -1.118135483847397 1.699564752740589
Ni 6.102426028193635 3.5219677582491147 11.961581729838636 -1.3550492704234534 -1.5700112353187672 -0.6276021679048288
Ni 4.714939328996328 7.454166883489919 5.731811132747603 1.707248237427776 -1.5389538517923302 0.5427796748417942
Ni -0.392532209560141 3.4352509887855196 10.850423827075486 0.988623875407104 -0.8088831956079294 -2.0219733758563567
Ni 8.022248146041454 0.2035858202177763 7.486147829480072 0.40720334826466004 2.0303672563470068 -0.6545349877399308
Ni 1.74105612278313 1.1505785444541012 10.687832642498213 0.3592877555303038 -0.6363032952232526 -0.13758461525641466
Ni 5.487244467724162 2.923941996318558 4.7177793215840405 1.0870485326346053 -0.6387358159241451 -0.6142167477368583
Ni 8.322860763847983 1.9374559986611326 1.7715743208914272 -0.9947598131015127 1.4335764173960794 0.9016552825353439
Ni 5.494617967417737 8.432451931363467 7.714377871553993 0.04152665848887687 -1.890933246586679 1.4105773853977448
Ni 2.5624198579759487 6.192654863596066 12.747840435255918 1.174922153819138 -0.7850536972884996 -0.6123969209193002
Ni 4.164639049496382 8.578312994503834 2.085291909350352 -1.3150115377752771 -0.8452041415261509 -0.7100373916826094
Ni 8.167998882503115 2.185782964650499 8.618391918711069 0.29093009289151184 0.44902619783771697 0.6524907036163924
Ni 8.347785399345842 6.795672907738108 1.5559389885808828 -0.952589864601682 0.2124507684376857 -1.31535735115047
Ni 1.574609940174041 5.9808368343687786 1.5894580723500067 -0.5309263750476341 -0.3329645442547427 -0.3178582847409236
Ni 1.568137441689905 3.6942244792700984 5.7830247770033285 -0.5785550326691907 0.49435834611561313 0.4202961768928762
Ni 3.4131764591542546 1.8046870347273138 4.1058321715786565 -0.8375239992730736 0.5767719726268389 -0.018060971266768894
Ni 4.906337728772953 6.4538992448840276 3.3232473445623114 -0.5673488795407261 0.5129487075232908 1.3783162113711938
Ni 8.923690662195671 4.516075490627205 2.349558322245893 0.10912481725382496 -0.9917979022597113 0.7064422181321833
Ni 1.5969235109425042 7.823641736589314 11.074509263585988 0.4357274238462819 1.2407375096520505 4.062342994831713e-05
Ni 5.398063735769446 5.652624159105751 7.600768054766611 -0.06406134925628322 1.404189222483214 0.3903399968504181
Ni 8.760784127195095 8.417318788600841 5.455891464413649 0.8398225654992634 0.23777099237002924 0.06369136751137418
Ni 5.430067666484328 5.490885248121488 10.499122536126078 0.5948668824553368 -1.2810755471494648 -0.7602680057033875
Ni 2.5118626574585283 6.228391513607198 6.014969150593715 0.6820002830397353 0.11723124841104325 1.4963113345314552
Ni 3.171790880033528 6.246448313355555 10.25247069687508 -0.20179560271668473 -0.5312475058324785 -0.39064081592028854
P 1.769897355375083 0.2550412637776685 5.261113390712637 0.45124814518970024 1.3969839629840264 -2.24023869409329
P 9.140675657542397 5.546701353657269 9.569919069442248 -1.2871171253578542 -0.36065841062558535 0.09240827583009247
P 0.1370680268474295 6.295323032022695 5.779621198965222 2.1582606124575863 0.005076128971326741 0.0755860620664311
P 4.091106318138258 4.623165920092002 11.911780267070357 -0.051668374908569084 1.3656869526429578 -2.352820102437148
P 6.554691859772641 6.898938679007734 9.23176504103874 -0.19044186826676235 0.5231649859346603 -0.8487854311195059
P 7.421170012666675 3.078380958728383 3.5428121454127983 -0.19173436182594078 -0.6261680065614635 -1.8240146303872586
P 6.974438902802797 6.752820186950384 12.976662563838902 0.7199389670670374 0.0031472873797300633 0.20569005267508447
P 5.510072896326591 5.343516387038795 5.361146590296151 1.528709805466819 0.7395012054696812 -0.36376533168568315
Ni 7.25420897222362 6.645288450770761 6.017229928118216 -3.0897198657282403 -0.08381616328570726 -0.2920143270946261
Ni 1.6845688632852156 5.960481562147363 4.032388620952486 -1.5665893541214118 -0.5588089603905151 -1.5851498907324184
Ni 5.3283372748267075 5.442111662243161 0.41119028970745014 0.10254999224978469 -0.028518676264983146 -0.9873846036833639
Ni 7.746311928705695 5.061291549016744 11.823736819295313 -1.2160348646990475 2.5522376918399594 0.6636505768879538
Ni 2.0682390823782275 8.275549006462523 0.628067716542436 1.3428630127699066 -0.23435579604089318 0.13527705016916056
Ni 3.1836326102147314 7.858265925923486 4.188197472956254 -2.724747658218649 1.1126001558514644 -0.3452775572941409
Ni 4.9580533594167955 3.639704712209123 8.724978523009773 -0.11345712608059169 -1.4630500013751642 2.016477385738792
Ni 2.2484209364863212 1.5239148313082371 -0.37311195594076524 0.8783947693455065 0.44291288585112754 0.7079398857236324
Ni 7.67269645233854 1.7375992201836483 5.354714544927541 -1.6409968224987093 -1.016415186587759 -0.6856687330302579
Ni 8.074506216188938 0.07066699587871413 3.4685613712540895 -0.9010626432566675 0.08062722403476437 -1.5644733362196734
Ni 5.086446031761909 0.08990245231125589 4.185129471899215 1.5091560517046074 0.39501760483174553 0.49546829135034026
Ni 5.703797350245951 7.656827798384536 11.202087357286647 -0.8658899520102765 -0.34616510210541673 0.23897195465666587
Ni 8.336844670374077 7.6671525367335205 10.492825640938884 0.4695410299616172 -1.3325734579184403 -0.9682334846762098
Ni 1.3459303168843886 6.257370654547534 8.129945372239138 -0.5289121728310826 -1.0712097658301358 0.8641356883233311
Ni 4.068967431277747 1.3126760171441612 8.409322862561563 -1.2203136945800597 0.5444881728924688 2.2484140308152307
Ni 1.4004041144959027 8.22695929838204 6.902323869266055 0.33580227081385394 -0.35646391292826346 1.4895480476656926
Ni 5.432237424498897 8.16218834409122 -0.06154665710561336 -1.211338487664643 0.6480205836601807 1.5484515068701206
Ni 0.5999739471987221 1.9968944968144557 4.039923933108165 0.31408596218268486 0.39458231706653984 0.2092805982398202
Ni 3.571752672015587 3.6354479411890166 0.1272802116681522 -0.5590385599028178 0.5115032333260159 1.0060366715669125
Ni 6.345218272467875 3.468863850231544 6.85495878731922 1.4974865857864792 1.9664336909178393 -0.7660835839439
Ni 1.3083732766745935 1.4667196422886202 7.088558061090209 0.48627891154158837 -0.0550455189109181 0.795445839156101
Ni 6.62894171454236 5.350384222788296 2.422772945013746 0.5550227538752055 -0.948354743474412 -0.09965595853144128
Ni -0.12575402594604057 2.513940476574174 12.912032276063432 0.32901970067438174 -0.23703488553495305 1.0048364806112242
Ni 8.61044563967721 1.068679373294039 10.855590793194924 -0.24648111854951746 -0.31818764305588426 -0.7115849386753873
P 3.278265318875544 7.026163727336533 8.01034757496494 2.4653086939568833 -0.747310674211771 -0.8975068075846092
P 4.19140246297269 2.699298490691598 6.86942353428668 0.1634735672080346 0.524555952744916 -1.7570242804096385
P 0.7375044267077313 0.20718430872159851 12.624890545727013 -1.2605609721358806 -0.8698954736252438 -1.4175972683590037
P 2.1534848294590647 3.8350748724191948 3.652184498348848 -0.49102259687416083 -0.7228039473196585 -0.5871378892421952
P 0.6477536735796974 7.7600476002047 2.8356760564081203 1.0371940710063232 0.43225334925475234 0.12982245481249252
P 0.4469287784965603 -0.2736690040883333 8.966045993540225 0.8491147894344667 1.293515058464398 1.0903644843817155
P 3.7821916177590382 2.0066308262103365 1.4664419868138745 -1.2190618244508296 -1.5383900088690603 2.2830321351097327
P 2.6025787690252473 2.6909596325593377 9.503889471625177 -0.5586906896450958 1.7260846534079883 -1.6899580828887606
Ni 5.480468570873582 3.2225043766791166 2.2256127344416554 0.8315330717969615 -0.33206157282449905 -0.01784139905679508
Ni 2.168213441066431 3.531474240397689 11.59897747065571 -1.3198051025091788 0.5912866213032462 -0.3519649966166455
Ni 8.387714463147834 5.236205304216584 7.462128792136598 0.2579562090686525 -2.405424358896425 -1.405478630718599
Ni 9.168477980576528 9.16742068323892 1.1573185851341012 -0.43403769484868476 -0.5455582660281959 -0.10308966680333859
Ni 3.0758434451181254 4.675240112441641 7.9508438001933825 -0.13341120060501538 -0.5934550897094748 -0.40378840904584007
Ni 5.797519863807433 0.9016898317923189 1.568655057690838 1.4736678861003265 -0.12120154591270094 0.9642457036730555
Ni 7.218472322212488 3.8709402368888184 0.4381293064806987 0.8276885012398907 -0.26443847435888657 1.3416566511666312
Ni 6.5709006876526574 0.018103688586807175 9.908113550961279 0.08883701353906634 1.9411574328495538 -1.5189478409840484
Ni 3.621942116937318 0.13821082736103477 6.499149732155649 -0.7304542647760645 0.8032830758123327 -1.0311121264783016
Ni 4.710011404014089 1.6254429573882287 13.059364361586557 0.6231968397482816 -1.4415586642706077 -0.12511527914481033
Ni 7.626570706749178 8.813097360681933 12.334345237352485 -0.13179911892288915 0.46840125993021914 1.9033689012468702
Ni 1.6599660139335848 2.9786640289571626 1.5686688485256763 -0.11257935146132868 0.07521967986594787 0.7475407879447061
Ni 3.731441345553881 4.7017552908908575 2.2537635059027012 -1.175436631561711 0.0820125344180652 0.8313330399710135
Ni 8.159384207674087 6.669698228434655 3.8452938810344186 0.2818702966820888 -0.09614177473059571 -0.20860876898377623
Ni 7.176906746009678 4.3595770968815195 9.13307782693545 -0.3319744124273315 -0.07757815279579543 1.5004487537385964
Ni 6.139036097744531 1.4080718186660297 7.60701162539243 -0.1535161988850066 0.03586997442373177 -0.23436916577733186
Ni 4.014015551391836 2.237011319130053 11.05339641483745 1.3506490844732286 -0.6826232613357146 -1.5014939071736593
Ni 1.979609983817047 0.48309570255464884 2.657489276406643 -0.4163593037323152 -0.1704559120631387 -0.04846169504581331
Ni 0.30838145476546963 7.151926947172465 12.86177387696751 -1.9478055342936909 1.1273279489799424 1.715332299987491
Ni 2.943672084027302 8.672605529238634 9.245208346839172 -0.45942399613227325 0.27258424339447246 0.1586920866589912
Ni 0.7620236116613427 3.8185626461727344 8.520942202187276 1.475054224924892 -1.3181652529129104 0.056039507393071224
Ni 0.7520693870750158 5.5513534619427425 11.469058612588485 1.327765752117152 -1.2168748441018398 -1.0618478649992618
Ni 8.236759985007167 4.367860791674426 5.033959953145097 0.09960787890232523 0.10003468202709868 0.4767725147130499
Ni 3.764429022487233 4.24766906911319 5.286451751255647 -1.3572401074271851 0.10875766372239336 -0.17690295324006305
P 0.08082624420963785 4.869893149240119 0.1656352815205935 0.05676635825676675 -0.7344649285973545 -0.022482497373232248
P 6.473941924849108 2.305119655451757 10.17723709588689 0.21932924072507387 -0.17924677088189128 -1.0704502619562921
P 6.834921623688075 1.4738081313955362 -0.26660625787311554 1.4675777140421886 0.8683206729389562 0.5301144206692999
P 3.6226224647893437 6.568271235143476 1.0760620668775067 0.6252184981640007 1.5895868434578495 1.3709607994473871
P 8.939099621655064 2.786438179090236 6.547310085578162 0.08788724803128735 1.5592303426531793 1.5886105955875092
P 6.23948853870713 8.017807497223503 2.6380993626239113 1.2468027420095238 0.2513351042077091 -0.0962027098755182
P 3.8103341147191805 9.112735426159883 11.452830477539695 -0.02886551808144061 -0.11436395416557724 -0.19380615675330495
P 6.61399244957758 8.783925148053859 5.8223176236247784 -0.48859418993832626 0.9359098328428397 -0.4115878504856008
