# total energy = -340861.42618243006 ev
CRYSTAL
PRIMVEC
9.40412859517678 0.00000000000000 0.00000000000000

0.00000000000000 9.40412859517678 0.00000000000000

0.00000000000000 0.00000000000000 13.76389278293022

PRIMCOORD
 96 1
Ni 0.8404224948008631 0.4401479993813309 11.533316039254549 0.4502197039251859 1.9273886612002353 2.021734520372673
Ni 8.37621004982415 1.67043650040717 10.226489218878642 -0.19297620465284185 -0.19133455528436077 0.4437083851692294
Ni 4.188410659081593 2.7656412813956344 10.697820367266326 -0.25836141492687115 -0.1836245882346128 0.3087745772721005
Ni 5.199345046437586 2.2555895751748603 3.7527662967397215 0.08417688905923568 0.9309704865596935 0.5499458535729304
Ni 8.485786952692754 5.231083979426047 3.175274765292238 1.0351189336448494 1.1525856951054667 -0.7715065547316843
Ni 5.976878373692664 1.5440073996377304 9.528590990420478 -0.0784106759994198 0.48794524350041774 0.897368482234532
Ni 9.38788736331528 1.138868148652293 6.271352664166011 -1.04609291615785 -0.4065559444886482 0.6029272908659681
Ni 9.10037494901715 8.274429169310341 7.044786731898223 -0.11571686864904587 -0.24738743241387073 -0.15252195329253732
Ni 2.3769780631793176 1.870716220660573 12.92103246914164 1.468470143949471 -0.6567425369142108 0.03228431395500246
Ni 2.6687035269526573 6.527151536622074 3.753069109670752 -1.636279362418382 0.918397020770057 1.2316622868236593
Ni 7.6348355958551855 2.2472387092507855 4.058655318134963 0.5326963224638632 0.04113430814646464 0.5791083340694994
Ni 5.690917640562858 2.112693845764593 12.820198584346922 -1.9658827035103754 -0.9795021156114939 -1.038261335928573
Ni 7.6600198514235105 2.5741450169677784 7.905002095517104 0.9683574118485839 -0.20423120874137088 0.6373397069075668
Ni 6.353889876954106 4.831916349906587 2.007202096226415 -0.08486337360329901 -1.0153615485122642 0.7304306106269807
Ni 2.286848897620384 2.7667979891756582 8.9736308099499 0.016573588087965004 0.3925843127999046 0.430547165196923
Ni 7.116216728759601 7.078684852742728 4.0241083124382495 -2.3950021351218367 0.560978200127692 -0.2609050072843313
Ni 6.619180336096168 -0.027667885850473653 11.28749306609157 0.25162461042366985 -0.5188797282957451 -0.9617165094932985
Ni 9.344891688760246 4.349503376738578 8.988510021734887 -0.8190174558284541 -0.5680394778498475 0.0014688712360426315
Ni 7.440471072298002 7.077800864683198 1.726501092050815 1.0100591624627444 1.5107686476073658 0.6022878575097563
Ni 7.565762273544003 5.253823161638223 5.124585988160531 -1.223957461980234 -1.373421345172738 1.8692547331719804
Ni 5.759624201870618 2.310086498632083 1.564362635327663 -1.3162076149659074 -1.059097298837318 -0.5738563416419408
Ni 5.325501427486532 6.608064656453987 0.814342025806227 -0.8604093885116794 0.03069177265690198 -0.971179197568095
Ni 2.1402009210212585 8.94626009455348 13.680262541500289 -0.13919464005601187 -0.011188926737283956 -0.8876941923695615
Ni 0.23795453902032732 7.02939781635976 4.932607291951251 -0.41695040034909475 0.2558669306397916 -0.24821172808737896
P 0.5089044025690431 6.773003662582758 8.546317564862687 2.4982933764130197 -0.4838649027834569 -0.5169136057083098
P 7.453956592269988 5.879150672473085 13.84344767770244 -1.3291549191551948 -0.5790455991523641 -1.737790114770375
P 6.522938487146864 0.6809849037234251 2.9924491071504145 -0.1044865471508652 -0.5276042526529365 1.91178206501123
P 7.101301781287097 3.4024700411326845 10.3538051289461 -0.3440891934129945 -0.07108097510722595 0.06366179982501939
P 0.882231368365336 4.943392886690351 4.63116454241288 0.5980861607235829 -0.02537447420904662 0.8944199411291693
P 0.5893905749764609 3.0096878147240878 7.405001521615757 0.8020044662102253 -0.8225136419071706 -0.12025512283903161
P 0.07202245694382839 0.5905049641791669 0.11967881748081229 1.1363064983294688 -0.3771931750558149 0.15997455291584062
P 4.224428470443312 5.816885939045946 12.71435417999776 1.1058936903655665 -0.19423810208440095 0.4413149452363883
Ni 2.9006751595530567 0.6430194973922511 2.6413187053637994 0.08625536885481919 0.24283272316365276 0.19137029361830268
Ni 2.727949535197783 4.137684791069814 12.26894080918525 0.48580505722896333 -0.3138723035099821 -1.0536797273661724
Ni 4.795249653692658 5.782288151056451 5.463700735227337 0.6785010116372251 1.8413376950467384 0.8245854368345347
Ni 5.458579246959036 9.216233809585395 13.365991620557606 0.6651037643947125 -1.3391230861115002 -0.8181530509456298
Ni 4.802566065504517 9.2228261035187 4.394273610302478 0.4803715449182178 -0.6930935647394192 0.18497621716650078
Ni 2.234806451647602 1.1382098596717916 7.056224973140849 0.7051327552921404 1.3851167792327952 0.23458282445003467
Ni 3.9044059846367056 4.929183248839815 2.7572377523531197 1.051097825571609 -0.6353414455306154 -2.0250802969164545
Ni 0.1174048992595946 5.233030633982672 0.6229783595873007 -0.7004088674539098 0.7728535556778819 -1.4256869873456737
Ni 6.121212934731741 6.867280048718851 11.956252603034256 -0.34256530056930035 0.66029168771805 0.7290478713468412
Ni 3.7343417285883165 9.41926893942861 8.901687347683731 0.4056956533708819 0.09424610036977962 1.2180300407522053
Ni 3.5371183500300987 7.662888110552838 11.657493791710674 0.6058938296934597 0.6276188800753773 -0.24681844728427813
Ni 7.909812307138911 1.3334301589036268 1.6445506968681962 2.4400725450979137 0.8184075901585971 -1.2273556890285058
Ni 0.9159592744877397 0.714550118426362 9.029333342654269 -0.2292333872126633 -0.11982934815552265 0.12601773635442168
Ni 8.385256821241898 8.774164546793829 3.3738194238756054 0.5841507815894134 1.1762920375834711 -0.4451466602776527
Ni 3.4401147666890712 4.072532990256762 4.762802589843745 -0.6022338643433693 -0.5123378134121693 -1.3179621357631688
Ni 1.135877635855158 5.494559441807584 10.573242939357753 4.696393232354731 0.6516124147764971 -0.77206602677958
Ni 6.086775016923225 6.7487033950739646 7.828874736573436 -2.9482354011967873 -1.5707200884603336 0.9083566058149195
Ni 7.933115737048661 1.4207568942312832 12.74903942638038 0.25555428449537926 0.1892221369270483 -0.8212111210456631
Ni 3.422162285777969 1.7202877844877114 4.925711244674083 -1.0031331247668724 -0.8883235984234443 1.0131344589539584
Ni 3.2470856293494768 7.683765275363025 1.631667981519784 0.5628036833722049 0.5929640090056691 0.01547495570714754
Ni 2.2038574654357435 6.185029349327205 13.099867015235963 -0.9279101024668147 0.7298127745373237 1.523085774411822
Ni 5.1405880528636905 8.891255348168443 1.9946353595886435 1.1748010548602412 -0.5174507091587024 0.273211078345194
Ni 0.530267760811972 7.496933458568436 12.278452144540665 -1.128566963593366 -0.5878575410170392 1.1793048562678659
Ni 4.955110430543276 0.3967592322636547 6.934827081008099 0.8654767757322579 -1.4646276302749293 -2.3315794478908165
P 7.169265416459719 4.845251403825886 7.19609351365364 -0.980536470413279 0.11289996802554104 1.283100033778661
P 2.8831552685434265 2.9090260254771314 2.4131679700887965 0.33709810680714203 -0.27205228215040245 -0.16331775835646065
P 4.836721859464246 6.806491763433693 3.2152451317754536 0.8287534521692953 1.7126120728428504 -0.09771580408593493
P 8.787800532818501 8.602746096271266 10.829595714970266 -2.5725753749560467 -0.5499947045329947 -1.416757803176844
P 3.2588690021004516 4.635304239687405 9.83840247372668 -0.5459786413950661 -1.6068605429366327 0.6469396918911762
P 4.956069651629149 2.1796136226967064 7.868638212234208 -1.1987956180026256 2.5122120433766413 0.46117466027479287
P 7.24931335648869 0.6834233941897682 6.114155136447937 -0.06483885085225607 0.18779080379716045 0.5905147761342282
P 0.28377051165039513 4.521429650188956 12.356809222302575 1.6620377023294086 -0.24487983550066858 1.188137109847515
Ni 1.2376397081123809 2.6422215016799155 5.157509841313893 0.2874562754102985 2.3364056656348664 0.24570798782891876
Ni 4.301231986211239 3.8796543189698536 0.6161490816210133 -0.31112482267183195 0.04491434401418717 -1.001634942954791
Ni 2.3390512137741446 8.96521881719192 5.405465670773696 0.22181292637887606 -0.7484931245556463 -0.8757832998645885
Ni 7.135401150477069 3.316694986973353 0.14307816949914903 2.4210309550854303 2.466903035027197 0.5769486074140193
Ni 6.102113150168908 3.175238089191896 6.255372228957926 -0.9327944271423098 -0.12546803449853874 -1.1883399698869406
Ni 9.260339171278988 5.2738539549020516 6.767774967251919 1.4934311847701829 0.4666495673464351 0.06553022049232585
Ni 4.859282363238859 4.549557397912952 8.290060711358763 -0.32421225198340936 -1.0426342681852883 -0.7064237061894222
Ni 6.688940159772731 7.96887023281818 6.207735617090356 0.5481409391537077 1.7111522004678725 -1.730194561811304
Ni 2.071231044121298 8.263689654799876 7.664726617634095 -3.6737747451697373 0.13705676777740267 2.010296196628744
Ni 1.3329411442323973 4.5030257711197965 2.456000953224364 1.412565619472367 -0.11080914693478336 1.3534335891969016
Ni 3.365445988043627 6.520643879843402 9.003306477190902 0.1605679635254654 1.2735424719972133 -0.1957044022172823
Ni 8.508855279395181 5.569406898890593 11.058076535148349 -3.6989206483077464 0.9726611814302605 0.3302211771816506
Ni 5.799403664549487 4.373465095628829 12.081352900475913 -0.18436558016569538 -0.5344804109474796 0.75874565552159
Ni 6.385845104893302 5.415940929279131 10.11713519385058 -0.4994439881686366 0.45660838106034907 -1.939210850646144
Ni 2.406949020048717 6.181333526908104 6.363790543220847 -0.14527298503960787 -0.07400200540876288 -0.4226963016939365
Ni 2.682057389128543 3.8126122883699325 6.733915403333414 -0.5410061278811392 -0.7675755951083941 2.365813172262706
Ni 1.5382238607376109 8.000336446086147 10.352676633550955 1.2297409014312306 -0.5547553591464317 -2.9650774124547903
Ni 0.2831677070268217 7.935645447559445 1.017745797478524 -1.801865090873413 1.0166013344566363 0.3308912066654817
Ni 0.5937776008250881 1.4092368370725088 3.3596013223096044 -0.12806664846365043 -0.6824306857089344 -0.47015578072748065
Ni 7.702037496636085 8.364417272944882 13.13819918257056 0.8306308716976661 -0.40613685467335864 0.8468617317342317
Ni 7.394785817051205 9.36480963248456 8.625789972240131 0.17198546133378767 -0.7092331506137591 -0.5764387576571363
Ni 7.934554568677471 6.986637245012046 8.887896193542225 0.26577159134801326 0.10941997989674059 1.9877352806090924
Ni 0.8679841140016272 2.8023455941227335 11.324628087894485 0.08804074289001611 0.2650959054372273 -1.117893800150236
Ni 0.9586756464324753 2.5265507236775275 1.022020914200466 0.29693464721437896 -0.9283335631574787 0.11406879152266161
P 1.6352838688483953 6.5203617559946165 1.5394642652594415 0.08644485915780596 -2.341973389530631 0.5369790089996171
P 2.9050480792092443 0.7106953662391117 10.808275615717482 -0.3136131363113244 0.5227237846321837 0.06427706481151511
P 3.872187441105309 7.8298301960079915 7.0362806978573165 3.073778254797319 -1.4878922572298245 -1.609719866762299
P 5.600863708030266 7.90621052600274 9.865600153162509 -0.09119780046175906 -0.2001858350274036 0.1715774272620916
P 5.762831009618488 4.338801478741284 4.225363240795625 0.2675675069061714 -0.8909286401464592 -0.7266698580329679
P 8.7631146960497 3.6364165406745874 1.9164710664567373 -1.6656143639370733 -2.358544920736067 -0.08464971493059614
P 1.168698043597299 8.58841420475292 3.6356773761907677 0.0009834469591918549 0.4417633456277166 -0.6184207585158769
P 3.9027602621854522 0.6163051901506751 0.6338326044629394 -1.5024254178489933 1.0375905351137937 -0.1277707144897864
