# total energy = -381169.6086704564 ev
CRYSTAL
PRIMVEC
9.20142327027718 0.00000000000000 0.00000000000000

0.00000000000000 9.20142327027718 0.00000000000000

0.00000000000000 0.00000000000000 13.46721305016337

PRIMCOORD
 96 1
Ni 6.750799000990247 4.724930843484584 8.409507366904588 0.3881237059253897 -0.9032892185943412 0.8202281883071035
Ni 2.0106490034353146 7.034653707106422 5.669360326074333 -2.1639898016318795 0.033817462770077245 -1.477873182430926
Ni 8.536519212859874 1.3234959158781863 6.203658450311013 -0.7999414130336094 -0.34030067290483973 -0.935650408533866
Ni 2.424869474284673 8.959674265693698 3.9765450445659436 0.4210618514143071 1.3931108531818652 0.03519300296136519
Ni 5.116120151916724 6.226750342121741 3.2186771789789272 0.7609961421186635 0.2698604167054062 0.5047309475991888
Ni 5.636975916914365 6.046954531641335 5.553259527819542 0.9594575382557928 0.06005814163416109 -0.6340504946333338
Ni 5.972174564815631 9.13214574325996 10.103668816635766 1.4618248707188113 -1.4528725466215302 -2.63382882244989
Ni 7.536140476143917 0.685598967168687 0.1602722306095096 1.2261732386846302 -0.6606310733353397 -0.6743666777538773
Ni 9.649716600154147 6.859495413948539 11.516392774140902 0.1865034524443046 0.7135091522812937 -0.5957873373870771
Ni 0.8874009015152625 -0.33468980919504426 7.0422485618643815 -0.37227671159080405 0.4930537683715767 -0.040463507331685154
Ni 4.271337482510065 3.99700624946693 0.17413233446450638 -0.8639603390877314 -0.7247497581921196 0.4025316538206036
Ni 3.4073882484549562 1.903388012505422 2.068954742058147 0.9006350688009457 -0.18143966476815204 0.32268244560244425
Ni 6.363759534447906 4.451160897260248 1.712409712338381 0.3672728306183094 4.878681618276423 3.319224247214103
Ni 9.414804264352467 2.734193719981696 11.14411883150224 0.48031729464151474 -0.16684325501121586 0.4445779322583763
Ni 3.868655596427463 4.3808988292547015 2.5208467598720823 0.4811282205785843 -0.19499503485508352 0.3175880617986724
Ni 7.79914475715525 6.207574576050034 2.814324314432495 -0.24111059826622344 0.8900858325301897 -0.998693343827964
Ni 1.994242865764559 1.0054211166618765 10.588892070063018 -0.00786166213626388 -0.6007873617048298 0.1157405227981297
Ni 6.139382828277756 0.3773678505548304 5.979361796523217 -1.1392732942672765 0.82194054301252 0.4808777951306751
Ni 6.565123481047354 8.009277660120503 3.8273412059946574 -1.0360699847042092 0.7745687385967757 0.10306009911698379
Ni 8.327214437987928 2.0824569105483692 2.0026281227804645 -0.4208759606557462 -0.9293491489061865 0.4673419654277693
Ni 3.858810073540358 6.786325696193156 6.745404206533508 1.5811171154239416 0.10592019427359824 -0.7613974913221403
Ni 6.227560067368531 6.930567207200877 7.661133529836183 2.026078913384298 1.5826983438681324 -1.6879045427938415
Ni 4.838743247774869 0.9220286176657698 4.032393083036303 -0.5718848197378668 -0.11942465651793625 0.3962813020355175
Ni 8.583869736950568 4.32757658146893 3.849643615689765 -1.6059344315779374 -1.2069331595080957 -0.0890054207961306
P 9.1155831813938 0.7651333093923047 4.191104752261091 -0.20679768391696646 -0.21060574480914698 -1.8223040754540552
Ni 8.55337622027032 0.3801807256450997 11.090411964224245 -0.5199094551118402 -0.566540781817134 0.3071172441743356
P 8.445452726865781 6.3876556306514685 4.9367568083294895 1.348879908387948 2.0802512856616433 -2.6484882242342773
Ni 3.1071274046680255 2.953077176466236 4.292472231593608 0.6928385113058196 -0.38701941711761734 0.7187007237845622
P 3.48649288421238 8.03313695063103 10.248118279809137 0.4014525618238118 0.8142889400045331 0.566282900170057
P 8.56011166209589 3.4428321308485352 9.33567386460992 0.5986579740666529 0.2074995950799975 -2.222452059533831
P 3.089782721824854 0.9499089301404694 0.13891020637146909 0.04962280523345002 -0.5499239991960593 -0.14369612747079125
Ni 0.3502991036115725 6.569126100165009 7.3497720890296225 -0.955689072352296 0.20627317887206412 -1.0948950252622176
Ni 9.006224265960862 4.240163060508651 1.4944031514904215 -0.6516990609530325 0.4207186091422754 1.087763813534075
Ni 0.8380187031689857 7.514231887364292 3.3357340051103264 -3.2567868067144876 -0.5971762473148038 0.8504314513633612
Ni 5.147285372494879 8.684643724482882 13.163460419490312 -0.9103137295412902 1.1496281551390393 1.8084376018846078
Ni 3.9488552015527048 8.670123878580217 2.227450177836348 1.5670243847763015 0.612396663808984 -0.8340699792862023
Ni 2.210651139392434 8.430730449651417 12.12430320459172 0.6230747123481204 -0.19531950807403783 0.5374196960814615
Ni 5.550408926893911 3.2058494748135873 11.82405156222805 -0.29302374219574695 -0.6462354667353 -0.5569649652032408
Ni 3.0988553251582056 9.165611319652857 6.236356628004113 -0.8968015539874684 -3.2139272883468006 -0.07820087398145886
Ni 4.7005470718482965 8.756865695642592 7.79785287732969 1.1823919798336215 0.5913007623706333 1.291099249934054
Ni 4.278753829656799 6.323990983122608 1.0518432171457404 0.721419665377622 0.1386804194237547 -0.7112990320038524
Ni 0.8408610228136837 4.543911243710734 5.490421168099338 2.6237727237654687 1.3373649657698128 -0.14748516219957827
Ni 1.6336298868219994 4.8272046630081125 3.2443997576993966 -0.07060917767713001 1.7051080511563217 -0.31016117320698194
Ni 2.7765478712427663 1.2022579630179082 8.37645861498532 -0.44699939721567533 -0.4019719246623916 -0.7252428957784542
Ni 5.9992543534667995 0.7776914118561562 1.9853634923196462 0.5386713091003755 -0.8205459766578383 -0.2607995920547186
Ni 6.602702093637015 2.9703666507698534 6.578948619493967 0.0199144795357399 -0.5251683895179342 -0.03188399319279025
Ni 2.36860277105603 5.421773029733415 13.083477967953982 2.3768254642128097 1.144016722489533 -0.16273926014517134
Ni 6.365765444718362 2.854217084971789 0.5457603371903871 0.8355231667929611 -3.931777491205609 -3.448175612275552
Ni 0.23814939650418562 7.9697115401069025 9.243463641704734 0.8856069708232296 -0.0037270711426000327 0.8377589981020153
Ni 5.531674829138635 3.8498018801698195 4.626997335312318 -0.5309083773255049 0.1671381605438154 -0.6947992345766163
Ni 4.40240255541093 1.191234657953654 10.771224712935926 -1.5520551650609788 0.939367452374137 0.8881184243911737
Ni 7.396849330849525 7.006626171859579 9.682266634932777 0.18179704810757075 -0.02696804394841162 -0.08391489364710064
Ni 2.8248461419291355 6.84699988116285 3.06178463113244 2.3246690939242285 -2.3648963168753916 1.082090931519014
Ni 0.06730473057011167 5.537122071707948 9.406875397930207 1.5195839319061508 -0.6823039303230829 -0.9870547311477709
Ni 7.975959306499748 4.774774953278461 11.042104492114618 -2.847488523594012 0.1778473194312034 0.2926488753548315
Ni 1.1202732817804248 2.71742872680384 3.1183062137853566 -0.5966977650164885 -1.9394759313820729 0.46551416819041114
P 4.191496732891923 7.900507635776139 4.7877554010699 1.1631647561728935 -0.5850717507417859 -0.9562732269905402
Ni 2.0805982230500564 3.630531963908403 1.1387377778342136 -0.7431192618382427 -0.18917585707014517 -0.8577691226753551
P 2.275631590447328 3.1277661970379103 6.788188984403099 0.5506667908993548 0.2736006004741288 0.12600025285292493
Ni 7.244961437113596 1.1528095144241668 8.11829152218123 -1.4463450299156573 1.7111408876139627 0.9263941800429206
P 6.365526207713629 7.16372207116009 1.1298979705093146 -0.26222424031638714 0.06967972388432517 0.5724982849521495
P 0.3829751978888509 8.213208803809206 13.66975953289225 -0.6834043624761134 1.1533981637044328 -0.6880927690907181
P 2.068682379929681 4.324190457709627 11.148967061417396 -0.44949670971623235 1.3686876871424944 -0.4133261733329462
Ni 4.229176561137432 3.5610888225729047 9.755716075955233 -0.4127713292707407 1.378066300143917 0.819013599173712
Ni 8.373764438255092 8.731893032917728 2.245038698395882 -1.0762283020906498 0.2013361465817629 -0.12071380764300502
Ni 6.757009961690056 2.60052464429854 9.908421056076559 -0.3486714134670382 -0.5716063692654995 0.8124408310522009
Ni 7.9610069937039105 8.43672057619301 5.671069950515851 1.8428908984664716 -2.8451534477029323 -1.3638501565445351
Ni 1.6153374573831534 1.429450304705304 5.38279120009676 -0.7491302439190131 1.6721369955469396 0.16322854107676407
Ni 0.9241817507083704 1.264597605597476 12.89000792236841 0.05015965157352652 -0.7859510122917883 0.8835470029704073
Ni 2.4144534631555112 6.092363555424385 9.9200976621922 -0.08989887914467744 -0.21213220875600242 0.8491968076253118
Ni 7.920529932787671 6.717526654485786 13.065728422487414 0.4224638739681563 0.019863828803462564 1.0893447848679498
Ni 7.878065364447494 5.104185905949831 6.265001578751634 -2.1443982526531973 -1.6068962812705747 1.8560006963755522
Ni 3.2919195879780565 5.0942483688301365 5.157619490957035 0.25821640470857465 0.09623999087135683 -0.48992704981713686
Ni 7.151419768262837 2.151237549409221 4.203844122763144 0.3758101786653592 -0.9089412746737958 0.11235155172123877
Ni 4.289344667827882 6.682938504455293 12.04459035475688 -1.8386935725556721 -0.0643498270309795 -1.1516824665649068
Ni 1.8438271997500653 3.222973323498543 9.169434511016963 -1.0630472846240016 0.37619481569828755 0.014421060521336453
Ni 4.617255788508038 5.878697305927685 8.59721272081841 -1.2107656458803084 -1.3929383321597428 3.0465818968881853
Ni 2.6154585542478594 7.8278531977232575 8.245422066496557 -1.3075429973123738 0.13460599224406494 1.3208325153324285
Ni 4.172790239406423 1.6869153289147338 6.237582257582209 1.1601038578593825 3.8460044613038473 0.13092262985520678
Ni 5.997680910089514 5.255208865899418 12.902451927183849 0.9201551411117443 0.6576336812699126 -0.4643438020313938
Ni 0.32027669980218304 1.026621195850559 9.024743050411878 -0.24488214949351378 1.8604659312357572 -1.0913214489783463
Ni 2.3535676454508616 7.651609136620816 1.0190116188153853 -0.4342744934498392 0.7643421757727611 -1.655292670296091
Ni 6.343939668748069 7.529570659937006 11.698644444489128 1.18217626427839 0.08928104305502044 -0.4221118899453763
Ni 4.583044896831162 4.077040228973511 6.927804019796206 -0.7468136799706945 0.1792673397071816 0.6382874155328169
Ni 2.1977967510996437 5.220666722985218 7.671854108075216 0.6910351395484937 -0.7522505347155497 -0.6459870981699197
Ni 2.946240518984816 2.6552363069964158 11.976648885697248 0.6903599678583401 -0.3443684152163102 1.265594677905046
Ni 0.5702407237708949 6.240101607270517 1.0752507177742514 0.2554180160278311 0.5846266927845674 1.0851685420030732
Ni 1.3024798651546834 0.5789057040538733 1.9099063007420813 0.25131504960305107 -0.2543229831914394 -0.4987847573180829
P 6.4952754770884615 1.002007388632796 11.826582873766593 -0.6282025204929891 0.7793723306330061 0.12036773715749594
Ni -0.11968383247183709 3.2190167114971833 6.910430812540931 0.6689761028659252 0.4585287380115136 3.4115006254520215
P 7.875608584437347 8.51711341120669 7.778339419024377 0.7089153622630242 -2.4259435618956995 0.889420688142365
Ni 0.36417577002843543 4.803418983883657 12.593837111220093 -0.8524834487963834 -1.3326667889631951 0.4544401697644367
P 8.707113600081303 2.936091349130165 -0.08095136140550016 -0.6025148859188978 -1.1846326962386824 -0.5936394378061389
P 5.945462833094821 5.638438943212542 10.581768328175919 -1.0000285176996198 -0.733506164228511 0.18246219249539544
P 5.589202127353757 2.7232716305732905 2.6733897949440513 -0.861770016304632 -0.03195829807415141 0.9855606631007477
Ni 4.953080133190914 1.9166932705379023 8.505042984175565 1.2314208602368146 -0.6165929612785187 -1.3122563436276433
