# total energy = -381172.3018603027 ev
CRYSTAL
PRIMVEC
9.19031952682807 0.00000000000000 0.00000000000000
0.00000000000000 9.19031952682807 0.00000000000000
0.00000000000000 0.00000000000000 13.45096159924138
PRIMCOORD
 96 1
Ni 0.3423357264993049 2.1560030109881563 7.891141041128024 -0.5147960451446746 -0.7654428650361075 1.266157749497368
Ni 8.736418842168257 8.256270598134599 10.309381548720273 0.014641404062258655 -1.3323970802415763 -1.8861278547782356
Ni 4.4917043398170655 5.033776956868215 0.42115466391543793 -1.2059851937725294 1.733289398686544 1.1793084558122915
Ni 3.838015292030175 2.6648710035643584 8.089502140845687 -1.4945046203400199 -1.241530952087623 0.4816568393885446
Ni 6.638314844241868 0.4778975347798769 4.497127547373851 -0.6889898269836907 1.4041506559357946 0.3959159482762988
Ni 2.4508836035436925 2.6618381981182657 10.224546628137436 -0.006392790900221248 -1.0858951357564524 -0.030547276659237715
Ni 6.494229014593869 8.153853677252004 6.104032861059363 0.6725620204449707 -0.0495065913705599 1.1544348324990634
Ni 8.65421143394008 0.9654982089233434 3.0721188759615323 0.369875301238163 0.06646121694702747 -0.31028484326903977
Ni 5.4234465050934455 1.718874652691344 10.47131773599841 -0.529161055617095 0.8437118732513404 0.1210141124922432
Ni 8.748743060662834 9.004941598301388 6.626333424665896 0.7566553486514647 -0.6950437464872545 0.40613094113608766
Ni 1.4286259811807493 4.7144593046728 10.285452713750603 2.8083547908173436 2.2399229626250845 -0.13587046077878534
Ni 4.271697280501882 0.049379586854107566 5.3489497749539705 0.2647259236923183 -0.21053555369284385 1.5902504451837773
Ni 2.054744070366798 5.978881846746469 6.676088895588928 0.4197084227102062 -1.1598901991866797 -0.8144054109777394
Ni 1.9531634685617636 8.266839465598254 6.171879475984315 0.542617438232317 -1.9263501926333924 -0.3689401910184033
Ni 2.7912746584296846 6.807159394713423 8.81255880144034 0.3376835469969668 0.533561498677636 -0.08536705271259491
Ni 7.031614568682875 3.08798412457241 3.825843632839857 0.06107475582413352 -1.108605947090407 -1.4011512069878385
Ni 6.41181022901642 8.70794723225312 10.928583922457278 -1.3957470052531318 -0.9936835493181982 -1.2065426089378963
Ni 8.463107929558113 4.035496878168471 7.542411609329184 -0.13186493916381806 1.5565543384829128 0.4732524173749334
Ni 2.292617110855327 4.6338142507653375 1.9277108786134198 -0.24127180643443608 0.5661859695808765 0.5608807553178793
Ni 3.5756408596650315 8.958374249224567 10.237419508708168 1.0461119423212435 -0.13876243761459975 -1.0784109115642655
Ni 3.982579018293922 4.104828648730054 11.672488822913936 0.7404725682440151 0.4621663347641008 -1.3370636324793101
Ni 4.581686758370679 4.451818353041181 6.892151469760285 -0.6597216741471928 0.8549293392337146 -1.3341066067335154
Ni 8.665129533546013 1.7643207827850649 5.054776837002523 1.0125785864504884 1.2914172953951049 3.2229289776247785
Ni 0.8109804475727392 7.688556989584666 0.28851537724655507 -0.4283506717662364 0.2718540500966673 -1.2877395894332015
P 3.8368573117689397 6.338921804795327 5.3955437759574405 0.9361072935656266 -0.13039658214840769 0.12787355861623784
Ni 7.421743632884787 8.134370199840744 0.6833434518260025 0.4295320936688474 0.25132019180937365 1.2836566776130796
P 6.180159034852147 6.340079785056563 1.486277774647063 -0.5264045759178806 -1.1286785494705658 -1.4975236096720017
Ni 5.043739263242653 4.076880887028334 4.495540379190396 -0.5238411860660784 0.6868622391177267 -0.36352030555441267
P 4.724384849769103 1.8322648150970724 3.8570098444422483 0.6799832526097064 0.19254631620427484 0.06171624606287436
P 2.078317239970518 1.1190224967323639 0.11172947166600444 -0.8355776741799804 -0.5867000303738282 0.40682513898963485
P 3.4228609877382334 0.16937023674887755 7.965013748571166 -1.3123296200677397 1.2662153422081805 -0.28936351973534036
Ni 6.597114641772678 4.089912760126999 1.6943502850158954 -0.2833368539252862 -1.5911361902228403 -0.9610565073117964
Ni 7.871729248209124 6.87421196603067 12.332326194468813 0.5188838420608032 -0.9219451431326315 -0.4574776710391799
Ni 2.612550514459495 7.433801332112887 3.8571173711807916 -0.9424977704730028 -1.4985371385381805 2.5084973135292152
Ni 2.3837483193506426 3.3933784426744 13.072827919602174 0.06142545429533293 -1.4487322992009113 0.8182633512712488
Ni 5.307409530662036 8.162860190394946 1.7081109504535754 -1.5491899276980414 0.9701458712075743 -0.2389220752553369
Ni 8.718047393420562 5.998383704796797 9.909821378612966 -0.4862488296346013 -1.3076155024215221 -0.41079055139528603
Ni 6.532267747143497 4.726893807001779 12.77043699792377 0.6480218692117614 -0.20387253985037146 -0.8501118632404132
Ni 9.040554086494142 3.3401205409771078 9.954733551141784 -2.380675176976203 -1.8653101467019362 0.35462454572667956
Ni 9.047042452084874 0.8878335756406324 0.9541941158969983 0.6228669672126886 -0.8836652737158265 -2.138656207963097
Ni 7.959616273909075 4.411362566454213 5.3132371122783 1.342787679447281 -0.2768633303858006 0.15657992541199486
Ni 7.563734069679122 0.9531648001092335 9.225826333132032 1.8926571712563212 0.19954871566403698 0.43407291896199435
Ni 1.2004762987587838 3.6493839836027493 5.900264177328123 -0.7831158568358384 -0.5156524796076991 0.7200616086878309
Ni 2.9908975890193124 7.118095475494183 1.6854862218257247 0.215740494932551 -0.4239877668118505 -1.7706968928007247
Ni 2.0864047211600982 0.9907072554040465 4.28714436957398 -2.3150796504635807 0.18716011219169704 1.3721149676564885
Ni 4.274408424764298 5.7336289796724484 3.081373527731881 0.030520280076044213 -0.21873454456386843 -0.2946075417430991
Ni 7.0169927703048955 7.643074098212811 8.481248701285514 0.29846496781597626 -0.5479288231429015 0.5819864269482429
Ni 7.072961816264605 5.686262072796202 3.2567873186060634 -0.19737047706579558 -0.8745499416781197 1.6848349027295821
Ni 0.5322766554602705 1.9375858769522878 12.301321732490212 -0.22589095310299162 1.563227379627714 -0.8846775170304247
Ni 2.391431426480744 3.3039382529732695 4.04868590573116 0.337188095417787 1.2539640356446533 -1.9356994950587758
Ni 5.0845994238891 2.9118424603911657 13.488489529532371 0.7984915679609603 -1.944199562109987 -0.6218729787305355
Ni 6.166548171622865 2.585935349090149 8.317549810720829 0.8337514196045189 2.661602650129048 0.6450080220861021
Ni 5.8636352397949505 0.3899948855367199 13.05547659632271 -0.34375546422265957 0.9097246898070398 0.36700492166890347
Ni 6.2030888820885135 5.803457027488847 5.911011336990731 -2.177975831498326 0.20106849474267308 -0.9543181601466983
Ni 7.727928318466668 8.012488182185955 3.2115112094237146 0.5047687428156598 0.6735529236033303 -1.8915006890543746
Ni 8.286874362181532 9.135407374400572 12.187257000630717 0.3083963679970753 2.086099259801988 2.4154663165134593
P 0.7014088629332274 6.700698733236039 11.61011688133516 1.1836111969527034 -0.36946521028393786 0.4396041331928687
Ni 1.7761395337052923 1.1271467392000787 6.659234768596233 1.6240175143318936 1.6690323884796867 0.13518551889661878
P 7.481205000267268 2.2068990005653104 0.6818224539431894 -1.516403220185324 1.2028836720290703 -0.836506870862469
Ni 0.24544126862446003 3.7739863358394867 0.9464926281278297 -0.8836562748547621 -0.6701174155592201 0.4433659142281461
P 0.3989214428997191 8.723864865685341 4.51423716524958 -0.07338828308416392 -0.36843188392341714 -0.10577492694498557
P 0.36046730790717174 1.0469336303106964 10.227815624795543 -1.4647698122797483 3.7394839144420886 1.9446163379324317
P 7.926843594452207 6.179010244910446 6.944637384616753 1.3272541025880562 0.4827163910013106 1.8003928772032607
Ni 3.8702549329540927 1.040298219607427 1.2016912590011277 0.5138851032946311 0.4293929969878218 -0.3884677195283696
Ni 3.642610718106476 1.2250328325526003 11.997988803059613 0.5707224239986494 1.8879047441730001 0.774151448553699
Ni 1.6573270827747315 9.103241256032923 11.666597828092888 -0.6263736948143664 -1.270758738604489 0.028427144992441363
Ni 5.671539180903353 7.4522371130973175 3.977233928453172 -1.62848994828095 0.24517191281979064 0.9496606067700288
Ni 5.451146128167757 6.9806910081471205 12.597807873868273 -0.4948088033894704 0.39289695894431687 0.3930054594977232
Ni 1.4332854731842917 9.10478522971457 9.081632057713536 2.417772338938817 -1.4161957600257868 -2.858315439006187
Ni 2.0794016976754843 5.60999161098674 13.303901961699735 -0.4700861038318098 1.2922536752534712 -1.0473578989132026
Ni 6.493429456794446 5.965960257482208 10.621995781847872 -0.6047409470359392 -0.12861892142269463 0.981208299669323
Ni 5.591206597860034 0.40738388912627077 8.368085539772265 -1.41848944115597 -0.41083811680376986 -0.5925508327276504
Ni 4.234770576615821 3.3164370875389846 2.253573876380675 0.13136845914337375 -0.6448254737616508 0.5201405972860398
Ni 7.349489340711514 2.2117606795985916 11.80379735131435 0.027253436399314355 0.05287062274678636 0.8344055082487501
Ni 3.619111071059025 2.465128598820794 5.653223793104813 -1.379130222632057 -0.4622174997170104 1.158876670320501
Ni 1.5792828892952822 2.203066637319793 2.1392674391174453 0.7240936126653593 -0.2620792300980906 -0.2795380490044863
Ni 3.473325032297308 8.323396692008114 13.096326647617671 0.019626515981675877 -0.4030754421392154 0.553490376391079
Ni 0.6946962535458758 6.8639279984725565 2.4817695104003086 -0.8259092978522808 -0.7335267330538012 0.3700478222602853
Ni 4.6171154401727605 7.75018727237708 7.427823029256271 -0.541381508942687 -2.558237875287452 -0.712361926050728
Ni 0.5367339604340732 7.094154693109119 8.143078027598843 -1.1813725374301718 0.10841930654636812 -0.9888462758305551
Ni 6.493778688936723 5.111085924784976 8.529281906327947 1.2236985518918926 -0.34769773669985926 -1.6455222211728888
Ni 6.335401912413953 1.1422923857914742 2.3627686579193092 -0.6344646993526171 0.42072477978986256 -2.036142468267887
Ni 3.624652833737794 9.224691328669632 3.2189222830956203 3.173479207634083 0.09926309396839679 -2.616148374450991
Ni 8.351445547224705 6.679055530734378 4.8663431204450704 1.6446822417700966 1.0225506100615358 1.768282112711645
Ni 8.296340391301154 5.82431905283015 1.2378303525031575 0.3162989106736036 0.3078548936713085 -1.5155462715016672
Ni 5.779709241813988 2.4813678934366896 5.984427285553052 1.572556884558756 -0.04286363213274553 -0.2377499093241067
Ni 2.8931125891816607 6.701985377970746 11.18023784708646 0.4345208051326903 -0.29212514164087755 0.8708226134252035
Ni 4.33755511027976 4.949419013869173 9.064764145241542 -1.3280141206825324 -0.008430904376172577 2.1235545764349686
P 4.879011975922157 7.202554512008095 10.092337448422727 -0.7730589868204687 -0.13690995778689324 -0.5633947799889846
Ni 8.96046964207823 4.648261433072178 12.28929619938048 0.3470850428165248 -0.06564283481079018 -0.6720457429301845
P 6.63008031793975 3.7314719176769886 10.46043639767061 -0.2662297619313544 0.23846056223788611 -0.51607414052615
Ni 1.5137007691034132 8.898453365865404 2.1939866016205825 0.37813137059936813 1.4295919788270346 0.09604690102394427
P 0.037190466056675434 3.4393576113010704 3.345603485610862 0.4429889905047016 0.2540213927906206 0.24865755737554596
P 1.735628605201122 4.174610744948784 7.901969075602527 0.23653583441134743 -0.42378670654463785 1.7083299005277286
P 7.229822190064327 1.2854591834861118 6.841226071160623 0.6478601468229166 -0.8560189727534676 0.8175627256597985
Ni 1.1326609309202469 5.383385902246422 4.10161479398915 -0.1732504440891403 -1.2547227681875488 0.699343402303873
