# total energy = -340866.5952166364 ev
CRYSTAL
PRIMVEC
9.30497868833618 0.00000000000000 0.00000000000000

0.00000000000000 9.30497868833618 0.00000000000000

0.00000000000000 0.00000000000000 13.61877687204093

PRIMCOORD
 96 1
Ni 6.104531129217004 5.918961943469005 10.702506220345532 0.38024250340509996 -1.2262514002207332 1.781950868447989
Ni 1.4246294245981863 5.025079186166617 10.765424623804932 0.12187851737506751 -0.4067932573104349 0.750873708972681
Ni 5.690580551752669 0.8433148517742576 9.89013228299986 -0.05922253310674317 -0.34857088333343195 0.20534629618242053
Ni 6.090536441589014 0.3701064493830032 3.469710161490596 0.5145335355119074 -0.39752005953862507 -0.2006298645433577
Ni 8.848010983097565 8.89424742114509 12.290837200775137 0.5150696105210355 0.29356341674930087 0.4869854506903097
Ni 2.76087085865231 5.600517665082916 2.926852134210362 2.069837546527487 -0.9521520057333152 -1.880956337879625
Ni 2.446129961699692 1.4822923762143099 8.933699599385722 1.6246559192468408 0.23400921133475183 1.19285739814132
Ni 5.574286930758912 8.71280964584046 5.778787095216449 -1.107058657207945 0.7236128163741988 0.8822861339801128
Ni 2.8114899415620584 1.8749159430115228 0.1180587754106647 0.4274307310551284 -0.14489297599236983 0.26236050878393524
Ni 6.257672464975945 3.013891833373244 2.936426026564377 -0.5364200511723536 0.22742770146249222 -0.807290654309829
Ni 0.9776554785223263 0.2687073074358704 10.211998932469442 -2.2560841457659793 -0.7977459480441874 -1.8638608158499193
Ni 0.7882237962089162 4.200155624350286 3.989034967707035 0.6127399060810157 -1.5632847152282108 1.7144097881732216
Ni 1.339591226305504 2.613359034871383 2.4646440773735017 -0.28905113070124416 -1.5428549866189494 -0.23866265094636316
Ni 2.738939024384244 5.3470686613520835 7.7846966642182025 0.08430775821014512 0.8510870826694892 -0.527541260625485
Ni 7.4304440371627045 3.9439058220981598 4.78819862711025 0.6495141374865716 0.9046223355834679 1.0251116859204927
Ni 3.9969535043901594 2.2718942397355297 2.4417100969235648 -1.0204906422087134 -0.30602606799268584 -0.30265715152045297
Ni 1.993303184162392 8.440006286879429 4.155156748440075 3.3713096550554327 -2.631690178840332 -1.1874200291758323
Ni 2.50198774749146 0.6931715800803017 11.650046136030102 0.46656703493495777 0.337230004399316 0.7638518663999038
Ni 0.42698871330498545 7.253267942000108 10.787882189356896 -2.131876466037103 -1.0657749679678095 0.013173818377796666
Ni 4.15361212201305 3.7575643231366485 4.2983715331607595 0.041022208048632575 0.07198317520652119 1.07301390891841
Ni 0.24748637352337552 5.121823047382179 6.330960336449063 0.43523454337026335 -1.2010980408835572 -0.29940239202858115
Ni 6.2728488848703945 7.511425264839826 2.1293233595253893 3.5258797491262506 0.5641745955778026 2.595857742522755
Ni 7.788266984459465 4.135821003166829 12.444130207683239 0.3268201219199017 -0.11312776776563097 -1.854767081078767
Ni 6.09264867170308 5.966045134557852 5.2163048683302105 0.5624761248294572 0.6420332557284942 -0.9950927709608991
P 9.001412858253834 5.203874347584047 0.21316496041444033 0.06932953963375803 1.217804812115277 0.005678795552332155
P 2.6919116631662536 3.78372992261132 1.3569515246482833 -1.67810015510891 0.18896168417681003 -1.1178570333750295
P 6.319848331152956 1.9747769720165633 4.949594409275302 -2.905682872546557 1.0302695759723484 -1.4734017769231333
P 2.6692075156846755 7.639257059143893 1.904232208198187 0.8669600451460037 -0.917264964048143 0.6480113276888001
P 1.3439645661892508 0.9576962996911846 3.9401708037378707 -0.5948617402490142 4.445559236153156 0.03612194253353779
P 4.463272500717741 5.628674529951463 9.243622378483439 -0.87957336303464 0.215784460796609 -0.1187476850555697
P 8.333380538522295 5.338898890250105 10.699237381406894 2.8295959595843074 1.6739503946065946 2.0819276449228012
P 2.060810803006184 7.417333322489941 11.972130521996025 0.32203684159864543 1.2922994408897421 1.2214326386758512
Ni 1.1744092483985453 7.714962364025091 0.3598244481669605 -0.39713670805727735 0.20015986688547466 -1.3963337309945372
Ni 6.449596951023091 2.9000733366541183 6.904488503284227 -0.513263153439916 0.05343112323594669 0.17555723784544602
Ni 3.5762940374445877 4.256608928764522 12.603428647699785 -0.8727447701485809 -1.6087276780523585 -0.8399482924438503
Ni 1.8408969417030592 5.485396471377143 13.226392304182545 -1.0844077525776485 0.8978755037779377 0.9018823109444855
Ni 3.9457202929009907 1.2210271905635897 4.693861033328598 -0.04203290870133406 -0.4460187784699609 0.5590874108628823
Ni 2.38478223860705 7.323306514989388 9.39581181494428 0.6761836763579581 0.47322310679889473 -0.2938598649437971
Ni 7.115200671372379 8.884058469713807 7.812520410857307 0.18234880684598273 -0.14606282793075487 0.8889036392966305
Ni 5.047215729961157 7.862660287375539 10.053148992415439 -0.22648282105071962 0.6390325212289575 -0.6936440379262505
Ni 9.329915818372541 1.7551794799816247 11.77542048551864 0.3464103853470034 1.58328558383017 -0.1600110625807309
Ni 4.370632135010121 7.515342660778246 3.490519815354449 -0.33020060835636034 -0.1263514655447566 0.8542438831309159
Ni 1.4962498439283949 0.17010245052509748 1.826250905581746 -0.49768406805473636 1.1850440727444882 0.2855881118533082
Ni 0.5045540833835466 6.167283904059531 2.016218554655377 0.6215724167709812 -0.21951050349794451 -0.7890880152588733
Ni 4.22286907681034 7.248857382202458 7.48099798522312 -0.05020156055505548 1.2095824242054845 0.5189864290769385
Ni 0.6747812206202232 3.2980193511396356 13.753738932343193 1.027428249868811 0.30847838618792034 -0.4292125055458995
Ni 6.840154812598619 5.402256488693576 0.8114983388710769 0.2970176938464885 -0.7753508681784388 1.0382847329673408
Ni 3.188341569842355 3.8025445890899063 9.568416374181588 -1.8329517849758885 0.0999187252745247 0.3853553991516331
Ni 5.278574714789831 3.369918919824126 9.254694372372098 1.7954159928139595 -0.06971726199047992 -1.0704399775436468
Ni 3.7467147182335663 5.948598299915245 5.397679369781204 -1.4973978827274148 0.07347827169480893 -0.18376908423227706
Ni 0.470453198264494 5.717090435430954 8.645512319510228 -0.4098145606352619 0.6866341822673208 0.10601043999455935
Ni 7.222859272340356 0.24821588383589835 0.9134948604363725 -0.4571508838273804 0.6646494504661133 0.0822184797812842
Ni 8.606872465890554 7.286700729664581 6.604929609213143 -2.626389849673341 0.3361475699684146 0.4441904670119705
Ni 9.135283583588864 8.748847827478228 4.151997708247454 -2.77545624031711 -0.8727506836858517 -0.2350111702367049
Ni 4.296285356986427 2.3300224402754566 11.2417957883802 -0.2930260561885921 -0.2719748919452477 0.5323633646044766
Ni 1.40159029789147 7.553520987465507 6.2786235545126345 1.8772241245307026 -0.3653177637744676 1.3648330892830947
P 0.06091783308704806 8.049653134830375 8.852354547050187 -0.6693023758570925 0.5624750963881926 -1.9722058175149262
P 6.778788479549026 2.778085068833015 10.640417820966197 -0.07511863551170934 -0.13108023847899358 2.0440043875144673
P 3.4344582505340555 8.170152606095309 5.67295599202117 1.0555370922898852 -0.6587006890818463 -1.045125152927942
P 5.375169696349775 1.7603065231219324 0.9145770294331379 0.8356077560869674 -0.8073004245018419 -0.21005012941599308
P 9.467908649172461 1.2019612896661493 0.2660414311024802 -0.3748251890442706 -0.5393701349396129 0.4733321215729332
P 2.3270913720554987 4.07937700373107 5.689325310156249 1.3571814862751077 1.051716947212847 -0.22878627237291563
P 7.152606684846127 7.906412296169957 4.801858335513102 1.5871334968213504 -0.43365614313954987 -0.9005615352505328
P 5.306387295454763 5.216547728268436 3.090562995020256 0.5649652097998981 1.1270806088558267 1.347036427421306
Ni 3.7570525493204654 6.505557091578096 11.38698602003135 1.2856163724426117 -1.5730716194116456 0.6629988022365678
Ni 7.643444299458119 2.7936988227158377 0.7852936584868059 0.5952466343922588 -0.7562051484879234 1.2613384737318536
Ni 8.298784628548317 6.110030371496354 3.6569142319568386 -1.72326466746069 0.44738557691050046 0.9300045231019983
Ni 2.6618100577962105 0.3878324333798912 6.881335855840104 0.42220779209329223 0.3733642882280279 0.2722618270580472
Ni -0.03551989433665127 3.1143483810007524 9.700055765678059 1.9134062308782143 0.8588489860030951 0.27939689544093166
Ni 4.5300543312404 4.635116843213557 1.2278514617779295 0.5296971306262231 0.07896449162036077 0.9825851254121917
Ni 8.373475690775624 2.0028966169712064 3.7157877612726966 1.1263344747184216 -1.0471403835857578 -0.0902554911531478
Ni 1.0741946302114147 2.2586904752780055 5.772482041801073 -0.5584924575913607 -0.8128136410105874 -2.6042081713699794
Ni 7.484394302366882 4.716265560503247 9.065093339450424 -0.5011134054512596 -3.407354721604448 -2.20612786845251
Ni 7.807639949646616 0.9090591771968363 5.779154641866253 1.1508939092253405 -1.8438784591907211 1.46900416207607
Ni 7.542243353552525 1.914182952180482 8.916771052044233 -0.00818253581079236 -1.0431526025826034 -1.790086095960614
Ni 4.284877453374782 9.132603749787759 1.7235928000468028 0.22661369020162908 1.872950179745697 -0.3767951682864478
Ni 4.4148493927283425 9.04932419242705 12.482630486625771 1.2309385212837574 -0.40352589941307276 0.2694264144917812
Ni 8.00109975714231 7.365718606883254 0.23992514801373183 -0.1528140306116594 -1.7571659481938253 -0.6433985115071371
Ni 7.458433412418683 7.969583795043906 10.41102311709382 -0.019428283927940736 -0.005209312115081351 -1.303018112858827
Ni 5.701653476139176 3.3980478697572454 13.179980002041821 -0.6010961511945002 -0.13910670832789593 -0.34463606705539995
Ni 6.330753765926895 6.379372278464291 8.352000730950733 -0.06885517110050077 2.777947125059764 -0.8266965696402666
Ni 1.7730078187417495 3.3227519839289945 7.61617792102973 -1.12357979479142 -0.13922369352173442 1.3493275374483276
Ni 5.081569710494757 4.851345933040163 7.073265924874335 -0.28439974797216183 -0.72726609685607 0.3896524838650902
Ni 4.073328767721633 2.4707881546612422 7.036849030612591 -0.627410620719313 0.2133293143878971 -0.10030799029314337
Ni 1.2922009709269473 6.180487668517055 4.355761848907535 -0.4561386405127821 3.0979021444287165 2.1148403364904222
Ni 0.4406530741970748 1.1445588774473554 7.70209916177979 -0.6408065824102447 -1.8010333390007371 1.4834900143970708
Ni 6.429144608332718 1.3734334330229225 12.442468338527414 0.3082436444692949 -1.0773359333325316 -0.8041798765949891
Ni 4.753690183933947 7.050493851049882 0.8523583603551371 -2.876641748119201 -0.7848400386157968 -2.42211750328139
P 5.262253782542826 5.532833251648079 13.004215472114044 0.11063919701582237 0.8704042949408624 -2.6159493710663075
P 7.451938537442396 5.2068426357179085 6.843898205439537 -0.2511055046954062 0.316411524992068 -0.7127923287199273
P 6.73413388784243 8.39500741096922 12.362294782982016 -1.28567293671216 0.5785223796590423 0.19630655457765547
P 8.637495150055257 3.8575184019264497 2.6843830050812763 -2.66954813022837 0.3251684452490916 -2.142993658996187
P 8.520196591386087 2.694033198258795 6.958473196908765 1.5728571894079946 0.2050465055538146 0.7065622886498154
P 8.607505204426925 8.261099465720287 2.0015790320189972 0.7090644862463789 -0.13093831358449062 1.4731513514752241
P 1.9828909132476848 2.8489703948636147 11.225861943237799 -0.046414325598481354 -0.17585420026057455 -0.024295382212254933
P 4.098080010467943 -0.08693269191040741 8.685238994615904 -0.8442533475771073 0.6292237626686519 -0.2592846980720889
