# total energy = -340894.5699405007 ev
CRYSTAL
PRIMVEC
9.06415834130620 0.00000000000000 0.00000000000000
0.00000000000000 9.06415834130620 0.00000000000000
0.00000000000000 0.00000000000000 13.26631195167332
PRIMCOORD
 96 1
Ni 6.3093975041661805 2.026211031859482 11.18515967648109 0.31234224001870076 -0.08876965063624068 0.10724148418818305
Ni 4.6387099570483095 0.32422222655487865 6.104201273580108 -0.14489169044078914 -0.18829422579614025 -0.23703128599052725
Ni 2.7432675383588347 1.7627975247316245 4.778472934594044 0.3016968444897127 -0.6247227894745048 -0.539526200901503
Ni 3.7260398482184693 4.361618634901838 5.078967913717361 -0.7774542876746868 -1.2810061273641098 0.6182073569534902
Ni 5.2272820182932875 4.213909109690882 3.162450420342811 0.6526128310165535 1.0204106809003974 -0.6162458623517452
Ni 7.125198952224698 6.002077213771149 2.514828086399514 0.23170627423318804 -0.4181133103089444 0.19696475698694466
Ni 5.028749756959491 4.5555191112956 11.334126400461484 0.5199727042496077 0.17506461447974367 -0.091533586534623
Ni 5.3854787747676856 7.823556099954401 12.395869283924945 0.213033123303717 0.6076069557298246 1.166755044627313
Ni 1.7908873515988775 6.213607478243906 0.6090525271393173 0.8725331683584069 0.8283207355072507 -0.8656564958432317
Ni 3.0077959369693232 1.6925231046923186 0.33549350751952167 -0.880555267331935 -0.17407319710075184 0.3345596566560044
Ni 0.5986894748458904 9.193866502008095 4.591218299135767 0.3411738195384124 0.19769057940937568 0.25416151791291064
Ni 8.502615654460362 2.3922126837061413 1.4011484817464224 0.4218367819071186 0.44746862354261 -0.5814310686654051
Ni 6.889186395926045 0.6966875297532763 4.8374543196885575 0.2180974252005018 0.18751903819301252 -0.368469679139888
Ni 0.867277710001665 7.582558256538295 2.6716498100453347 -0.38257346553112176 -0.5369440419966237 0.029283836565781825
Ni 7.618515772892729 3.8057500571473564 3.746989837517689 -0.14710643870392084 1.124374522778573 0.5251035977182698
Ni 7.4063510173322955 3.9112387325526763 12.514828205121624 0.9349436122748287 -0.5729142894436455 -0.1174233098171913
Ni 8.095308632806 9.092801135899716 6.787801065026309 0.08445559664191907 -0.6248269191525369 -0.10476422629228407
Ni 6.682161018175786 0.9516187974547464 0.14061591485073832 0.26426492489549974 -0.9377828814958366 0.6008125585158104
Ni 1.7552108241546998 6.318842357214156 9.429469358347278 1.9777403741799098 0.4745233136675569 -0.8361479448611535
Ni 9.12253157543653 4.809415252108319 1.660067072726016 0.44488646463773057 -0.4461303643471607 0.2167735641827557
Ni 6.55438357727625 2.0868139948909286 7.160066956740009 0.2024468631474384 -0.5029010934793017 0.3397602270203375
Ni 3.3624945832969555 4.180244825410477 0.26539493215308557 -0.5995511753048836 0.38591564253047733 0.19899515715341212
Ni 6.09264628445769 5.699452157424919 4.934722709845117 0.7379508302634258 0.8167847098431932 0.5015214395229556
Ni 5.382804848041053 3.0578844762621396 9.084478425661086 0.6217966169666452 -0.18446276786519197 0.9299523297078243
P 0.014878816006000422 5.348070993069992 12.685154618360707 1.0493790431082897 0.3077368800362055 -0.8195185638345885
P 3.8340302313409116 6.14172870216862 12.579488285450838 -0.5613834059859106 -0.08010194765891365 0.3391609028734417
P 2.445990335465874 8.46853441889377 1.5139519329768065 0.28034331851460104 0.09069746378657283 -1.1256425908577194
P 6.459191785808072 7.812624724929585 6.011111460443814 -1.2846475807714393 0.18738971170399987 0.04562294004543756
P 4.6447648148564165 0.9751946734411048 12.421845349054395 1.1646338845192523 0.23496154794569213 0.7085577218132895
P 3.8414628412251153 6.12127089667027 8.33962849027401 0.3222852101640256 0.2487714572455909 -0.018866240776883637
P 4.874523101862264 0.9418113780709557 3.7872800215851097 -0.22353839371041503 -0.14638935803223818 -0.4045941927765871
P 0.23798310433380657 5.736805554172241 3.7700472436438317 -0.8386519422299299 -0.41159350691255564 -0.7829286805256968
Ni 1.3974031714974553 1.1838334713857392 2.429114685365373 0.5766711853829166 0.4455760345055874 1.1646236001066073
Ni 2.1099185346407276 6.270385366432507 4.723205135194112 -0.5914066918208782 0.6667819234280838 -0.4421317847107289
Ni 6.164679151225698 5.796774026116011 9.282982588103858 -0.8978248530456602 0.001209961147701142 0.9625696015222132
Ni 8.584963533482302 2.44112288240756 10.218549667456243 0.8494235789241371 -0.43096111280589006 0.009531850749835197
Ni 2.2749315382284445 5.255961015456239 6.905208202305701 -0.4741579599083382 0.3794045808848369 1.4633441355768153
Ni 0.40668522038843946 9.15579703674754 9.286922777758324 1.2765457775999112 -0.047204168489628384 -0.32304779936166306
Ni 1.3847767988527044 1.0838376759680137 11.353323381527039 0.35774792184700965 0.3676173584419217 0.13814562996620725
Ni 4.161074130404269 6.8734147603181 1.513261244107079 -0.6100194218260591 0.3817118888617749 0.41208638738857417
Ni 5.316790582447569 7.987200415624418 8.179663316496674 0.07499959343534181 -0.2198501462255504 -0.002008545789596541
Ni 5.384463589027404 2.5871827307905577 5.120014048594956 -0.6637133118050892 0.5863259348638612 -0.42881655565906146
Ni 0.49887586901191167 7.310044334381486 6.498874671263002 0.528235201368716 -0.06265855537148564 -0.11044199340335172
Ni 4.96265391394045 4.503799023491617 7.307349560090541 0.4253676778785126 0.8206452212398639 -0.9080365034713394
Ni 8.590084782975685 7.062447783653549 9.675585732009248 -2.320713708820907 1.2510057243472779 -0.11593644085901968
Ni 4.613846970569808 0.2829830251034622 10.301676157684344 -0.1721063031823681 -0.388158415818067 -0.15837404119794016
Ni 8.033201019480922 7.435446965781433 4.525762385699439 0.11722662042535295 -0.649718540187894 -0.173719670416075
Ni 7.184233815853745 6.19605926759047 7.296206083759274 -0.19898898650582506 0.8275530041032908 -1.6946549741437977
Ni 2.758096501493661 5.1123031690480145 2.557347147016357 -0.34427122751681355 -0.5468926685689033 0.5109206213496685
Ni 2.29843490094764 5.075828995665044 11.401519324546904 0.3074597151154189 -0.031013674772694972 0.45288619501375554
Ni 1.0684195425374887 3.462988907426426 3.8157097543921887 0.2123229846105698 0.5706907994297655 -0.11948944831760067
Ni 3.9334005998293566 2.5363418663509254 2.5340114712274753 -1.1363412082221462 -0.9511888704890973 -0.17717908971958518
Ni 1.1879032785052606 3.3034597196679085 8.257828086419151 -0.8093454799563287 -0.3610415049966169 -0.6977588314255725
Ni 3.5401611520046097 2.5381546980299996 6.998629763639265 0.26652595301553456 0.27943726176056394 0.1986254325188192
Ni 3.9278714632081804 6.9424292623404495 6.121593580709145 1.5337627945096939 -0.18252004231652436 0.3493810379395531
Ni 0.889405133476443 7.265367097650705 11.700476115990528 -0.12106399189357214 0.07482630108227113 -0.17433442118193845
P 0.13958622645702423 5.864999946357964 8.037129425729475 1.3132642160668673 -0.34085474563609686 -0.29025543542199045
P 8.661011822419459 1.6369598137286983 8.029076827411028 -0.2296733029635593 1.2677130097996296 0.38203584786009687
P 1.7156457727589083 3.1557230019817673 10.395999602778247 0.32776397389040973 -0.3306608358222305 0.528942768958702
P 4.214779268896838 6.0508605142550325 3.9738974467081922 -0.1057553865609598 1.7652320130314114 -1.7475387095167068
P 7.045543128246184 3.956169765718527 10.182332009755863 -1.393696550482006 0.8979459520045566 1.3160932008752302
P 6.321851657801419 7.863800963229846 10.397273117032798 0.5420175998647891 -0.6122321132066617 -1.1632205491114933
P 2.338317197887269 8.3635352080418 5.77165543037076 -0.12598431201332497 0.968417575662558 -0.5890651881718952
P 6.7390295479483395 3.9470965431647613 1.4800692024790725 1.162393682334824 0.5577342392690975 1.1238687867867483
Ni 5.343167283378097 3.046826203019788 0.2134165158348343 -0.6796793482160424 -1.5072030417432947 -0.5112042140283583
Ni 1.437140441902759 1.0659359631371572 6.87697788098332 -0.07994793857955264 0.2842169425373944 -0.06721994948992294
Ni 7.112364103936853 0.4744280209879188 9.173097795876783 -1.1267687340423627 0.2744596060403144 0.1510826497428495
Ni 2.7293993760139186 1.441645328625258 9.144933642910688 -0.25681386793409317 0.1328841244569518 0.21213066609410564
Ni 6.419617670253884 1.9806817642395371 2.4821273221565363 -0.686380928605934 -0.20682802293426963 0.6110157243010574
Ni 4.115436092883579 6.859184031637369 10.493387639825626 -0.2910789597645503 0.037988820538947476 -0.6661358052036528
Ni 8.486572094100557 7.095151267144045 0.4169005269000218 -0.6176260305287234 1.12533971490532 0.9523232412038566
Ni 7.960805586377099 4.17700892086333 8.22605549199586 -0.8868670684825758 -1.8244419477326643 -0.8390777169134387
Ni 2.923064184289401 8.519148679373517 12.496123407856938 0.2681866285474091 -0.6939916510736563 0.435253826643973
Ni 9.121353234845133 4.918756194831672 10.334855509490598 -0.41046710661759633 -1.447511796530249 0.897122427661997
Ni 8.629405102094802 2.495263100503107 5.849554620452252 0.22045769790256223 -0.21758834677456718 0.1253963007203389
Ni 3.8000940223086452 2.5239602259828495 11.176071951273894 -0.9096046192894075 0.3293467449964973 0.22145271482597992
Ni 1.054814240786038 3.313457486378002 12.613065553810648 -0.6499738507318097 0.04012694992787282 0.5313238675963688
Ni 2.6986900073704034 8.37876299414602 7.975375314581818 0.5854533024509208 -0.9813628229693163 0.4092545743667339
Ni 5.847805237881945 7.907879965506532 3.5377673077723926 -0.8814934628754882 -0.17975636352845817 -0.2908226207793701
Ni 3.367697410215898 8.37259936643717 3.498856688612747 -0.6192859347296495 -0.16072840036272965 1.2706301834464246
Ni 3.310031234504552 4.040729299388937 9.157788432347003 -0.16483728032478062 1.1233630507949233 0.22960722561231425
Ni 7.161265238479876 6.254060817162444 11.590803425069904 0.37147092786005703 -0.5337293917140679 0.26415950966588697
Ni 0.6019571039474214 0.34142146711009386 0.40908631594737305 0.03360586097990342 -1.2294493383327407 -0.41756900776970024
Ni 4.7650099401294 0.15218540662658903 1.4672144130427585 -0.1370984196486155 0.48674685231694237 0.09683828657698806
Ni 5.658337134943519 5.530133678599402 0.3669035356069985 1.075683228220457 0.07806846216865264 -0.26692473111584997
Ni 8.018471762088446 8.967017809847162 11.520120211486967 -0.020607391837706445 -1.3441927873249238 -0.5852180465116631
Ni -0.029479362349262975 4.860745581101301 5.8192676415899625 -0.25712959940229907 0.6172815027051112 0.1531053365998331
Ni 7.941181683451123 9.119993611085826 2.502835298426599 0.21637272919991124 -0.49426064419548427 -0.39984382257579526
P 8.523581052828852 1.8915538947378605 3.6929030979566746 0.025657295556788074 -1.9993795497162405 -0.5037490433018937
P 1.9001285885798809 3.213751744028928 1.700051794655513 -0.10268703204828121 0.17921848874711716 -0.5812842586748957
P 4.768454320319641 1.1903687295888012 8.239971694380271 0.1577808876986315 -1.2345213535390094 -0.30439778836064346
P 8.511616363746965 1.7063912670372352 12.437233570762217 -0.23682328374477923 1.0453822632440706 0.2420102272623574
P 6.5027360027394305 7.602762265601575 1.2033993636979858 -0.6760538356483132 1.0699298706764477 0.198475022983884
P 1.7618367239417154 3.370280695358579 6.00607088196015 0.008215445931256818 -0.7052443411693403 -0.6578362841990218
P 6.779646041717994 4.006729641247903 6.114880665001533 1.0265414763884837 0.3727235693202355 0.026963415962721306
P 2.318439498526222 8.361115077750235 10.29017374068062 -0.3046461569260237 0.4920281553205397 -0.2375611903520683
