# total energy = -340865.05409038713 ev
CRYSTAL
PRIMVEC
9.34777052728182 0.00000000000000 0.00000000000000

0.00000000000000 9.34777052728182 0.00000000000000

0.00000000000000 0.00000000000000 13.68140705380561

PRIMCOORD
 96 1
Ni 4.229604364361175 6.285309942129797 5.237981073635817 -0.09070517709605667 0.18104988552890108 -0.023506310652056293
Ni 0.9920788715979145 5.055835093681787 12.820997109851685 0.7255108047278602 -1.5251696535240444 -1.4287918515232425
Ni 6.293545327844276 9.090781487420566 9.174477684393516 0.8611601506347749 -0.9766309647112857 -0.8116754136410859
Ni 7.484591492214844 3.9260822597650735 7.756782674791397 -0.8475088783999275 -0.49476303775319946 0.14385784985963612
Ni 3.9597342331727106 0.47308785515790985 1.8869942134205515 -0.17831628864782195 -1.0010533594197084 1.8325008134813991
Ni 2.4935177518019755 0.40960714643255947 4.281117122654916 -0.8906249928631113 -1.796830356662983 -0.33752079616685743
Ni 1.006109874954821 2.048610620041844 10.867907616327416 -1.758984746570119 -1.0593071008552788 0.26267983979656695
Ni 7.131357944679349 2.0184734083012277 10.186860848057743 -0.697967605002269 1.1454076892997889 -1.2906876163179322
Ni 7.125132329598937 5.193892314586617 10.34207683629231 -2.1168586524720316 -0.3334833928726902 -0.015011128696851565
Ni 8.477558401999904 4.114009835705943 5.43589674223948 1.9915477123766474 -0.14776361267194552 -0.6354121508675508
Ni 8.967512439274314 5.654896306960068 8.975262675705501 2.038133016335354 -0.02617511573347105 -1.6475117407990918
Ni 4.738375463432688 2.730651991081123 1.9146168749259866 1.5148734138043587 -1.354692658414983 -1.4611615261031998
Ni 2.887900184598697 8.01133835374827 0.7760752672876459 -0.6235601366249712 0.14817678894996414 -2.177752402633611
Ni 7.606907067781212 7.69460784958967 5.6977044214656996 -2.0221813781021045 0.11058648940101601 0.756716026686071
Ni 2.1257203779972875 4.090761930743501 10.757293579736515 -0.05476989665202825 0.5050369088753818 -1.0678817298981673
Ni 8.841878405219136 0.623028896560831 9.02582943963567 0.6977287495185855 1.4118662794124974 -0.1574733837605417
Ni 9.124096941094127 6.3117173934844 4.673650566468295 2.1044530797188274 0.6175483832132527 1.2854554213847154
Ni 1.2318024432753716 5.987929322680588 6.863072260572161 -0.48392712347996014 -0.8368791666002232 0.21687769386078778
Ni 5.2753581335442705 7.865429005714992 0.6941121469451901 -0.28477050104801926 0.20663390464559253 -1.3063044969195825
Ni 8.713430692276265 2.2844922580885965 12.966540025285635 -0.46082807556865146 -1.0322441832002158 -0.3904636669124759
Ni 6.022964766106095 6.166032391940507 8.308047803283404 1.3467929439519322 0.19728691621305378 0.04985703273144317
Ni 2.439599812186629 9.251946396731972 10.80844831842428 0.19194390673358558 -1.9083218743767716 1.2778223303194898
Ni 0.04963385644514695 7.163346014957386 1.293017252457941 -1.3161489938138302 0.47149095459913637 -1.165071486277303
Ni 5.882299517262173 5.529963355684217 1.0912727371021194 -0.08983305890374851 -0.14378174520606204 0.7664610218879767
P 4.666285458177218 7.436029825033546 7.299099010460832 0.5502556715038652 0.7150315024630912 -0.4064880673651903
P 5.7464857612511855 3.6239810162684054 9.128070678287344 -0.7013856295448825 0.7969046830898147 0.25968167640019146
P 6.018057186650815 6.059364984008688 3.768351721295324 0.555313802753063 2.063078116316466 -0.15528588919091965
P 1.7035096327465293 0.916901297782293 2.1214521860367523 0.47823907195624726 -0.052779091474244595 -0.051907230392252535
P 7.812567364153828 6.157058532365136 0.21676544759713598 -0.13355698215426032 0.7860134900986077 0.05612229691486464
P 1.6705680898886093 0.11675552173779583 8.562740894465025 -0.06899503911247472 0.6525490676581536 0.532229924350406
P 7.729512424229703 7.20779466316664 9.540961696458266 -1.4485710910326988 1.8150188546465518 2.04444584592726
P 6.24406757916466 0.9148503969585055 2.5233717260997452 -1.0166697258007267 0.15033317317133463 -1.7719325649800388
Ni 3.9719704646145426 5.255494121463374 7.586777579021212 -0.35777260443735803 -0.351584216238459 -0.37951719520330124
Ni 9.402548325501538 4.195335438107732 1.1316270618801105 -1.7063671203744033 0.5853466016697273 -0.5143311896931142
Ni -0.09841239189951648 1.863328463121631 4.800764352576369 0.5151662839998999 -0.2306138124999577 -0.5233120530354858
Ni 3.885354024171442 9.455924094434208 8.266798896878992 0.6192381122108497 -0.8048653326977879 -0.08546706862556894
Ni 0.9399183128160775 0.5963877509464519 6.556349479394177 -0.14717560137895946 -0.02579047870054268 0.13464455879148426
Ni 2.128431231410681 3.101244348232723 1.391796076956785 -0.5445102843796557 -1.6762739005334488 -1.6792270696245015
Ni 7.782439500183602 4.38796494255528 12.696852175619796 0.09422450310322483 -0.08071258465971905 -0.9134101090784269
Ni 7.074252415360669 3.291611692245646 0.9466244032945882 -0.2242531603892525 -0.4168681250479337 1.5384943956574084
Ni 4.057287564973293 7.52295474189955 9.815397278705701 0.6252187552743168 1.9087466206190156 -0.34669217825348037
Ni 5.271226419031445 4.121263705529367 3.6439057888568436 -1.3351098511870492 0.04046993508958836 -0.35451347407011197
Ni 7.337046284363138 9.227941322367858 0.8728312342738753 0.5057637597390774 1.7799937447216183 -1.411597599132143
Ni 8.853507031585552 6.312904560324059 11.7381953222779 -0.7506829331181136 0.6787982311626697 -0.20962564028406477
Ni 1.662005532210444 5.143442397786335 3.27469970605423 -0.5112803186819324 0.1310486139101098 0.5668606270503979
Ni 1.8174963448945078 5.61086830841841 1.064803590462935 1.7255619481352988 2.0468004622023654 0.963438891501044
Ni 4.336832638516454 3.285152382905458 11.473966570520409 -0.20033110235601626 -0.9738369469059164 -0.4994241906742947
Ni 5.1024056857698 1.6799812946723565 4.421830979904871 0.05045712820928729 -0.9994443630613755 -0.05011157194441047
Ni 1.3754776741851986 1.2011697997040311 13.340315298255375 1.1839773220428707 -0.7398493328377194 1.2688887752752858
Ni 0.29691229615261844 8.328311899937034 10.397992394440216 -1.0375563394417484 -0.27674454541974913 0.19618314162591374
Ni 5.497227463774898 9.358894237775521 6.221592734813554 -0.07249353918403645 -2.324874267956499 -0.037026199515362034
Ni 2.661123274912789 3.149562973383855 7.886468967311077 -0.20151843779589812 0.45742907718943154 -0.5096024167588771
Ni 5.478008447850981 1.8986723829700405 7.41922159909347 0.4027720519661837 2.091489320469308 0.9917385097766855
Ni 1.6003476387113404 6.469077760246667 10.749166628158571 0.7726542951828822 -0.5782549849302687 2.700947213364942
Ni 7.222143490716841 7.901660963750547 12.152782960774788 -2.207116714728341 0.12339392557832941 -0.0984735081875659
Ni 2.766594168234557 8.02707065131634 6.603111700775206 -0.802871699306527 0.19056091034312986 -1.348680390782632
P 3.5226044463778994 4.359183157521359 2.2341872317293747 -0.08693568275129544 2.9485642452911156 -0.03267383608393728
P 1.9784369077165307 6.711054144588357 4.9426270508073795 0.5261302392105713 -0.2514531178428121 -0.927998291305247
P 2.3547594481178202 5.41377991749435 9.074466823757135 1.553029613159106 -3.76787789220375 -1.6191984956766952
P 4.130976038965627 3.1297830912364772 5.661817396157571 -0.5475806957748635 1.2398941878151486 0.8279039596848065
P 8.4453272896917 0.769358894261705 11.251930849976823 0.4430141873156822 -0.49592363372020404 1.2182339292328954
P 0.7348170131128441 3.0743321172770046 6.584382508019778 -0.06792880263148947 -1.30161660452561 1.4480175325220739
P 9.03519964467562 3.7762842392491347 3.20043634418285 0.43635605856921617 -0.2627788272682765 0.3740816260100267
P 5.787756167527496 3.1548444636547757 13.001906379782984 -0.0634514835864262 0.3640586945563859 1.0373082279866843
Ni 4.154130466224159 1.4562704536747 13.59239568761271 -0.4264305719253882 1.1020892290178115 -1.5859356198585075
Ni 3.8494772814107447 6.778124397143856 2.528939258144631 0.566556722656734 -1.2862030981840171 0.4354800837221662
Ni 9.209703822334998 8.74660592939396 12.897694631132884 0.5655025703606068 -0.0004756540848378905 0.23646127241967016
Ni 5.567831173538199 5.258578885692407 12.247185159176562 0.807162613372397 -0.21366612890202558 0.8565069681334798
Ni 2.089338855635476 4.025318190236038 5.310315055698493 0.8304809763833633 0.7331729492588083 0.5949650985960979
Ni 7.200335142394614 0.0957735163181343 4.177945780849336 0.035289933550545674 0.5863459894685192 1.6582882625893054
Ni 7.211000948410757 2.5532032657485764 3.7064021773600206 0.21465214696437868 0.9533776506103001 -1.9163311178344935
Ni 7.686288333941671 0.683793143210554 7.066063768498144 -0.23492066740542766 -0.13090077547833587 -1.090770975791515
Ni 3.4728275690457706 4.984483562287206 13.32699005156299 0.17648592030730248 -0.8470026281874703 -0.1885798753573591
Ni 1.6604631500959273 7.909989827168936 2.6376659798935878 1.6012213423729844 -0.6560614516867863 2.192948907868391
Ni 6.284047993127011 4.5465966060907235 5.625055419540845 -1.7798590189159669 0.9613370146666929 1.2054421767848658
Ni 4.520030242639472 5.37593079518115 10.163355879409547 -0.33794348552657283 -1.9800422828402093 -0.6413614264724503
Ni 3.357775211073217 1.158936573077447 6.267096746299952 -0.12128716364797176 1.000228806635884 0.08806054038435801
Ni 2.9296566749353397 2.4970138179282135 3.6189369593654166 0.06521834567886188 1.1624692727677657 -0.29735116592650723
Ni 4.903101873263071 8.523932690909707 3.9917559554241553 -0.08625793995798048 -0.39101285454772655 -0.2598274579494364
Ni 6.868255599253976 7.815764301627554 2.4150422845924058 -0.26772717241248734 -2.136474112710114 1.7394888426290367
Ni 8.920409024274013 1.9717158608053944 1.738400185730975 0.6044354999803784 -0.4864758580437429 0.3083135784752819
Ni 9.194803476331726 9.243823184262185 2.8133760199334072 -0.730447322797529 -0.15773306517983157 -0.32211783134822586
Ni 6.164022621306439 1.2610142257472785 12.234173997569314 0.21652236740389805 -1.5563375944864164 -0.6509272157840144
Ni 3.1190705463683797 1.705865270885064 9.778922278639978 -0.1370922490010284 2.771989621924749 -0.8081900261956468
Ni 0.21419200640849084 3.318720226379576 8.770548373696455 1.018166622061227 -1.4707224303187576 -0.34390870197107226
Ni 8.213353019668391 5.784269449171648 2.8085469617494114 -1.6872684518717393 -0.842561304586665 -1.4301041425767629
Ni 1.957638118596533 7.316499885043697 8.793573801723591 -1.3075717936677802 3.308740059853328 -2.019156989453484
Ni 8.79072740563953 7.782000154975225 7.8210990741897035 0.6304514644281659 0.672646609738977 -0.8283153361906123
P 8.032595183617428 5.805339323632986 6.733797269949685 0.567954631445525 0.7705873853515245 0.2129973849697751
P 8.96802656664582 4.254862039957685 10.596454907611754 1.298379842755867 -1.2299265350794755 2.1582531562584184
P 4.8517358749644695 0.6826265414657557 10.350723523903996 0.004674265547217757 0.08350197447939813 1.048602569953581
P 7.146099378585973 2.406770442573401 5.798864123083134 -0.7125850978051276 -0.9350163744942929 1.4913426776722702
P 9.221351144242197 8.812199234227679 4.902253095711567 0.8821853467361904 0.5479702179037982 0.6542704212246345
P 5.053984235144367 7.163888185640065 11.645394396944106 0.4732511318233527 0.8070191458159972 0.9200294141671576
P 1.7744218189327325 7.684362693241123 12.565838499704594 -0.28090639010692264 0.24537528707984838 0.0403794322583111
P 2.320817693828062 2.8456669579721128 12.423962714595035 1.193289600582732 0.30239309922578883 1.6323196064396857
