# total energy = -340895.7415511233 ev
CRYSTAL
PRIMVEC
9.00391547348674 0.00000000000000 0.00000000000000
0.00000000000000 9.00391547348674 0.00000000000000
0.00000000000000 0.00000000000000 13.17814042517778
PRIMCOORD
 96 1
Ni 6.439834306076447 1.9544258651309907 11.391026088867001 0.20171487007742034 -0.4311883983253477 0.6609730300557907
Ni 4.70352828846876 0.19014738394020106 6.103086974420873 -0.16256493935083616 0.7994999546208167 -0.4732601306844172
Ni 2.7085307811111434 1.4623528914675836 4.8005193641965525 0.3638702326946636 -0.46512696005432147 0.6578149440427833
Ni 3.5038646251329557 4.484463029841641 4.901490170475647 -0.0948413107516173 -0.04161844687173478 -0.3905186885201275
Ni 4.791235427157078 4.599028847793612 2.602735677028004 1.013399539689887 -0.2296113393773723 -1.488268923842953
Ni 7.2023398750076515 6.10937260767396 2.5275277735236634 0.8507695514290703 -1.4247307940799914 -0.1052265106406833
Ni 5.21909247708318 4.475792259432355 11.521173182201391 -0.33253851246091765 0.09933071398153862 0.1805210096086246
Ni 5.51881480873873 7.809005678368854 12.294888625649273 0.16865254030581278 0.3651987216981001 0.57102787105421
Ni 1.7515766579131375 6.545990467162092 0.3614945927873719 0.9137494946957166 -0.051434661631208196 -0.30873343962151995
Ni 2.744186285597925 1.7768236363426664 0.2971787255905213 -0.08270261850655435 -1.2619838206253362 0.5795423362831245
Ni 0.7126679974956535 -0.11599834087213479 4.482820715695582 -0.18276738244064009 0.30529330359171936 0.42027637939853424
Ni 8.449229073957893 2.3709289778960247 1.3586791098231021 0.455592538201325 -0.34617075853237156 0.5596990763049522
Ni 6.947258955282774 0.5356339157611465 4.801363031057766 -0.4299038751859693 0.8830978312481308 0.11082328800217042
Ni 0.918237287517915 7.464876036579766 2.497007201917895 -0.67881082956816 0.27865410373763616 -0.3957105171337121
Ni 7.591272999202352 3.8195959181464603 3.869576651834875 1.2235725678369895 -0.31100989436052245 -0.621808186930871
Ni 7.712906890644758 3.7630063106466065 12.483336070385661 -0.11041885347490016 0.5872929267628209 0.31200902504899813
Ni 7.785622510401135 8.660839090737776 7.1361079746404 0.14615950140961922 0.3314810177306807 -1.1054578883797286
Ni 6.826129283095736 0.7242776458505161 0.4984234351064693 -0.47846661458602113 -0.5774651420391216 -0.3472547356251697
Ni 1.821879228375963 6.391114120526454 8.983459279327754 0.21024476192530245 0.5470834444234707 0.5969793008126494
Ni 0.0897393223657587 4.675228982761196 1.4371950517992718 0.008818112512262232 0.7583872437409067 0.21392272499752188
Ni 6.441437002995298 1.9786463972192336 6.826013132588695 0.1194673368304136 -0.027844275905777854 0.9831525678798875
Ni 3.4655349578096657 4.267711777440052 0.3443709467184424 -0.10777318832193698 0.5112720911518163 0.2945790024980088
Ni 5.852283814842881 5.403951861582702 4.504104170621303 0.42812801423246916 1.1144024991675259 1.7827533097446264
Ni 5.221991737801549 2.7165892852817666 9.537863657261525 -0.1134265299529724 -0.2417358905550482 -1.5536734173906919
P 0.22126401473713742 5.517077053090763 12.46658608680062 -0.20717974984673354 -0.7537952534948501 -0.9046812138458614
P 3.9677373361568176 6.1328188030486 12.512828394867089 0.006404875085079291 0.27611822468965996 0.04792844825016262
P 2.47812058923823 8.584710987092388 1.2198585449048447 -0.32400322129639686 0.602057229556189 -0.14339248018744336
P 6.211783140005437 7.592371476865834 5.827057545418483 -0.007068991031639439 0.5939870509535448 -0.06284778856415628
P 4.733817459451974 1.1357718805483794 12.54092421208945 0.3807101870701379 -0.8188698745069961 -0.13442781479498783
P 3.9023058838574634 6.044526409867444 8.157097042878695 -0.28449873544387133 0.7922075347244615 -0.3415579423507085
P 4.760784185698922 0.9794278957230075 3.956025043167826 0.12666385457885282 -0.3279596348409836 -1.2564734323300684
P 0.22056260973725852 5.657718209677513 3.4926943678434856 -0.4676810939347429 -0.20599035752432265 -0.19209277360662402
Ni 1.4735897777300846 1.2913595364906982 2.523099647991694 0.31551112466498565 -0.07323967332144161 0.19181406602394063
Ni 1.9887037705807828 6.37358349748712 4.568479463658965 0.11088628002962195 2.153547780362949 2.1602285348172345
Ni 5.721168800616489 5.48370854308369 9.237652413006572 2.21606055418519 -0.9328229663873999 -0.367488031952909
Ni 8.629217340293943 2.335300485155067 10.219041361476352 0.5603032855478544 0.597810281354377 -0.055811707652981296
Ni 2.2929820833651995 5.233624796336126 6.812479347539685 -0.510284016206934 -0.19374316472585343 1.0210046057306545
Ni 0.4873189063985028 -0.12743691483678304 8.966261801153575 0.7067142408466475 0.07904985224531548 0.6901720202172501
Ni 1.4204756815261645 0.9165445514463203 11.459407223810262 -0.30896046803066146 0.8991433147467676 -0.3916638578681642
Ni 3.8461664721213316 6.875695836681527 1.600392816931547 1.38023579699141 0.3355829557141963 -0.9366811637912256
Ni 5.670233651908983 7.815083321179101 8.175836891739387 -1.3052223195989974 -0.1861599530619568 -1.035877409077429
Ni 5.125046582041657 2.877975462660825 4.910425655994001 0.28418711774072347 -0.523966141679717 -0.14984594912227098
Ni 0.6347670229327282 7.288984551693586 6.4766999367761136 -0.13157877538196694 0.43799230862105853 0.9465955946914602
Ni 4.9894566219238685 4.391083424530426 7.1404568657179555 0.004787651196630465 -0.4081466860145358 -0.741388138079749
Ni 7.996494206128514 6.990216635057125 9.07322831461392 0.5809515579258253 -0.10222757591335943 0.4729721671303532
Ni 4.732034684227636 0.26763958074966676 10.272492204111538 -0.22031217346363346 0.11474087788902175 0.6773517285241302
Ni 7.970896075003281 7.262206907667402 4.589853858128958 0.6030923556889227 -0.5779659929349401 0.3573195760603395
Ni 7.045860831453164 6.032010967635973 6.983900388492107 0.12508494012750718 -0.2743153671529663 -0.7093820174867976
Ni 2.2732815167447256 5.321818146449263 2.6464739962566495 0.09963513259583485 -1.8245458203003804 -2.169454681401193
Ni 2.505654562147467 5.215770032346911 11.172084183879143 -0.7831821912973995 -0.02801653981758401 0.977272969170659
Ni 1.19184826487759 3.2460825308257455 3.886655278327433 -0.3657419957960798 1.2864398967851713 -0.8459528467667172
Ni 3.535000164151968 2.7403146020299154 2.8676155577460545 0.11770304584113922 -0.6036065763211799 -0.20675217539101168
Ni 1.019999537949633 3.3756848872860314 8.24408656951964 0.7189136111263167 -0.1277570876430316 -0.4671861565761954
Ni 3.440774190804956 2.361690960824449 7.156033639142736 0.7179869855469893 0.6449884817020762 -0.2478165495314893
Ni 3.9755437306997568 6.909568565943969 6.15979183203624 0.6226990741762566 -0.6283130779289243 -1.0547377363170414
Ni 0.7554780130595047 7.251402209338075 11.237553452622649 -0.42906903798949975 0.22617943087768788 -0.2178595981580829
P 0.14238431458388048 5.5936643564151485 7.838871665334171 0.43961776003962355 -0.2762984590212661 0.2333921465760432
P 8.374757690723001 1.8016924503306693 8.037083856185687 0.6078959477251531 -0.6912814512313449 -0.78125952035339
P 1.8809989360679347 3.243588446294726 10.33681437404908 -0.8583154820971283 -0.7826386600891038 -0.4590997800236351
P 4.039732642691238 6.2805820566174315 3.720913907130128 -0.857113234258911 0.570087875738444 0.07984072357772701
P 6.916879745146814 3.9227627793609905 10.341558537007183 0.8400467656949274 0.28574392070488214 -0.5374988860588291
P 6.310358004430003 7.708395929092264 10.213928037992 0.2762429231929823 -0.9666183176702902 1.3735378161459442
P 2.3334276707779833 8.474214938844463 5.896927927948136 0.7423026794742184 0.11339567671503696 -0.6756144341180493
P 6.947276963113324 3.9292185866127642 1.7256642901448274 -0.6273219176602487 1.636917510223013 -0.6682806194607975
Ni 5.473966306756746 2.9434429306212766 0.5053483463440409 -0.6890618178722068 0.026265875675064443 -0.6967730704735355
Ni 1.3282755891159013 1.0816043262573498 7.0191516171830655 -0.35677630196235977 0.10165884789408297 -0.25901293246794105
Ni 7.139024342797792 0.5007689550354609 9.271664702955768 -0.998763534944267 0.9642523885412749 0.3714159062524055
Ni 2.7552250857243883 1.344608691423735 9.260410709254247 -0.5654987137058648 1.2520848163440694 0.4903787926425749
Ni 6.286443605461091 2.0793641934791167 2.6117098793820377 -0.21063788359866306 -0.9296052307810507 1.3937605709507221
Ni 4.1880451350918095 6.72094554485973 10.25463563933927 -1.2048783338615958 1.8903958860259702 0.98741674247288
Ni 8.262478867250737 7.05106509448179 0.4521289043314099 -0.07246782815242357 0.8872159671815625 0.052236074486581
Ni 7.633069173906301 3.9939027139443395 8.046677527910603 -0.4610101096724705 -0.8195337333432402 0.5660281038467736
Ni 3.092484740159078 8.306156860247045 12.159285159658575 0.6535577114283261 -0.35902036080153005 1.371110437651374
Ni 0.16238561197452095 4.88294930814252 10.16636845712088 -0.39041892971746955 -0.4240317326759085 0.10146010161971558
Ni 8.776737488150363 2.6737216446601595 5.89613738418704 -0.7014740754936307 -0.456726137585136 -0.03850278406088853
Ni 3.6184934704918486 2.728528476935674 11.505347000323509 0.01966945340446935 -0.12188494513297074 -0.8225213552166544
Ni 1.1535005897237514 3.4139425232871257 12.494536940987064 -0.10862370924769035 0.18950367272320912 -0.17821987227927372
Ni 3.0530385873417574 8.38891184553442 7.9729201551569755 0.4378200447092524 -0.6305170275587786 0.2983816640735506
Ni 5.815862977557773 7.688065088402579 3.5568850806180214 -1.7706562693707764 1.4295801517524929 -0.4551312822941903
Ni 3.0172570280411337 8.480634730435138 3.328007355124818 1.1279326724434768 -0.29903832382094303 1.2122442873083639
Ni 3.438640262884914 4.2004795420858105 9.119839783206638 -0.3653283052974289 -0.5557190086112817 -0.07472911338277452
Ni 7.308288946041985 6.081766603442527 11.407301566117079 -0.27103952461517195 -0.245400483890829 -0.16206460267564993
Ni 0.5402349164663852 0.3272157869460523 0.6304028251992072 -0.6585505366572271 -1.4050145465979866 -1.0172407678128481
Ni 4.533633411155356 0.6127110320764605 1.5524901868884726 0.1588797771897651 -0.8165790215902905 0.42797451937374037
Ni 5.893098562781916 5.592673925734959 0.42974607135068016 0.02839834863703496 -0.03691358519689771 0.09439882389756
Ni 7.823691064181466 8.794403169918816 11.617347602813792 0.3956794067854605 -0.7431475439730169 -0.4567294800192457
Ni 0.10175954925713576 5.1309441465464145 5.6037271321258615 -0.6433928550801823 -1.0363697753328152 0.04884684629937394
Ni 7.881910380345993 8.926382560011552 2.5915996346165766 0.1392234364114183 -0.12204178242580915 -0.4555951093044863
P 8.617665316996836 1.6865503818011336 3.74244677050895 -0.6923083498339626 -0.1897666965766087 0.037101275727671586
P 1.869500936262475 3.3360496522479473 1.537071882372522 -0.3501721663822808 -0.06801724858023771 0.47987352223587687
P 4.883597590042281 0.9378208032398214 8.181687635884717 -0.12895470749555854 0.8994171372334445 0.23059015835087385
P 8.575130821240384 1.6731075362963952 12.381916869125899 -0.7792584307629612 0.041852160149095666 0.28804685780644584
P 6.2813473894157585 7.622003362034015 1.2603437495448357 0.0035144409111616893 1.158908551999701 0.41480455765068563
P 1.9380567471620591 3.3029152440380094 5.872311223587817 -0.42457115011914626 -0.5150881224637968 1.2678605911210874
P 6.773222276943128 4.013270135699659 5.860187451670784 0.5461624752710981 -0.32767809904482276 1.4271149780414518
P 2.3136730806658625 8.37148926947838 10.194952286551116 0.1059783012050433 -0.2478270910544506 -1.5529913037220027
