# total energy = -381174.93525122816 ev
CRYSTAL
PRIMVEC
9.17385721220927 0.00000000000000 0.00000000000000
0.00000000000000 9.17385721220927 0.00000000000000
0.00000000000000 0.00000000000000 13.42686733776585
PRIMCOORD
 96 1
Ni 0.22311921962012224 0.9800890510384257 0.8056224665404749 0.6819843422001352 -0.007837236656231664 0.1880044624698633
Ni 7.839317981988709 6.718336829617873 8.366616624860495 -0.4552611230038353 0.004040231507644655 -0.15484803032255268
Ni 3.3135697568018556 8.077783230200371 12.240147626278105 0.022413591808509787 -0.7254817512621375 0.6545337021883502
Ni 8.113533752331664 0.8754832251071227 2.907507308483291 -0.05481669072956366 0.9795039153837066 0.5433376042277933
Ni 6.7379505366532095 1.1390903467991595 10.844612188227735 -0.9809601882142589 0.7833711673797541 1.4091583935630312
Ni -0.08431967515149044 0.1517704613897085 11.516855025227771 -1.0326169931586024 -2.746151577815722 -0.04773715817496295
Ni 2.5350762212458973 6.8798609361525624 5.700537720516092 0.13257893451170716 -0.22225052813692692 -0.26276288642867657
Ni 7.8143008729684285 9.000324674020526 7.546181130841086 1.1021290811168116 1.08089176900459 -0.26151050207881416
Ni 0.6281587828430646 3.615921747667437 0.39537398710861577 0.7492235749637677 -0.0886711773851634 0.49002706573011096
Ni 5.445161383647303 4.1494732917156885 9.88064343934202 -0.8830654353482985 -0.4216303223232674 -0.5953466503052327
Ni 4.008883927676151 5.579301525962872 11.432010605435298 -0.211555510316926 2.5855753867601408 0.4390171503411472
Ni 0.5189797890178818 6.054516511059905 12.973657152270093 0.09942121681281588 -1.405298910607625 1.5406001291465015
Ni 2.414173955100576 1.6296256736871237 12.816052117599526 -1.6816945573283877 0.29433114815326084 0.07082617878394254
Ni 4.554774309873386 3.3524302165781346 6.806992069757624 1.1839783504841352 -0.6460783723321454 -0.1364762126835843
Ni 0.9333115523606054 5.834206326563366 2.288959058610394 -1.0194406036776444 -1.5080893010029899 -0.8601720756898927
Ni 5.622354438552599 4.9828081465687655 2.750802229219725 1.141073580700809 -0.2842490813269104 1.8771477627668123
Ni 4.043359283634427 2.1240231945235806 4.988900505241435 -0.08818292489483523 -0.2559623185670753 -0.14389641640705542
Ni 0.3100497745762229 8.113423666043348 9.077985963500245 0.7716677628998968 0.6599142497739732 0.7655325965364365
Ni 3.6854687603123786 3.4157665277904647 11.331940334582699 -0.28238297465244916 -1.7813068071060871 0.3496268354017721
Ni 6.680531363437976 2.8856460063947944 3.734481928028792 0.870757564515223 0.06985764422308614 0.6314099716866932
Ni 6.184124767839714 7.929946518846562 6.214948011183038 0.5392865740868712 0.06326893526197491 0.9780401863539865
Ni 7.085557165874879 0.48688871858742816 13.38247817949676 -1.7193218807628583 2.4287833453373397 0.16294314862586132
Ni 7.7164983796551825 4.418881960802087 7.713305877293958 -0.8269559939492404 -0.5112677202764421 -0.8683854647386205
Ni 2.0181110113042364 6.454359084088498 7.903738643140973 -0.7278944744686884 -0.5211590112482251 0.9994847293810079
P 7.358983984484887 8.55325508330348 10.010696628203782 0.9049627496420221 -2.3529849101497864 -0.9085885193200673
Ni 0.11644652362564747 7.279235642455804 3.9976615479678603 0.4868005883730132 1.3797624568994173 1.3436649398459117
P 1.731473838096059 8.778776018780407 4.787255450929225 -0.6175774366789751 0.3287739032121628 1.1375218587938087
Ni 4.728371212693624 8.649020980282842 0.6451753708598305 0.8268611202425888 1.126337302931899 -0.33404517891343116
P 0.4589800097273252 5.1605424590582905 6.683666070497833 -0.2920348959199164 0.5332910186250687 0.2276580723057434
P 6.097771248511547 5.877809670594682 7.422103792663525 -0.9427880480199118 0.29648881792621196 -0.6351750951560803
P 3.552677175028706 6.672229022527321 9.51512393623953 -0.8676920382160218 -0.889766244407242 -0.24033721043530865
Ni 6.109972478800133 5.542101534368724 12.11906371775706 0.7382367369349608 -0.35858944391169856 -0.17510575213032425
Ni 4.828907515500102 7.122784679041105 2.3747566421825548 0.4469924552371399 0.4125831245193346 -0.07171809447059262
Ni 5.888166955553941 7.87810505090611 12.091632966865404 0.30224500368369883 0.5002672554008804 -0.7806044032678944
Ni 7.98257693851996 5.415337173370466 3.689796986214751 -0.6556408192095999 -1.7804064067790046 -1.1395982817068633
Ni 1.1598232644323963 0.9300915284273018 3.156535336059071 1.7831235485998518 0.9858136596518184 0.7990371560517852
Ni 2.64276813279305 2.8535742010647964 1.367553338331388 -0.01351628931887995 -0.4307363983895937 0.6829721600347012
Ni 2.8485377533742446 2.6754362388514377 8.65630135348361 1.5638375024078874 -0.16274440235149393 -0.6991032612686089
Ni 1.6883475346474548 2.440466230293875 10.567213089380916 -1.8197900507829499 1.1422555168240522 1.13650498749352
Ni 5.8424994936166605 0.22322013205108046 8.556566845810382 -0.815750355041408 -0.745482876974413 0.9941129235461331
Ni 1.977434127770709 0.17287033331733875 10.688162142198774 1.3209667269174477 -0.5850840920369601 0.679880665593571
Ni 5.941512936101406 0.9153509744215121 2.229477602260668 -0.5824893347265904 -0.04789425257811751 -2.2132768207924656
Ni 2.72952530184505 4.7797539877660835 13.287980109604527 -0.33809183817897903 0.19905146431264428 -0.06016535663598671
Ni 6.916189411297526 7.511811274242449 4.037969642435522 -0.4497962432345221 -0.19243987253339762 -0.41750858684541
Ni 1.823184890122372 8.906797198236964 7.20128537646925 1.35780960677741 1.157067127915588 0.2723834402375761
Ni 8.50467033472577 6.286679319265357 10.673621578283427 -1.3727094067073777 -0.28343918383110545 0.014258052580910929
Ni 5.880937955954387 3.09816758599283 12.06418845518771 1.1513734199649204 -0.09176884247388066 0.570004057775386
Ni 8.14282587888163 4.382177357505371 12.344608505263123 -1.320687505114132 0.1943185776133492 1.7118679955879745
Ni 0.2550057130314515 3.2153636137647768 3.192264758318437 -0.4830827732017938 -0.43666047718351253 -0.4828644865434006
Ni 4.00331539625873 8.809701091940425 5.544437198452539 -1.1577818945944256 0.997097974316386 -2.6017211432820675
Ni 7.441704656298557 2.7757890645107195 1.0227181314181268 -0.6883959021534338 -0.5838345359005752 0.02861869217795716
Ni 0.32348855822265143 7.477822132724245 6.461519279757853 -0.2569917882728542 0.288610957840032 0.35877276356709825
Ni 8.803371130362137 2.054063358297446 12.372724543299558 -0.7978063689684776 2.5526218146522557 -1.0802425654563652
Ni 4.905417485881161 4.223506320609591 0.7646630282002645 0.03161197047832621 -0.057477268280862304 -1.0286127570952157
Ni 0.3005997841098525 2.151086073735106 7.318286918465168 -0.7984180344105476 -0.10528050380707031 1.2288245602645484
Ni 8.54410874751572 1.6728253679946068 9.595484174554512 0.9639775376133334 -0.04619063962344948 -0.5663636328093213
P 7.306959039397239 8.286653614569191 2.1558317101473508 0.05849413958115088 -0.728759393572145 -2.3373358907586197
Ni 2.424430327628876 4.860126152095635 9.941400061864762 -0.8324946643792824 -0.21947810759811232 -0.4414373297468655
P 6.698383689860223 1.9369957645285376 6.092427476599441 0.5394907196778774 0.15508637158560387 -1.2731069271216915
Ni 2.5914404008647494 7.470730740985089 3.3451296608911747 0.4595682350196214 -0.5867252271848089 0.3350155132465004
P 4.8607041051093045 1.8433673763140184 9.898421457519651 -0.3474354841774081 0.8110817459211451 -1.2315818112947112
P 8.385767969484894 4.514666205496169 1.737530418725025 -0.33779924663922467 1.059291417125995 -0.01922053879250883
P 4.518088054291389 6.475183740295334 13.661837731661377 0.419324042787594 -0.5897634997905004 -0.9529845289369394
Ni 4.125841435156742 5.096885062838366 8.060981310445825 -0.0368837604002268 1.1563009391735246 0.14544524895141403
Ni 2.178644341244063 3.9103475257741183 6.74098616605358 -0.3461946697917715 0.139380787924889 -0.038979209476674805
Ni 7.596256631239769 3.7586853159012557 10.250554467962665 0.4088642809068507 -0.18272778745195625 -0.575480250398609
Ni 4.018085306608071 0.9761351185163349 7.280759420163274 -0.22588529667603677 1.3597158226611874 0.9724272110425833
Ni 2.478656998482886 6.92504218364977 1.06213727910762 1.6218194782393098 0.22019595960074337 -1.3675995962846383
Ni 6.605195646798976 2.37115773794029 8.19204087145996 -0.135057992179819 0.47257338903003776 0.20723502856470116
Ni 1.3793169756239099 7.098162045887298 11.188796968654184 1.4981789838678135 -0.1468074194062633 -1.3999996098818985
Ni 6.965746588755377 5.905056026953405 0.8101369217472517 0.04576152250583086 0.1047158895528519 0.9469383227428596
Ni 5.920413064173775 0.5346991936039663 4.416271080997476 0.45465331421650734 0.5297632079774682 1.7434709672052362
Ni 4.735976340444931 6.835376901814702 4.673999594893329 -0.17219012114542603 -1.1216980043876745 -0.1863065059421501
Ni 1.6846046008446403 1.737574453240352 5.6157602698823466 1.0795830774954955 -0.16044789300783335 -1.7406743782967056
Ni 3.278764141978626 5.089830366528649 2.45684798738134 -0.5920458680667738 -0.45252906878465293 0.06740686868974843
Ni 0.393534628707968 4.131327401857925 8.926798959438623 1.1659263780784308 -0.19810298435644594 -0.031146086585501196
Ni 1.213536199274255 5.141075533740712 4.44645490648282 -0.09623459155471814 -0.6067870309316905 1.287934221942511
Ni 8.095103472895747 7.802640900264072 13.273076260937733 1.0391540229461718 -1.221038488561226 0.6130029299344152
Ni 8.606766193283422 0.681206613026335 5.378158281648246 -0.4513365911384485 0.0003000477389220639 -0.16968535244570132
Ni 6.124237826994684 4.8177245833784585 5.378829808006986 -1.1655574247747862 -0.8439810677523272 -0.22103311079005802
Ni 4.553948662711 2.683234017607301 2.781040180463491 -0.41940657519907126 1.097365341179581 -0.5604732354668153
Ni 3.6643321929553094 0.4829815727378726 3.0640784494294033 1.280601949947156 0.054965557602602105 2.457358071651239
Ni 8.583189379868635 3.480965132046842 5.4886216155038055 -0.5671745587463909 0.010473131617181964 -0.09778882341571546
Ni 0.6666642143395178 8.182502811962935 1.9811211010436285 -1.7342877580440712 -0.6187290337849151 -1.1712583318143055
Ni 3.4836805938253548 4.800119951104927 4.851409152832316 1.4050945079063026 -1.2385240469404992 -0.0136597568752797
Ni 4.275201006832285 1.070121287167888 11.794442188150466 1.4750205434734789 -0.5445969305561912 0.4639370535112784
Ni 4.218460699061679 7.79141209885563 7.476939607646228 -0.5200205267684077 -1.652147182688574 2.0270741874180316
Ni 4.075963172691296 8.531531389075381 10.00685645151295 0.8630640525257073 1.5779824264497015 0.1251124509313329
P 1.2372506205494394 8.137954560623557 13.161659763302486 -0.6320943993482275 1.2312827919970535 -0.41048793255320276
Ni 2.6276037465772357 0.1969507915011808 1.2802842680387094 -1.624114444921074 0.21197974233853817 -2.2678538847073977
P 5.005623529822685 2.088612105114601 0.3582996773602974 0.006842219732814023 -1.0971768793178587 0.7015571221257402
Ni 7.845189250699008 6.23229669283623 5.796754971277559 -0.2560818748640751 -0.8587327721402049 0.8560048316860808
P 1.30969657212009 0.9746948229108402 8.915494015014092 0.10888801865267052 0.6767369777582668 -1.5060445026588192
P 0.6609626619903778 4.321033598202042 11.154101440119272 0.14837296412117026 0.7018065191323849 -0.09475543590603036
P 2.3619563590083708 3.012942451119924 3.6567940343627288 0.8836858425411167 0.3551210257471239 0.36673624138854904
Ni 5.75921004264668 6.621882893336524 9.906974244736231 0.5917843868752711 0.37496788526972197 -0.7273676554309407
