# total energy = -340875.01963958045 ev
CRYSTAL
PRIMVEC
9.15041031847164 0.00000000000000 0.00000000000000

0.00000000000000 9.15041031847164 0.00000000000000

0.00000000000000 0.00000000000000 13.39255043873116

PRIMCOORD
 96 1
Ni 4.818120958972587 4.47703027406381 10.256965473723634 -1.1214172399224622 0.1956519517127921 1.754539823424888
Ni 5.743419573326609 1.0114771761758605 5.436304360922024 1.569743069259045 -0.27478253659737195 0.1459962363588776
Ni 5.54600862697448 8.227371583841872 0.6817906473085521 -0.3278249090353322 0.08573934845034913 0.005742558910732045
Ni 3.937101178835584 5.086191371706988 8.106564210238492 -1.2319901024767235 -2.6849189562574853 -0.8486903003025382
Ni 8.687454201000724 5.794725922459658 2.0405295449288294 0.047299813527228216 1.3577743826641002 1.1820489946719062
Ni 8.654750635493052 1.2877372059022503 2.6724568627687315 -0.3612078553711521 -0.2153679420844807 -0.21021365157705083
Ni 7.926048580996984 3.69208064900936 1.8248818313531998 -0.9631283022391606 -1.7438995701022222 -0.4520202474690344
Ni 1.9121520370936356 2.5814679303852297 4.529949840488129 -0.29027523291633234 0.7726352690194888 -2.12356511795793
Ni 8.174518815410895 7.7878316372383445 3.420872560669871 -0.6081152628248108 0.12390480377647692 -0.5083379482241568
Ni 3.6370043309369824 3.7432497419917046 6.124038199556047 0.4191767185764523 0.8983200475145239 0.7358528100838165
Ni 8.357563617989369 2.3643653016121404 5.658030691891818 0.4984602840991286 -2.281654538035916 -0.06827924399237273
Ni 3.022279783985279 7.920174017746866 2.440953318663809 -0.7458423171963607 0.3029001207691945 -1.0957689432267386
Ni 1.2485002476210818 3.6204329383420206 2.2164132366045877 -0.7849585664715321 -0.3890919833759299 0.5165999311226328
Ni 6.096698604417876 5.793463165873183 0.8698700054948381 -0.05634726844147715 0.4794269216167614 0.38559991106227137
Ni 3.3494435448026536 8.024726602942907 11.178828109105039 0.05879187332722778 0.28902182012520544 0.2719622935397574
Ni 6.896371239237811 2.8892968747734735 10.489848899663633 0.814240860375417 0.3334191152936581 0.7347024985294573
Ni 1.5566494563609679 4.178864162685107 -0.18956446973690022 -1.9471614729517888 0.30198763625725406 0.07476279483418737
Ni 1.0369061656962353 0.12845071111556897 10.362325125085814 0.5790545980134285 0.769464584600991 0.3869340564926626
Ni 6.331983097954184 5.309754189973199 5.494802932351947 -1.073451253566145 0.6626843563199426 -0.9266875429136233
Ni 7.77476485169135 7.405097436206059 -0.12406400453907825 0.08266559462103183 -0.2664663034221927 0.9267705895457329
Ni 4.510520774835516 6.30121026896641 3.4706526214070945 0.09796597242352806 -2.440780626908532 0.025707432068433147
Ni 6.86357616962967 1.2412439724538786 13.56102847493962 -1.4778130186169516 0.08256737848027071 0.05029592004107467
Ni 3.348839617739557 1.1531346741121409 5.454865967702189 0.2822091680787462 -0.34555369377366296 0.5542041146286519
Ni 6.967945746624775 3.3833275132063774 4.042514817617041 -0.7444410659734599 1.174300718185055 0.5098705828185993
P 6.144610151423519 9.024948774761064 7.656788614956484 0.0367174100256916 -0.5042668634785766 -0.6927976307655552
P 2.217858086350996 2.338149376827731 7.017896920029876 -0.5799480563619754 -0.19722932350224098 1.1112109888134216
P 5.87597241326621 3.1291382725131447 6.094213353049135 -0.5602053265174093 -0.4423048199534834 0.6432511872959954
P 8.350362245282447 8.678889417196812 9.308224423870424 0.8276653613114391 0.217967841601173 -0.6842620824907183
P 9.28354851309691 5.993820544260418 6.859235215103414 0.2636882264564233 -0.8619883029630252 -0.666900194173503
P 5.900413158501517 3.6728922391409804 0.11534183368235952 0.7141825241992346 -0.3710220132480965 1.4615757308224828
P 4.36090242015842 6.099242418410919 6.052187349785666 -0.09335778422755535 0.1417737136370978 -0.669827138012311
P 2.4450170157656435 8.764738564256962 6.579612409684784 -1.9682853994145972 -0.1359563356243723 0.11306297596596657
Ni 3.361037114332094 0.2835291154676585 9.16140151946266 -0.9512233232714585 0.2077500205279067 0.7581396465064749
Ni 5.429606260767683 4.0011540491639845 2.308299824213692 -0.08205521473054256 0.5586888898728829 0.10181491385597304
Ni 0.6046298145879473 2.5859516313082174 11.067054020299972 0.14281012532141213 -0.6741478768748519 0.9380433342460748
Ni 1.8876197877578584 0.9630257549774492 1.9298800415185273 -0.3267982675430307 1.2856022313752247 -1.6541726977590352
Ni 4.603690249933198 2.793592736092797 4.2763883179241144 -0.38252564301232184 0.06031422350902516 -1.2760030177225636
Ni 6.855505507968292 4.906843334787468 11.93801200954939 -1.223559455210867 1.8945394758806984 -0.45182175830498317
Ni 5.740839157693379 6.26965965512465 7.767665963576953 2.1484413123743193 0.6156560512865462 0.7440137486280541
Ni 3.3390486789893585 3.3286812644062045 1.348241547214457 1.525360943599244 0.28596220736327527 -0.2952040376765174
Ni 2.225590182840638 5.710816662329453 4.692414455830088 0.7053042478729983 -0.9310170235269127 -2.339359091836236
Ni 2.924315494023015 1.1938539988209096 11.610389813188664 -0.0859514644611552 -0.27857877041501056 0.08530946000178212
Ni 0.4041617162391439 7.8956326180010405 5.452883988886027 1.237532372451191 -0.3775670134554659 0.6068867897343484
Ni 5.268851857063492 8.383395225551808 3.0767512599535554 1.2469783483554395 2.334791012849579 -2.048840632560846
Ni 2.32898981637077 6.321935947722672 6.761911453844434 0.4065639149084481 1.335757512073377 1.6846433555440665
Ni 8.14063484700717 6.114505302369171 8.810851140647381 0.04212341153261133 -0.4551343676179839 -0.4515502498111514
Ni 2.12612522563068 5.709297694261665 1.5233492841182374 0.03584786293654471 0.5441883822638628 1.1134331932757213
Ni 2.491501098803968 8.537469829921752 -0.1678578670236101 -0.20512312442802094 0.5600333197159194 1.7027531777708997
Ni 7.254728747905116 1.3992166515038071 8.728969611383574 -1.55902773972407 0.4606833224606711 1.03290469960235
Ni 8.011833675186805 3.14042072810099 12.671709272890066 0.7831760206498125 -1.4691694840093408 0.8257725151641003
Ni 5.946997896050359 3.740275858726457 8.466783827350342 0.31273279058890013 -0.7202333583790047 -1.6422844309618816
Ni 3.5739671561237896 6.810073722085363 9.347343341861986 0.40607874774191355 1.1459833592976005 -0.004797678498959479
Ni 7.626875924513121 4.068757278590587 6.876780211327367 1.8902866141416155 1.3215578235342271 1.5129813389879685
Ni 1.3589731481174783 0.34476548958361847 3.96233343453995 0.111572250353053 -1.1574723337738064 1.309350482834758
Ni 5.5996208794393505 7.089060574005733 11.857857162661434 -0.8135626033614698 -0.25149759792750237 0.8270500963249435
Ni 1.469510101484203 4.944433219260192 8.478542104260628 -1.0348908767944434 -0.43666561938983506 1.0319500489985647
P 5.066563742156358 0.09421994217106723 12.180203232589108 -0.4779930173837122 0.7368390852564859 -0.008279466399972839
P 7.481237998206433 -0.2566717469389604 1.6557612077431156 -0.5521724289106038 -0.3663197226764207 -0.6093331943923119
P 8.605256067549293 5.08844237257853 13.518172529484898 0.3367813468976716 -0.011234949483870974 -1.7946022386634124
P 6.144573549783332 6.142642813263433 10.013181164294748 -0.24677576697180084 -0.00340491191649091 -0.9863775025750884
P -0.1299623588553192 3.1364036980903944 3.7837833133765204 1.1903076351362727 0.7447686245162076 -0.11440663447805459
P 1.1950527025370552 7.147934312247579 3.5458113444094344 -0.2822559621562816 0.1771135265889724 -1.7176226386835647
P 2.102928936161752 2.216110358032035 0.06814584874238491 -0.4736205993476294 -2.6470124110196993 -1.063022087813021
P 0.421716777914149 8.151221871431453 12.379483607713821 0.7190329103130003 0.2892755880072244 -1.0847921325002607
Ni 4.215657961483749 8.022713512732587 7.391080838096196 0.7747934530130721 0.46296131986157046 -0.8148874928204805
Ni 2.811271328303435 3.5056318938934337 11.33732968185568 -0.0037008458903549173 1.3092113861537322 1.4015772387816636
Ni 4.956502610112072 2.557365750321657 12.006675771500428 0.03041460773611536 -1.1212259498472625 -0.0006551170854956459
Ni 5.907477275057735 7.731126546177616 5.07079489176205 1.0056517774236682 -0.6307419990853911 1.6158023255109526
Ni 0.6977434721843426 2.2606637045504607 8.87184136873308 -1.341942043617534 -0.16113617732410956 -2.063496434800807
Ni 3.5733998307008807 8.079537559123926 4.733128290292829 -1.2762608993696407 -0.4885725926717715 1.3082924738838888
Ni 0.6620587030833861 7.848709315280464 1.419329252786925 -0.21546975776966762 0.5695078348652579 0.09038404631121208
Ni 9.277326234265008 0.8827903844810812 0.1276985474097126 0.27319308062306497 0.5024514075363927 -0.27822164418590795
Ni 2.8117471496258752 2.8883543825386417 9.266426265817124 1.78384422881596 -0.40352847051623403 -1.8939355237481124
Ni 7.938886606292805 0.6218874879364277 11.165208638791212 -0.13624018541337826 0.6521307491738124 0.7483787104649692
Ni 0.9269639889825599 7.961231907627369 7.854703748902198 -0.18585064935165413 -0.4191888027613104 1.36772300923638
Ni 5.975620378677106 1.6927526553987713 2.69762140543875 0.3324940323762273 -1.5359531172927934 -1.0342249610756706
Ni 4.080277644839652 0.9891501756613896 1.0307470246936574 0.6504114524898605 0.23079507527282833 -1.4341618575859043
Ni 1.1970749431574232 4.004722709082281 6.059406108271677 -1.9737343383443104 1.4134351665615144 1.3760796087311915
Ni -0.06104330046397003 4.882988215795162 11.191846397478784 0.6222313905112187 0.2633822651802303 -0.6314428818071577
Ni 5.58604167092973 8.763256197829362 10.021659019203215 0.27649154886867866 0.22324194551591875 -0.4813380225965452
Ni 1.8896603291983203 6.371695877557792 12.516851393420108 -0.0008646619931404464 0.23968363601170975 -0.65917197229131
Ni 4.1085524118846175 4.871202487654737 12.923101233231957 0.07524127713250267 0.600005746343799 -0.08695393758374056
Ni 8.71554595984475 0.6521597894946343 7.310484026402975 1.0119975171360378 -1.124091701430832 -1.8091829646910649
Ni 8.617023494869624 5.569891197196926 4.585609039680495 0.4687493872982572 -0.6495920419123586 0.3234409210350236
Ni 0.9130608559572784 6.990391702469856 10.177735733291422 0.954331529883137 -0.23491989607447927 0.3944614752179594
Ni 7.648361087303275 7.419106713987885 6.737644566400017 -0.9240681030129052 0.7889743724991445 0.4805124413714564
Ni 4.54369101125558 1.6124578072370983 7.5846833837868 0.685147056198833 0.7419656078497738 -0.29723520917393326
Ni 7.7882159544603144 7.297387959543831 10.871697341003376 0.29496338242062103 -0.08531100266367887 0.30578207030267984
P 2.429580274016499 5.498042177508555 10.500696710774248 -0.08241825449691613 -1.1898309526101702 0.6466738398242992
P 4.884827448214592 2.0537454821595875 9.798967319973471 -0.010484187360775492 0.03314717617593001 -0.2819952522957272
P 3.276551378368934 4.292951475150034 3.3080132332332393 -0.29730411473865576 -0.09024237852702523 -0.10519565740274786
P 8.38519785633105 3.932361266431282 9.081314385609051 -0.2685216432893246 -0.9083519778292293 0.797965006033529
P 6.655331137781995 5.829762842529292 3.280237163535831 0.7105333574824214 -0.2933415305464819 -0.3026797772282723
P 3.8169745957396928 6.735314872002073 0.6937154616816908 0.6700608512896719 0.5555963669904884 -0.7585625929765065
P 3.715514849139507 0.926973139392607 3.1452942364919765 0.475783154216587 -0.3948134592407394 1.3053632160522357
P 7.761084988671214 9.092323243936494 5.02246059581224 -0.27895929368288086 1.3300476061727933 1.3949867300483396
