# total energy = -340875.57121174637 ev
CRYSTAL
PRIMVEC
9.17727389101114 0.00000000000000 0.00000000000000

0.00000000000000 9.17727389101114 0.00000000000000

0.00000000000000 0.00000000000000 13.43186799255450

PRIMCOORD
 96 1
Ni 1.5460494185700626 0.7328254971747268 3.7137774544689264 -0.27533275267388707 -0.20568002537275545 0.24927410791362228
Ni 8.676194582353231 6.631966036738043 0.42403226168796077 1.2249198258935035 -0.7565782155566261 -0.434355997420052
Ni 3.2940631000699407 1.5957810649015332 2.0316777060649183 -0.6611771756467968 -0.23430745930146102 -1.1020691744131534
Ni 3.9296902557377718 0.6072519430285479 4.129976913030127 -0.09605024345805394 -1.7519445518938859 0.8108110087582616
Ni 0.044164712088128506 2.662336285736466 6.229270018740068 0.5384193409905695 0.6628743608435615 0.7631419848170727
Ni 3.261447069240997 6.163796594783137 12.805996209455156 1.907536659471315 0.4083626586800838 0.01604008418199818
Ni 1.2099776546544974 2.0886557277319358 12.998958484585279 0.38732434995254583 -1.331167064489217 0.5839137258779428
Ni 7.552813682595165 6.949903507767285 6.868936092575546 -0.08419720077420983 0.7894381995094404 0.32761999211337767
Ni 3.8212699439164037 1.8883800831680533 12.77495499879792 -0.6763469414086997 -0.021325758060969726 0.16134520801112212
Ni 6.888232228315821 4.566730711559699 0.4857044588667972 -0.9850482422407035 0.4673969870354208 0.08233932162986465
Ni 3.9992815224164096 1.3861904875038358 8.272741439272705 -1.0550663233010538 -1.3751815223969541 -0.17180162745775573
Ni 6.4997031677715995 1.550803246361113 9.04311208099563 -0.26197252931689724 -0.43070580226197436 -0.7191830627376194
Ni 5.852228151721055 0.8356063742903023 13.194527105454123 0.6583340497710468 0.0053512370095843325 0.22253129260213936
Ni 0.06587263536409459 9.028069611628235 13.277965042733411 0.7516141866831313 0.1702129428143972 -0.05654164384047037
Ni 5.545808159220323 4.986563452789773 3.9826963533353554 -0.7049476358645279 0.9214610044073613 0.1439900045621262
Ni 7.147517742950077 1.3574839752829757 6.5005401351355845 0.12416859896082488 0.214754733980514 1.9089296831640994
Ni 5.647171147544938 2.861675848380103 10.781827348754403 -0.10040003578631741 -0.031202907965365616 0.9966696285297157
Ni 7.7478491038604185 1.1394044196869744 11.444622905566298 -0.08639883641121894 0.30523725354280334 -0.4073437304972662
Ni 5.574826698747931 0.8701083348703287 2.3643979296150555 1.3566058162772958 -0.9591124962115484 -0.37356406294365985
Ni 5.8953062745998 4.94971669877227 9.073038252894927 1.883399142993163 0.5383139257609568 1.059369578662098
Ni 8.493089616934244 4.338271659377446 4.438318626649481 1.8580889463631483 -2.392957850998298 -1.5627506971016119
Ni 6.6582130395998265 7.306642492118072 1.3451075039335347 -0.4576041693147151 0.0691027683349326 1.7477634239330029
Ni 7.4243777367732555 5.786564758197956 11.779842100752541 -0.12558450547174502 -1.3948689735235524 -0.34436121612745857
Ni 7.8397503229715735 2.384953187310798 0.22369329393535572 -0.44943474613004536 -1.5534445892093376 -0.5015993439487426
P 7.560898860749441 0.17459579721848295 1.257374602549591 -0.3080143020673083 0.6318817691167892 -0.533655858163655
P 0.10315989852053756 8.447065589188842 4.767090787041878 1.3586485577389376 0.04952407487205664 -1.4087552445873415
P 2.421625573127472 0.2940747238819658 0.44284291964803 -0.0021149894604737766 0.08116664147800215 0.18099203570777217
P 5.381259641279141 2.767471133563247 1.1871886485333851 -0.4156442799431616 -0.09024417829923813 -0.1307825047329167
P 1.2389044214448268 6.153462984565525 12.441562998810902 -1.2580819144677688 0.1133213718336758 -0.5352746247140008
P 1.2850661082961456 1.5060456823901625 7.683068564069944 1.008785180846327 0.45586250403326006 -0.3422374849162364
P 7.472879628425187 3.5174195880594823 11.844113301851118 0.26544171881242024 -0.17897114862300145 0.2646765585116216
P 2.7301838704068038 6.292149945141495 2.720584442087424 0.5129898451738714 0.49051223289664553 0.4792225189154392
Ni 1.9211888367452827 7.2229274011722016 0.8913601476420183 -0.9267878159369135 1.5784102580157398 0.9309602021470482
Ni 0.459529956467464 4.981947284104642 10.425130579862763 -0.550914902354419 0.599504124117032 -0.6164397235301061
Ni 4.537914072054104 2.1767759100671964 6.036778537752187 0.32419759669539006 -0.6825096185759859 -0.06049291517873453
Ni 2.5435273000551195 0.2847451074101864 6.107684907756033 -0.2818677255789274 0.8019417312930898 1.481968692656538
Ni 4.922900704939356 5.930436878430188 10.910612030977973 0.4313498636038765 0.3650894498137454 1.008814748532682
Ni 6.433948001511222 7.741452544072075 10.338804554541307 0.7361292036736548 1.0668160076378144 -1.0389038546085785
Ni 4.274489606968566 8.162046999021566 0.7405481730167516 -0.32815992377724773 0.24117564717620402 0.5834861514222209
Ni 8.930808864659989 0.8364066325593748 9.095537257166237 -0.4835483999843027 0.12434086287263102 0.24895709089383575
Ni 7.553768119062866 6.2001018896506945 4.764162318995306 -0.6882028123060211 0.7810368628196227 -1.0379448331294188
Ni 4.8851270462753345 7.48695756632378 3.3040241129742 -0.5809721267511156 0.6687868696732546 0.5644800426333634
Ni 1.94480196204716 4.450950226208557 6.75155509068626 -0.6157010455918687 -0.3782866652303098 0.42235460208380166
Ni 7.090141427603269 3.178530401109453 2.873721020147967 -1.2219370891160954 -0.4704342311998479 -0.8866469820519698
Ni 3.2667148243608097 4.077123158176427 2.3080513043805175 0.32691730961939824 -0.497601278532943 0.24445046127273387
Ni 2.965369864231604 1.2175030191113725 10.300818900854171 0.2535133428059505 0.9228460576803461 1.76404930557722
Ni 4.7021872717834485 8.06016090609446 11.810587803195741 1.9272583062699582 0.6497712478027002 5.477229292017458
Ni 7.225313492341455 8.366700203153655 4.296935383052255 -1.6843111690156285 1.5826762323809453 -0.4650356858920959
Ni 5.528426402779687 7.2361793844352835 8.226307187391669 -0.18291856330652367 -0.13910285167315398 -0.7625136072044545
Ni 3.965041114137628 8.240347498467978 9.968984284218774 -0.9299710987609017 -0.017031758671306154 -3.748802106519221
Ni 5.135382123561341 9.054656173617952 6.622353760235444 0.6270414103053523 -0.5147075991959263 -0.8584414661520312
Ni 0.23880183967359153 4.23377004343789 12.658729415670976 -0.5526514254295514 0.4413434844814786 0.282454708430649
Ni 0.4334793472634573 6.052953482697604 2.5469100431512217 0.475247079207459 0.05376202421280418 0.9353681014067569
Ni 1.005159259595306 2.6119714075177707 10.665937653845901 -1.5490112360283324 -1.1405830142176356 0.632720977188633
Ni 9.215359413867144 7.414172608387834 8.379873261862677 -0.9292702160391351 -1.8993479530129354 2.890518506101293
Ni 8.08362719501669 3.2909703588236394 9.743638163285025 -0.7017815794317204 -0.646893412034273 1.312384127454759
P 0.7277311925283715 0.4842122341586413 11.137758733017137 0.30137571370486804 -0.002462345497563501 -0.28717293984192477
P 7.192513916037953 8.964884082011668 8.105433315121546 0.05575437205248462 -1.9952207903528605 -0.8999043612825082
P 3.774309834250758 4.391453960630606 5.582284151379221 1.073461280868474 -0.5641961928443574 -0.18361456093228376
P 6.07299664851933 1.2058111723820326 4.670824856545735 -0.6833182305202102 -0.21283643391187862 -0.9336686022171469
P 3.5214575884997568 8.393048156026445 7.89911994217208 -0.23146741874950458 -1.0016002330621137 -0.9741963871278642
P 5.573294094035372 0.6229891320171447 10.750732909909544 -1.1539468371190513 -0.16957222390660473 1.5129574277285687
P 4.052298632742467 4.164573399529551 10.21705792353966 -0.7236223294558957 -0.15682597998452993 -0.6954877760032087
P 7.702485839823427 6.223054251244164 9.635618898325566 1.14666213053218 -0.9899053132226887 -0.9841311297430729
Ni 4.673251327719392 2.682774074328491 3.7465375684953983 0.39504383008399063 1.9453668429452107 -0.7122130591776895
Ni 6.083073295072561 5.165685481410855 6.747444589783536 -1.2344398495687965 0.6741123956512262 -0.8422368313677107
Ni 1.881212632386566 7.1078719204455645 6.911152469451243 0.4819270623307958 0.39012839506024427 -0.6458652278800748
Ni 9.198656775682371 7.412061835430418 11.10135799450281 0.24224085521592473 0.9211316460924008 -0.09426101276811508
Ni 4.539465031314118 4.328984258364815 13.266427374202701 0.4883419647182042 -1.6299943007406188 0.028846749028363223
Ni 2.407024530626389 8.34054497302915 11.914348813145455 -1.4840325171641022 0.4036169164649823 0.34609593943037814
Ni 0.03585560845489113 -0.2789285513214457 6.794712138119065 0.09549282829268715 2.183207769321227 -0.593989622056706
Ni 7.180959728414531 7.9829616794953955 12.458218832899659 -0.47985449607248326 1.205862037931104 1.3032410275029103
Ni 2.3470694013620417 3.4797560566801957 9.14612147222703 0.3558537901480904 0.177820579958326 -1.4981409315410263
Ni 1.7482431133430756 8.725715151388961 9.229129913095852 0.11578963086851025 -0.15531725664948737 -0.013388762602080167
Ni 8.774345524873084 4.634110255269914 8.015050934812358 0.3305142829420372 1.5315480462465625 -0.9802991575914923
Ni 2.447321939565582 2.5761800399789747 5.182188972755731 -0.776948808793178 -0.13397170109417572 -0.8358252714144121
Ni 2.5897073414538943 3.9400238659553826 11.877236835917214 -0.09725660506132928 0.12564801171982878 0.002177210156976895
Ni 8.272348651957152 1.4715574877207276 4.420481677431942 0.1913857202372704 -0.7472880485039517 -0.7397914830165905
Ni 3.6788294783857243 5.498976531386868 7.9986639948438265 0.20730984766669458 0.7278391957507206 0.5257265760142494
Ni 4.77172347481972 3.39545362021574 7.9073409439775295 -0.10871652607181277 0.5005930141714152 0.15409958219230235
Ni 2.2800661258746704 7.722978692057819 4.61420933719097 -0.17723333999628832 -0.9993602879880016 -1.859745765240281
Ni 8.895412119891493 3.9732639513978234 1.5188617451511697 2.13658595569763 0.6298382563241992 1.365222097191397
Ni 9.32392656206816 1.63043445049807 1.9206225989562715 0.23073722545169936 -0.4648521091263801 0.05431943937817097
Ni 2.5368462447812106 6.18001283746033 10.526903792323015 0.24961606463407332 0.2500621510325564 -0.6204316182983186
Ni 0.0037461631357273 8.385651273401761 2.4437675814507673 -0.2855852836398307 -0.03873958266204296 0.005429912766319681
Ni 6.606710179438871 3.4194889001091004 5.344540451366455 0.1940990054033754 -1.524325046135562 0.522458703896255
Ni 4.657328757801491 5.760721555380201 1.7782050766099118 0.6669629290906385 1.0485974277472585 -0.9347201834101128
Ni 1.8923079563235927 4.828897890144514 4.217069240707864 -0.3561692645059802 0.1425131629062836 0.6281161314267698
P 1.8644457532856995 3.711950259269702 0.8127311017961478 -0.2653247336185818 -0.5031049819599916 -0.8319274790219028
P 6.996111080987243 3.2835367671040436 7.8694488984824185 -0.030802072982521144 0.49570971793718493 -2.1029479559282103
P 1.5419655317611487 5.792016058792327 8.601741196053554 0.44709838468738483 -0.7249891278964353 0.43808641099676165
P 9.413496753652428 5.483310925133349 5.9653472276911055 -0.419789926680419 0.7441965540628216 -0.08612604236580652
P 5.527912475450925 7.108422556869239 5.3464208747533 0.8994713875101477 -0.2977237187745776 0.3786934137504252
P 5.601862947150314 6.3186997980363 13.124560488280014 -0.42397079753098593 0.2987616731207887 -0.34824409612163254
P 7.519279924393431 5.427256137203358 2.515103447865079 -0.7805812633394428 0.21737031722649014 0.4811454469697649
P 0.69442503071509 2.7721331886170177 3.7157781001416077 0.6808304311013501 0.5402772201349146 0.2723844686788406
