# total energy = -381171.3134496417 ev
CRYSTAL
PRIMVEC
9.21150860698821 0.00000000000000 0.00000000000000
0.00000000000000 9.21150860698821 0.00000000000000
0.00000000000000 0.00000000000000 13.48197395988336
PRIMCOORD
 96 1
Ni 3.4308262731186545 6.359413478203349 4.9556634352332924 0.7823838637658204 1.2328136268192833 0.1470673579358693
Ni 4.090434749260975 4.787276142025516 10.815845402868577 -0.5131243138692066 0.439272717995379 0.4665924888562545
Ni 2.4533470679314187 0.20787518706629446 4.76404379689615 0.3646965852507009 -0.7426243244796953 -1.1634280371366092
Ni 2.0493395246028885 8.061985772167086 2.723655094926069 0.4087187564679219 0.8331500385750943 0.19745789457327928
Ni 8.56158113731372 6.114866355371414 5.897851509751788 -2.592525078605096 -0.09317060791741373 0.5913066759079041
Ni 6.876869957978998 7.998840882645733 1.887206845543179 -1.4385777272654128 0.30231236658652455 -1.190298893385524
Ni 1.786424654184436 1.7062845318159776 3.057981262430641 0.5941919678754993 0.048263977212710425 -1.2181588530205858
Ni 5.094433886896348 8.867651924203003 10.515278492199428 0.2800931501770079 0.023443318624604786 2.3744795896884523
Ni 2.5340306692906513 5.297427895704822 8.763660443346193 1.5719223362985508 -1.444506948265654 0.5198168953980338
Ni 8.725684158002695 2.2926615168285007 6.950065524226354 -1.1035912674846349 1.4306595008596006 -0.0008325232036243726
Ni 3.393630202529708 1.1595354555884094 12.911524341217072 -0.8128100414661615 -0.14413964276611307 -1.3719398755312049
Ni 0.34394206103795477 0.3204536359773419 7.605046138589606 2.0204032031557593 -1.4332223764907703 -0.030861979686179104
Ni 7.530555434272708 0.44463305846434764 8.785258666899908 -0.29341840653100437 -0.2447525658941849 0.6546776839653822
Ni 8.794991546588934 7.065973012243605 10.319318391142742 0.07759023698065347 0.3018544531134995 0.6245476973492211
Ni 6.6520354629480405 1.2706999379726112 11.367973078803152 -0.15830410719195318 1.6252565289453171 -0.8352436878793291
Ni 8.096022295402886 5.556216010396715 12.064020439550662 -1.1923467770534886 -1.617110502799415 -0.7128404083490433
Ni 4.245335473140055 8.848252487684844 1.3753905723107724 -1.3750336839651802 -0.19560747162810183 0.4742631180276349
Ni 7.693156979105814 2.277020375704174 2.9024937654716907 -2.1634339291284093 -0.4377056306185752 0.3949641258859907
Ni 0.7125378029387764 6.681383328449869 12.380523259610323 1.739101634492947 1.6670981475714517 1.7360093687208682
Ni 6.339765330960599 7.620772946741291 7.394322753151319 -0.006295088980092385 -1.0139045043507635 0.26133875238764026
Ni 4.983720768419739 4.8933006027681545 13.430459268077794 0.07961575205111449 0.35792018575881585 -0.8780723530090813
Ni 7.55246040105342 2.871079758654087 9.153532006009593 -1.5591241560926181 0.7579097898838559 -1.851139768738825
Ni 1.2876675362947607 6.253877227401576 7.10665840218349 0.8495310510362789 0.46291246890150595 -0.1055664104786053
Ni 1.3698802480348171 4.731482036142096 11.057375756726298 0.7258494190142016 -0.7310584740189667 0.09226069450863465
P 1.4628704245071833 8.275665130624688 9.048871769648882 -0.3825395269693928 0.12284550927402714 -1.9751312186918368
Ni 2.6995062047190403 3.4330186120983894 4.441541521468837 0.8989777357031808 -0.3527766938846634 -0.3691330237554997
P 7.642852932180049 4.573071727593777 7.647635547298867 0.5227209564187062 -0.3961740870336919 -0.628048511413628
Ni 0.2805254320212133 5.088225330289872 9.007724883142254 -1.6969283435590063 -0.593971624334577 -0.5952687458794457
P 1.3881374575215164 4.626286611148098 3.2912461298744273 -0.6434489051290982 0.9977911437286686 1.33507591262532
P 3.0538268721791266 5.754576630521126 12.617711308446836 -0.33244415297489843 -0.4719182719445421 -0.4844521427454947
P 5.322105526489316 6.921637888405516 9.464830323869462 -0.6291409731468584 -0.2734211374734711 -1.5486541097992295
Ni 1.1030136405478508 6.591635602905514 4.613139946476342 1.2519452054424116 -0.24305049560141367 -0.9385385287149385
Ni 3.4287168377137838 7.8365801636203996 12.299469355616697 -0.3005712155257017 -0.02980397073530996 1.0827429632807157
Ni -0.013245227810759333 1.5083568525825222 4.467844983471496 -0.8684597696199818 -0.7682844482499607 0.765449807014643
Ni 8.155077275230953 1.217125805593881 0.0629026268525852 -0.2562777929249651 0.3100344178211306 -0.46665316689086084
Ni 5.383804209204711 9.125214908288573 12.954869093608426 1.6511961316292145 -0.607413865882412 -1.1077960495946018
Ni 0.5801859302718516 2.0615079270912484 9.20759434832919 0.4307438545887614 0.8635294221979 -1.839008789803246
Ni 6.176086039654263 5.406639538325562 6.24943359578887 -0.07423828978928505 0.13933373673703744 1.6939468923331795
Ni 8.178852178200263 5.267822107970083 0.9315110152268546 -2.6383596204407076 0.47200928899645167 0.8198808322700137
Ni 1.6262365245307016 1.8485102202491954 6.036257185685443 -0.14390412971653926 0.5895184736592298 1.1857914924334738
Ni 1.1692904428973976 2.0791019079790365 0.47857746661696476 0.6730667279955311 -0.3983340707994882 -0.22207029380532076
Ni 5.210268603997884 4.101562251309378 8.814177276114108 -0.8371103087744228 1.4560347463995955 0.20280321804559268
Ni 2.023611781870118 6.936449993781204 10.52514770221156 0.8757971838216594 -0.3448481830662061 -0.5015157830960008
Ni 5.298588545752916 1.8089744265474228 9.029430881343293 -0.4800884664601603 -0.23796022556269983 0.9363086109431553
Ni 3.6733100180873093 4.495860864870511 6.395430475727564 -0.5645031825618149 -1.427312952984871 0.38422359954003504
Ni 0.8177433605919258 4.59739932106218 0.0028380657128416094 0.42266467712505273 -1.0372768605281169 -1.14826598468419
Ni 8.4560725210369 7.173802928616613 3.128141636687147 0.34909641681959874 -0.202819930216141 1.4448381063528277
Ni 0.8675582764259931 6.187231964719301 1.8924776706028608 1.7152572237751813 -0.8277504648260776 -0.14453199310852527
Ni 2.7072162371813855 0.9896015501340051 8.128888957082273 -0.028394491982293033 0.23730253737404292 0.1637065091544471
Ni 5.973322318553745 5.9051755800156 1.9102070606629264 -0.09657037762758207 -0.4717886883452133 -0.675022051949689
Ni 4.651259010198775 0.5651361679815543 3.533841334093733 -0.48156967899137704 -0.9321539653448333 -0.10137628365665767
Ni 4.294285428343043 6.298230639953775 7.486243473507941 0.057594767695333074 2.00540055909934 0.9498177011731836
Ni 2.4418418940419695 3.967295306063096 1.576973378044895 0.5486250778789777 -0.2181907562452565 0.3248506568983567
Ni 3.9186216961096556 5.124592365130179 2.9718315520353804 -0.9617337358844792 -0.25160635559122474 0.42047126901815973
Ni 5.492592122442813 4.434899102820573 4.322590551103249 0.5442722002269207 -0.7887897672921641 1.51090517318523
Ni 7.739454019913156 3.650962898907323 5.256189815265843 0.4031716013974476 0.2589936491942314 0.21455238816172081
P 1.973722252818673 8.258052726720264 0.5663060295379674 0.1606713218725491 0.3112307521220769 -0.3252923724214655
Ni 6.080691659510842 6.705849094543044 11.459084107578601 -1.4094332444909727 -0.04891060965777383 -0.8900493228652994
P 8.7589653375564 0.8863958109367398 10.65365745475896 -0.9538638462180992 0.060143502259115765 0.4606442416926195
Ni 6.242961590044493 3.7129839844138557 11.210868040983524 -0.42591429441060197 0.25090624420040664 0.4268907993912583
P -0.12262636218455487 8.312971739313452 4.941507189249862 0.18018856596987032 0.5670879125698556 -0.48378571280608945
P 4.526074612154251 2.735587682801483 3.6152987021516956 -0.2582305457759617 -1.218392566297947 -0.9963960631533548
P 4.44079446814423 2.2260531001794983 11.179144527486427 0.6495416482903975 0.020443612566332536 1.2131066353086593
Ni 2.8212731331775065 3.6421751199717476 12.837683048236608 1.1353410490924059 -1.436542956223571 -1.317182577284667
Ni 5.917878249986416 3.122627627807864 6.885864074700901 0.6652107222862221 -0.8404406586992363 -0.4701601516028548
Ni 3.9280082230859157 2.078033373014124 6.017462945263792 0.9638122156800627 -1.0497971044823147 -0.0036365683113227694
Ni 7.69849044242206 8.602627618379678 12.014245133202364 0.18215057479224758 -1.8893054811752688 0.3187759114591865
Ni 3.666364540815376 6.552901210427425 1.3136053014171865 -1.7372319282740596 0.07939489428956004 -2.5082553727217385
Ni 6.250643987981883 6.830978223537658 4.505729153731813 -0.12012476790875441 1.158320540706715 -0.8310095951933237
Ni 1.3766599181570223 2.0741461165038375 11.26577968437006 1.4195605627329617 0.9278787350082472 2.4115654387971563
Ni 7.196564565670919 9.18643459257142 3.9101093412727943 0.6271126298629199 -0.49517852802406326 -0.6700978751751944
Ni 6.25246786662889 1.8678359647008078 4.680213544295415 -0.41762891447335815 0.7929757803490537 1.5781462057210758
Ni 8.62051636753365 3.2678378449361833 10.976308035470195 -0.007134554162252228 0.6371597296862768 2.3799282715078496
Ni 2.4150456163442864 8.388257396798211 6.713308573979134 0.06016304264314154 -1.414660297217867 0.918018811495032
Ni 6.964867496942893 5.500200828313657 9.569194870813158 1.1135393798362823 0.05615006482900652 -0.1841218395860055
Ni 3.012872506196349 2.6897143713767795 9.679167384020985 -0.2993088038735104 1.2929674134910443 -0.18325434937938764
Ni 8.51202322256173 7.411975687692344 8.128403510593902 0.7920938919647326 -0.257373339981989 -0.8018000635089031
Ni 4.728543564988586 8.737907829540964 5.931164929584607 0.026450480882044772 0.18030426561212817 -0.5382241942606278
Ni 7.6887723011463445 0.015040550781979163 6.291228051330268 -0.07450799851090395 0.10263072488904905 -0.47391961864528703
Ni 4.581500257704943 8.77242335120931 8.443261155267928 -1.264552609793777 -0.20211467661900032 -2.0699365339991966
Ni 5.684108591886792 2.466676120467874 13.44632701230675 -0.1613457222317544 -0.25962176969653356 -3.742077900421511
Ni 0.9332455422431742 4.2249043476902575 5.609768035155481 -0.4235198260364964 0.3789556662728764 0.6627782015853295
Ni 0.756730935246238 0.14631651927733663 12.300885164445207 0.9415690880111462 -1.5232289848579057 1.206208365526929
Ni 8.967771808113666 7.969621978260359 0.8274872940909321 -0.05388029495822333 -1.150464792107722 -2.0173903844713643
Ni 7.434543883071967 4.894433618291295 3.327930961751713 1.9877144546734864 -0.18436558016569538 -0.5340957739145511
Ni 3.7979693601576936 1.959232550234123 1.5302037868608294 -0.03569848184287401 0.528664832706967 0.9957342611996399
Ni 2.542975043867637 0.09167937883868447 10.624604357523316 0.9556193954566253 0.5540215663042006 -0.9986264951457705
Ni 6.305102425159162 0.8788303991549911 1.4197734616895892 -0.08544829957249155 0.874368678905249 1.9593937533519223
P 6.745827040644092 6.867013644078509 13.35791219201604 0.9116599591565395 0.13517523448397364 2.613235314569254
Ni 0.08998261900646952 3.3694960507359886 2.1192042094423793 0.9002370620315786 0.9705253660341802 -0.5498779764494723
P 4.731251748434141 7.355831544492832 3.0052803810404773 -0.47041829036024796 0.8864559490870862 1.3941629485954634
Ni 9.112208258543255 0.49929875457878625 2.096636014062756 0.03308829791353656 1.0923856285768023 1.6103053069521236
P 1.9815980924307457 3.356406497415807 7.655859581925368 0.1473910598238752 0.17142856038905316 -0.29048657759619007
P 7.90913000313465 3.3229226646791004 13.299737832383194 -0.4117457162197038 0.9164969755338667 -0.6019713547106019
P 5.974704044801476 0.898605665212532 7.254960001503402 -0.9005792758623459 -0.15695736335607163 -1.35561799844273
Ni 5.717859558364727 3.4558723642358773 1.8181251389107362 0.4430928630724175 1.2190703090912618 2.822074197285966
