# total energy = -340863.7046258875 ev
CRYSTAL
PRIMVEC
9.40585190445731 0.00000000000000 0.00000000000000

0.00000000000000 9.40585190445731 0.00000000000000

0.00000000000000 0.00000000000000 13.76641502025779

PRIMCOORD
 96 1
Ni 3.200783157826638 6.574972599862928 1.9650178901002868 1.7238087128896182 0.7386100611139796 0.19641685490327465
Ni 8.611386548811216 1.4688836616494196 2.466569889201228 1.709718039124507 -1.1663141004351527 0.013646387138841014
Ni 3.354465370763365 8.861958441377128 9.595383499619766 -0.8126519186217424 -2.136110558723108 1.292835258788554
Ni 3.0399901209116886 2.366013808531422 1.3462840266471259 0.4251676460525646 0.11966479755320036 0.22641365837568106
Ni 2.0473153312111987 6.980298972473392 7.440031613783894 0.5994724995481482 -0.8075076554166415 0.05462617198531237
Ni 0.4301766331269487 1.522214841486083 7.663364159470267 1.354438633422648 -0.2570411534535509 -0.508224305464428
Ni 6.678963697618509 7.395031196906902 3.9789208138804844 -0.25802948550874916 1.1012029697581163 -1.8943713257339507
Ni 3.649987829191606 8.723551331801024 6.633870162808469 0.4414836096037687 -0.5646116831152211 -0.07660087648419066
Ni 0.4294900059438665 6.683186925087057 1.1632677836298693 -0.06861811538903022 -0.9121682662515258 1.2691348298478209
Ni 1.424092995268081 8.733013618735008 11.192935451867708 -0.3525064709424123 -0.30365268266450285 0.464270268480981
Ni 7.207469105703567 6.584086870279458 1.244770430261734 -0.14927439288951713 -0.3873428618953071 -0.2634491138624237
Ni 2.735522697399732 3.406329237715634 11.499375282506957 1.1636347538307765 -1.1010754430413165 0.7579835805445848
Ni 4.331413576215724 1.0286239553681669 3.3150764850840004 2.044426048432918 -0.9307015491690229 -0.630055771651644
Ni 8.95074968258667 1.5200609014186057 4.957575240853544 1.539507667413271 0.3338970833713411 0.15447650591574685
Ni 5.580971585055388 3.1868813088321777 3.817867234870037 -0.0034743317018456287 -2.8304755339757834 -1.864278877223944
Ni 0.8024696541348805 4.26149047376321 12.849419768712938 0.42521958233642254 0.5498635782717691 -0.6887998224600718
Ni 8.829809239845961 2.3268008122811485 10.163950311789536 -0.12341500862425196 -0.2760871143414084 -1.6481797134003937
Ni 8.267790781715394 4.189526301465095 11.114535795752268 -0.47889496037269147 1.9539026483303639 0.882628604921196
Ni 4.961172979175859 6.450072293504717 5.292526089538805 -0.57279910402202 1.1209822092675727 0.7584612915119519
Ni 6.570928083579018 6.259547358977123 10.076258614658109 -1.8312617988679754 -0.4315159568680956 -0.05835658556202208
Ni 4.921781271740946 7.9619595096890965 0.17145080761564085 0.5852591841622437 -1.0588440451759313 -0.2669396435141854
Ni 6.094738023333735 8.572690874411212 6.408238826936543 1.089721194370762 -2.180086450083426 -1.1164730085433094
Ni 7.43410310537983 4.933924226444498 5.317223034670574 -1.0009119487458376 -0.30645132845556255 0.7150844671882136
Ni 1.770604576429047 3.636988941972158 4.243222428352493 -1.1736535715193595 -0.6157660945018492 0.4291762529913254
P 0.5948298316300752 4.233997168884451 2.385417140257181 0.22149925179319918 -0.14624100537983203 -0.585301607364405
P 6.573862709347808 1.8540344820994537 2.1433208607690157 -1.1362663891201528 -0.42720267420472235 -0.5626643295808632
P 5.821667333207101 2.6198213141244593 8.373986611138298 -1.5182047921704371 -2.056339254930736 1.4705792198726737
P 5.175664024148569 0.1656088330483478 11.285651755043006 -0.6857924030923157 -0.9551738232787744 -0.3923243742702985
P 2.6904780730191713 5.5951179861972475 5.5089754328610745 -1.9834261117107777 2.6224645464770058 1.692444339645724
P 1.8136551602231226 1.5515328816185132 12.440874713608627 -0.2553452538083667 -0.2619977261278778 -0.8608256501134918
P 1.297170430767916 1.0922639488028871 1.6428561781388187 0.18243185347809227 0.8789084757571316 1.4178428087109067
P 8.403902863446675 8.449634115010317 12.735929701201261 -0.5962226251522829 -1.0710752971348005 -0.18515208062273275
Ni 8.985814698182981 8.714098450718865 4.356478290153774 0.37484498653861253 -1.126163496358196 0.48798895225415956
Ni 7.9227935426979395 3.544266054700584 3.452920184135903 0.6718356838019075 -1.6692619879919899 -0.7685467007724118
Ni 0.08229555994054717 3.3383249290350205 6.370188393971599 -0.680970299113324 0.9192637396457265 -1.0867975929660638
Ni 4.191576777162519 5.1123908589349485 7.7074437434537835 1.2800653607173953 2.004127348813871 1.1654738639220443
Ni 0.6928867774704983 9.123958443908037 0.1606801666930724 0.8436288266192309 -0.0076379761612320055 -0.48040214104583717
Ni 3.4101292018521434 9.341431143908654 1.4227451367018384 -0.19406532395196258 0.6432887254021501 1.5149945127632554
Ni 6.710633200706701 1.1833690295608983 10.232879215704354 -0.28163401230156654 1.7935159475777696 -1.137558111348383
Ni 6.91476840282224 0.6289025298590546 4.104318689800134 -0.6917149392243378 0.08464894359964777 -0.47855583186571776
Ni 8.597766875371448 5.658438180669984 3.429420603941208 0.39762136100317974 1.83142352125682 -0.7056531465719847
Ni 2.1289675308870497 7.927778644164153 4.897388135623063 -0.12802293970990855 -0.1919757884127855 0.3983448694327656
Ni 8.819227656545037 1.0159448671107028 12.083732638717253 1.3463674263787393 0.6419885185334879 -0.8984997676254978
Ni 6.584914585239885 6.261955257043823 7.330285075297791 -0.16218261631075293 -0.46272374992946763 0.5037364448964033
Ni 7.498721307404145 0.700272252321953 0.19381980442120575 -0.5587336270678893 0.1419053541189556 0.7037944960966911
Ni 1.4954551930495208 1.3542921688892662 10.081764800315318 0.6177640987684844 0.7051864913482113 0.019661225874353237
Ni 2.0795115620014806 0.9700349043624216 4.085871933204778 -1.7192920559661873 -0.3857958291231614 -0.07036389443554333
Ni 8.961613441442287 2.7219030239599635 0.25378493154866255 -0.2183591635023207 -0.22779434077329153 0.593465631232436
Ni 0.2660275882815375 5.7876745847186175 5.941543033521441 0.701476903707108 0.8347227823788529 -1.0742778632324983
Ni 7.201750347795156 8.56119692348345 10.847852619598664 0.5513357919419215 -1.7674295349033626 1.1875398425831483
Ni 2.7389558333151434 3.872878299842296 6.703225151810871 -1.6805565870692025 -2.431637526956683 -0.2652964514838076
Ni 3.9688838294001125 1.637389497059265 10.019678653601765 0.9902621823414751 1.4390405258344443 0.9654821471833178
Ni 4.570689040742158 3.4920541712308624 13.310416556508455 -0.2585609325321869 -0.4267684148807811 -0.3830174950470759
Ni 0.01821349147014373 8.244360804824192 7.769269348071838 0.02445633327015143 -0.7654811744732107 -0.8165661660744841
Ni 0.7565107809571195 4.7768465009996515 7.976274275578589 0.030264712421812397 0.34172197873239857 1.5986181004221822
Ni 4.7918864580647 7.262653238349371 11.665343419094945 0.5898344622377518 0.9557374090917282 0.15672493563029138
P 7.1084819211178445 2.5430037222856536 12.283028530069837 0.057835422951229426 -0.20583120623863904 -0.13294248849871296
P 4.592322499935161 8.215973944022242 3.5564710880261665 -0.22242099227652018 -0.21942180043888018 -0.14212852587335523
P 9.009329327740591 0.296739575654143 9.154376968703763 -1.4671012886264023 0.5656601789843937 1.9310054320172163
P 8.293224205044908 5.015651672934934 13.340536915801392 0.04489531785079365 0.30379229356616066 0.4453559480749814
P 1.7381637934913658 0.39121007019443926 6.2547842356139345 -0.6304602061789142 -0.4429923329388113 -0.28381353645138857
P 4.587835908615569 5.0731402392773814 11.605996256432263 0.7586762357362352 -0.8792069808341567 0.20808734926266742
P 8.159378933602982 5.346427263995945 8.942622086026375 0.027615704834739536 -0.6837818004201902 -0.4576314230082248
P 4.586509683508519 7.43963374625178 8.315231076555285 0.6071567555662833 -0.8304076999432666 -0.22356924694835045
Ni 5.302332630649512 1.063181054966033 5.796982615682703 -1.248199108136418 2.8000254450160424 -0.28291904966157727
Ni 0.7247886050987191 6.966406529330755 12.710282765035366 -1.0537360345254048 0.14500944696557608 -0.8542091732382385
Ni 7.093507805015558 6.696580858083072 12.634526153282199 -0.04165341387472826 -0.05506608773620839 -0.7746556418836271
Ni 8.814157902412415 6.6838641464183155 10.434460729049938 1.7229113978863293 0.5867046583595187 0.7626755867036155
Ni 3.7077585710887466 0.05720545020257548 12.837003103721335 -2.890845293313092 0.46113763638927036 -2.2941603838124105
Ni 5.0278886861567145 4.116254715763577 5.6776966622776674 0.5455513240496603 -0.451061740210507 3.0792405634634714
Ni 7.3357273011626045 3.7667050444637673 7.672105958154605 1.0174719099870477 0.8554060217598172 -0.8090451751070905
Ni 1.4274885077762 4.775219288634265 10.399342100098234 -1.8233134905551762 1.4756514921892585 -0.7441333049250539
Ni 2.6326885194183847 5.813578300639283 12.404834311178265 1.4364411405383841 -0.1925314038059394 0.3156970154235466
Ni 5.84060131292689 3.386539325479947 10.518463451096368 -0.1855896823807836 1.1665580981251586 0.3305006560952824
Ni 5.069170969808058 0.293752277115144 8.35279992990689 0.6381159229519591 2.2477090343284063 -1.0273102362337083
Ni 7.568587974745722 1.2713983967727736 7.142801052664589 -1.39650753756824 -0.36999511464547896 0.4739198757556031
Ni 3.763911506472323 4.904436880979253 3.9827198374318113 0.9904398455699199 -0.5117030080416478 -3.1431499605229223
Ni 4.988816777683787 5.700124915949718 0.07581116569374018 0.0010680362531981606 0.22675278688265466 -0.04742348358928607
Ni 6.17714269115543 5.2327011096035125 3.0662070516980613 -0.6792044654621527 0.8543233302185997 -0.2905647391322931
Ni 2.8972375077933394 1.1458114632314806 8.01560484497665 -1.0383569809661728 1.436108954009946 -1.1407408799517385
Ni 3.4598673462924037 6.238261916301574 10.031366365077082 0.07869889666379995 -0.03732599014396797 -1.1914438056232448
Ni 6.7565149458995135 8.332211460851429 8.562544782049693 2.054036317829172 -0.8759306240757302 0.9843728134402338
Ni 5.058072064656864 1.3101128828764252 0.20093156898460982 1.810368500358734 0.652893595481766 1.3150159086506514
Ni 6.7528090402812335 4.006422584025884 0.8082946981688921 -0.21058466176322443 -0.5041377940998801 0.33284113130300097
Ni 1.5351855111500616 5.9803534593136884 3.366617731318739 -0.06868059319584946 -0.16318663209523507 1.3211083947016344
Ni 6.1425197505948015 8.817703908549703 1.7265146460085252 0.6997828038341367 0.7409160835393369 2.5470726026992523
Ni 1.4948344068292 8.41241515934653 2.631918180154077 -0.924653286092414 0.1943193489442976 -0.5270913175722599
Ni 2.453206054931046 4.607221369222864 0.8066721887294168 -0.7230772555857031 0.12763393180160598 0.47553709964405194
P 3.557565929178369 2.410305964766139 4.662973615318778 0.6009940783989971 1.5515208898240633 1.4523251587584924
P 8.428715500555866 7.726662720483811 2.589586203439283 0.4154185370856007 0.21591327306498945 -1.08025953473723
P 2.6554694925337987 7.751390704926596 0.2951010762665686 -1.5431763745141098 -1.6872280855521071 -1.9671628557743797
P 4.44505507794175 4.430664124652492 1.8721633209031898 0.05940610987245897 -0.3735951732919114 -1.1352299774358385
P 7.249870685721853 2.701802718614117 5.471310639820874 -0.6011951386662099 0.13353667043928613 0.23144402171073689
P 2.4749994136050404 3.2714681342768186 9.131992922535282 -0.11188001140145894 -0.20887333549907253 -0.5676509841621772
P 1.4718182874182095 7.0682060636115684 9.682897426151738 -0.26571939795383914 0.23790983194073867 -0.49963296425099113
P 7.80599167475937 7.045547366569853 5.6421510076532 1.2087642991795635 0.6031774592035613 2.086355341676852
