# total energy = -381163.2603778681 ev
CRYSTAL
PRIMVEC
9.27177230784449 0.00000000000000 0.00000000000000
0.00000000000000 9.27177230784449 0.00000000000000
0.00000000000000 0.00000000000000 13.57017597763793
PRIMCOORD
 96 1
Ni 4.967351890282385 2.570329926973352 4.776552728594703 0.7344790696647415 -0.8976549031266993 2.1117046190749176
Ni 7.241708309011979 -0.026671179556857324 2.9344416882113915 1.3612235175549654 2.737664109170001 -0.5265290173108866
Ni 2.7760241905028242 6.003138636098544 5.987690936640963 -0.6500363285386288 -0.8839907753760453 1.786191646002214
Ni 5.970807966865852 6.800687198394765 10.034778652478469 0.11047747462697749 -0.8350945638959746 -1.5890415124773407
Ni 0.6284119688893706 5.455390157102347 10.980769212905553 -0.5168963793171293 -0.2282003179624586 -0.10952385246445655
Ni 2.826944762750012 8.17921427081135 3.001600842074334 2.189973113069519 -1.7640778448223104 -0.924958990258291
Ni 4.3082772439569865 5.171516311419144 9.436048407539376 -0.08855084975721525 -0.23431671527284162 -0.3433402310621119
Ni 0.8789250514621204 4.09994979715763 -0.09359483040904261 -0.2998322804771481 0.11880296377353734 -0.5977449753340802
Ni 6.701275258184578 6.9031310080741495 5.526115234506125 0.5590136202021534 -0.2906238745050027 0.16721272253549269
Ni 8.04542259973944 5.445645524649361 0.4616721285644385 0.6437893191876526 -0.10409393969813685 0.7382238814191544
Ni 3.149917671282157 8.820867257403963 7.0567355288975175 -2.300198105366058 -1.824954625703025 0.8592030269084041
Ni 7.221004441963913 7.13754922149834 7.753238464743574 -0.14344081692687552 -1.4307749433915424 1.3434561662692153
Ni 0.25134476052806176 8.389618594555966 7.665466307198923 -0.03341714200786503 -2.3850985028548797 -0.5355502469728906
Ni 4.255641393875543 7.828843275791506 5.0531667767415716 -1.2575597234157116 -0.597830593069351 0.9917961024874983
Ni 3.645345540447531 0.6766001499054501 9.389069265602144 -3.676242747094256 0.2046598116383572 -1.6850228503706723
Ni 1.5051053048125438 6.191457598755615 1.5813322517668462 0.590438414370338 -1.2040069870002361 1.3933682206083102
Ni 4.9307376623500945 5.3868532179087545 4.9272088258975675 -0.046350819350397594 0.6221923097431672 -2.397851174534858
Ni 2.9647140240429772 2.044824429190011 3.1460281628958326 -0.1134247301807595 -0.11713020405680472 -0.7861991237468524
Ni 1.8052789258072095 0.8892816208721913 10.88815255445064 0.2507535206726262 -0.21420451790399883 -1.0739245936581374
Ni 7.384883013425866 1.26175837487815 11.675019108136887 -0.4497329940967545 0.18781677193908944 -2.7022137387821914
Ni 3.012611998593045 0.7683702955697282 5.118982450830549 -1.115470278310408 -0.1849710749601782 0.5266498591594672
Ni 6.963749853913937 1.0105953410827984 5.316062310923229 -0.03378840930435471 0.023494483577514377 -2.0257706381152594
Ni 2.8078449122712783 8.30843495824927 11.8603469971219 -2.247974372174651 0.12260459690781465 2.0267831385401736
Ni 4.351047928548442 6.031964575486109 2.6086761219296375 0.1971467910907637 0.27466735117574637 -1.0902963501479415
P 9.037159156417509 0.27109085352056644 1.4260217248813005 -0.6591110371463874 1.2103833228402252 0.4814159270223322
Ni 8.285060820843013 5.10994247305542 9.304010955744447 -0.5544658529304709 -0.27513143529635836 -1.2135990015640452
P 5.256723896807283 8.480166720660488 7.529480007676375 -0.08973278588045837 -2.9107314907140576 0.4583461896870622
Ni 8.686250398617197 0.4408319664668413 9.562685979276628 -0.36427055345687587 0.24946925464356387 -0.7243368390244171
P 2.9695353455230458 0.7694430395990435 1.080949547603494 0.23239507277009652 0.07970162689670145 0.5720447423544988
P 5.9951741838843535 7.93755480339498 3.9574296798523823 0.42589423980594393 0.0006342911498892301 -1.4717269603238718
P 3.0925254021251845 3.7611036148295662 10.414919453283321 0.002843897206698328 -0.4486744709252531 0.6672699188080959
Ni 5.738661337600541 6.9903134809147005 0.5390942069394735 1.4625000424089651 -2.2727222685432924 -2.0669016038276147
Ni 7.1978713706316615 0.04840514048268269 7.36045003964841 0.5889080937687405 1.5387864729765306 0.5954474375491552
Ni 4.839939198399493 7.048614383735224 12.043951263677787 0.12223307250100883 0.7002417457484262 -0.16257728064601032
Ni 5.493024279963115 2.320084798613629 12.79104376950788 0.42953312211011185 -0.21144726687383586 0.20330278338983052
Ni 3.5120638168398606 7.427468262575782 0.6505993194697638 -0.2636738282787201 -0.8263764672966865 -0.2136900401614255
Ni 8.674011659475484 2.150105401124974 3.3270001733590444 -1.886000328061436 -2.391186875140804 -0.4476393447925194
Ni 4.025525282695107 2.7323448722478165 8.56306563480144 0.3860141157815546 1.106202479855237 0.30564760160734455
Ni 0.14422519619021856 7.0799622451277475 3.087567785595583 1.3849218896131696 1.9360422231101753 -1.9343987739694817
Ni 1.006358141243584 2.3116196707072776 1.354108006297244 0.37240706652108124 -1.2608869880167317 0.7954383829569333
Ni 8.302908982091344 7.395517735998249 10.007787596784954 1.8492703196302538 -1.4813894231143003 -2.819875132752118
Ni 0.40970570042695886 2.5082368693733126 8.656768017766575 0.6049654043419194 0.5259420344591652 0.4378028183180718
Ni 1.4645505737475037 7.675868308292171 5.169015714489962 0.7161802713555537 0.2545507829315294 0.598130383697957
Ni 2.0658991671211573 6.122114015391317 8.4604345353261 -0.3177950356031559 0.12767584078313496 0.052583430523670725
Ni 0.20318995789145958 1.5504999009018066 12.761542845113107 -0.007511220775380611 -0.6873340365478227 1.0384320571784824
Ni 4.730031612198078 1.0805323178600268 6.9136655955081 1.0181334548304466 2.8187980976378553 -1.0127534214654559
Ni 1.0945697807846884 3.523217758648558 3.8572277846612297 0.3742711163130135 5.5143629636449605 -1.6491109669654116
Ni 1.2616471136132252 2.8960472800403054 11.337867805744509 2.788106067870637 3.0872284667649543 -0.14865475702764722
Ni 7.2450832340480265 3.6930766231002115 4.834632963239793 -0.4993889665609851 -0.9283700728223688 -1.3797765979668044
Ni 2.465021139722158 5.902261755900183 3.8766465840994146 -0.9905326623940424 -0.624977328687472 -1.461398067594038
Ni 1.265958487629056 0.21163932378528008 3.3666249456847557 -2.9698264971040014 1.4881318840444564 -0.4833008027498709
Ni 5.742935624528063 0.24600051110284707 9.40390131939381 4.006689410023151 -2.45656565765693 -0.6881567895594343
Ni 3.266908891350441 4.22265242882538 13.375946093571253 0.33691067338668423 1.4859883553388924 -1.131398005284258
Ni 2.5037215163717867 4.164342254232779 1.9685845017548003 0.6527892086934176 0.23242566889771585 0.5195078487980472
Ni 6.573491695418602 5.0653359775927065 2.71989751823437 -1.1873871190553682 -0.3899617875753929 0.3679626575964824
Ni 1.6517661955274048 7.841554875309149 9.77873681221617 -2.0863594554419103 1.0912222043963207 0.6940687841684949
P 1.0405987955241494 1.8349671399979408 4.755858133318716 0.20117031042785996 -2.9888094659644073 3.2836514923158155
Ni 4.619845872834353 6.158746786867764 7.282203700735725 1.1396008528100245 1.956886413549036 0.6703524143881617
P 8.369860448259761 4.1195688668726795 2.5844944131754697 1.3723029152975785 -0.17935887097972336 0.07625120645425577
Ni 7.074899857573676 8.00411685513616 11.576662295589069 -1.443174859717792 2.016939670087191 2.852705291908261
P 4.467353037483024 3.7867771517109325 3.261143703472928 -0.6329024970718197 2.1440591241462235 -2.0407285449766723
P 1.5737349617269072 0.5440342071021286 8.58602625117306 -0.03176315134420982 0.42126136901962286 -0.16167328077450221
P 8.639196155326141 7.333248514728746 12.893973420044102 -0.12221841721298951 -0.9508757101240527 0.514570816507746
Ni 1.4114047762018227 6.436807231458652 13.009971633322934 -1.0949647021578885 -0.6017476687355701 -1.1411000630633703
Ni 6.0976736241962 2.3594898299411144 2.756808442873127 1.1476332361961978 -0.04795775882620128 0.17800261406214504
Ni 5.805807510982575 4.406048080509534 0.3349798533719316 0.12213562769119608 0.7267739877109999 1.1148298165129316
Ni 2.770859813455904 6.176474415079093 11.335914243367874 1.6450946467171668 -2.5914652698820144 -2.0488321479204132
Ni 4.821738709812232 0.08408291943519156 13.436020686390119 -0.6244479385465632 0.06970414936435737 -1.0318582606157067
Ni 4.8124576659631 0.5397385950988288 3.7824147829486785 0.9301410486798626 -0.45476258610086195 -0.34793067864627175
Ni -0.01129023685823026 1.187408034592243 6.6788737296692045 0.17213715642030353 0.9565671040818751 -1.1360141639000305
Ni 0.6163401216450445 3.8003695695758957 6.61959929078059 -0.8597457867857518 -0.2583632146990841 -1.1783401783617513
Ni 8.508260190053965 3.1156862887736687 10.817506287109518 -1.683152629931153 0.9845669317289106 -1.6678615081000374
Ni 0.1864479190519208 8.766701564929805 11.452590223185537 -0.26654960716461834 -1.0612896785029464 2.631824390425351
Ni 1.4380796644675107 8.28078653391549 0.6546622099939294 -1.2844632326747751 3.08022889551867 0.479526166198787
Ni 5.2211759226638526 8.457348889578855 1.9572265809604077 -0.943962527943987 0.8710303585606354 1.4086004641770322
Ni 8.75233031821037 8.481678019509047 4.7195035150045825 -2.098644186346534 1.1992404188495283 1.1980494838652205
Ni 7.7786551735384055 5.068581097819677 6.492161565113088 -0.03174875316650661 0.12140800549655222 2.588295099684149
Ni 7.447773443424533 5.556684267044176 11.668966495324984 0.7130612661105977 0.23550945002936216 -0.2850540937267091
Ni 4.363462831359619 2.6840760268146666 1.1876713529192318 -0.6348681054386228 -0.811601365870041 0.7436849045337257
Ni 7.314927493104484 7.143650047525041 2.109049994367773 0.4287558776244551 -0.16975245823821086 0.33323065343193575
Ni 4.950959397250152 4.0244126700458605 6.533957786459246 -0.0031691417566009935 -1.2526100927199202 2.8465973792383106
Ni 2.60232681241127 4.19935246559574 7.560555278969834 0.7116816121542517 -0.5271226850308276 0.7059483092149004
Ni 5.163663120469878 1.944939628603894 10.544772475576897 -0.32597628586236765 2.7868778518904906 1.6861387091426703
Ni 3.0831609123273584 2.0003199232201454 12.756725232341868 -0.6607202906150363 -0.9150090781344306 -0.013974202791904965
Ni 5.223085907711726 4.767304135947841 11.716055044172727 -1.1358678681301533 -1.0010513025371792 -0.8571142627001755
Ni 7.216924862250009 0.3635851245840626 0.008367774299542424 0.22525743328405076 -2.146445364990213 2.3715901839558
Ni 3.764376550372767 7.644594621076263 9.230514545666837 2.306698368378421 -0.8070304586699069 0.057830537855222984
Ni 7.597178778674202 2.4087507549865093 0.9354151771959954 0.8633162777458293 1.4423618768981934 -0.3148110132741675
P 0.589363900786852 6.030267841196008 6.847158247222174 -0.2445250232644111 0.4686079766243865 -0.523892093908672
Ni 6.764870342861101 2.608798509321055 6.97394416731266 0.5561751223120938 0.3373202501202771 0.7313819187966565
P 6.287235004311595 4.794581689398537 8.388567175602427 -0.15976475089787967 0.6814829770836843 -0.8384814780903367
Ni 8.800923675666217 5.675112611784404 4.479664096446938 -0.12684383180014283 -1.7248569516484744 1.079350135549083
P 7.491508392312003 2.1215483431276434 8.935512719136751 -0.08785073836639708 -0.41316342250283683 0.6921057469048532
P 4.4205954908984335 -0.07011684915552313 11.20196309781624 2.980738516030815 0.8205686023656578 0.16700343473816398
P 7.234003466415945 3.5126664820248696 12.429289819909037 -0.3167743076481254 0.28818132650178113 1.2544859695863944
Ni 2.822429409748486 3.192836704226846 5.544638380761666 -0.24509143729084243 -0.08321298248406958 -0.41306983434776606
