# total energy = -340895.7453339139 ev
CRYSTAL
PRIMVEC
9.02750968521407 0.00000000000000 0.00000000000000

0.00000000000000 9.02750968521407 0.00000000000000

0.00000000000000 0.00000000000000 13.21267293897891

PRIMCOORD
 96 1
Ni 6.335885461904903 1.9125230672029647 11.565000040259878 -0.02007003127699769 -0.1592980956741063 -0.4925346626433131
Ni 4.682488033091374 0.21654287514100456 6.011752726175643 -0.30448289187528205 0.11482726695524095 -0.39604501765499533
Ni 2.7204219926623354 1.5878125708529922 4.680179698861435 -0.3216444912562332 -0.8327232354503207 0.9714476207381334
Ni 3.508523589352613 4.334405314131652 4.954395722463098 -0.04895868928688987 -0.16957685189229504 -0.24239563562623415
Ni 5.052083307662928 4.554107817667176 2.5974925875941697 -1.249602673352164 -0.6862086646941279 -0.886353619181267
Ni 7.068874111885053 5.955123157836145 2.528284989991573 0.8756465171764081 0.11499336021946001 0.5086775909517627
Ni 5.034967149274328 4.6111436239431125 11.272074502807806 0.2635141627724043 -0.10258110259803624 0.6402753924971232
Ni 5.673049589792796 7.887181756026942 12.334690933670773 0.12277660370930467 0.07544490850287652 0.10830412112474251
Ni 1.9236088491128807 6.578201877235492 0.425081960183205 -1.2731645198325041 0.48340570375885134 -0.6565959840340175
Ni 2.7361930521058393 1.7302937564264478 0.30091307803341766 0.22129716308472208 -0.4478326917502481 0.5887869948098441
Ni 0.5893709009356375 8.98762616078007 4.868975620192734 0.25783433877880757 0.05149816787929195 -0.4130502939637402
Ni 8.577091129725236 2.359267439658999 1.4156317811220187 -0.344068110367072 0.3286471478263114 -0.18686623510036204
Ni 6.84876537041309 0.8235526272767925 4.978772706902305 -0.9318857992851112 -0.31071318905571005 -1.3603300592064185
Ni 0.7864206743843933 7.619398735836522 2.6382933204280916 0.11183655975803321 -0.8974772398982545 0.06657974480276276
Ni 7.728776043345106 3.73821954612452 3.7886544373088182 -0.057622278499158824 0.05444490921244172 -0.8306748375617242
Ni 7.534197099300865 3.7551370992997497 12.697127393051314 0.6561833219766313 -0.2873135791848471 -1.1504745622997348
Ni 7.9180829217253486 8.9657073672318 6.8655159146588955 0.3978687011272954 -0.7026948352746092 0.6940219900909596
Ni 6.946136090022499 0.5720128052871144 0.4312152502724532 -0.4514841724599063 0.06779433393615421 -0.26149610390111094
Ni 1.9990968852128133 6.472381408548167 9.145125511488166 -0.08235037737345818 0.4774371448802422 -0.07414804406832391
Ni -0.18348955113044574 4.829058680558308 1.294051988753798 1.2717658397127645 -0.1455537495048203 1.2764079664704664
Ni 6.199949220862953 2.2028297240914636 7.0328281684094 -0.0037111303030000604 -1.612767138229055 -0.1126757678298769
Ni 3.1374387756807858 4.61227206265544 0.38170748433420404 1.7906792494599226 -0.8303177113326216 0.055353794179956284
Ni 5.945174842148257 5.42570485156007 4.6554587663027105 1.048929871386013 0.7505703187996493 1.135163128753645
Ni 5.258208436611715 2.768267794065067 9.525372344753132 -0.263947650765397 -0.2839017252898207 -1.0462577238704884
P 0.2075009214268581 5.517487542666028 12.470081010375955 0.5105460116190691 1.1639471428648729 -0.9619139702160854
P 4.205384145518852 6.242170883723439 12.533330451577458 -1.0953344267924814 -0.09458548598706935 0.3332913314665421
P 2.4789090256949238 8.545314295586065 1.3893788801674365 -0.6113239995700956 0.03893858604672649 0.7179905850914151
P 6.403808444877385 7.629771344480246 5.795356096691756 -0.14645003606684454 0.8852686136472043 0.7620618643790167
P 4.759646158485553 0.9368117639557871 12.740888246315416 0.313074490199035 1.1956904967147406 -0.4323477087407716
P 4.054724036158439 6.15277145517792 8.06164650571167 -0.329967923520264 -0.2586606913348448 0.5600335768262356
P 4.658872067719761 0.9716308688633977 3.8970116362214573 1.150323638544167 1.215865429000719 -0.4103220963992998
P 0.18165877216356385 5.545120749853529 3.555556914882468 0.38578580182083233 0.7794227242549674 -0.9321735057288592
Ni 1.2976503541196713 1.0648669890308338 2.272077945487704 0.6423546436236551 0.7468393910023073 2.273779763273529
Ni 1.8694347634114103 6.434808913182475 4.876585810868678 0.329398167059723 0.6447478264461799 -0.39539452855519003
Ni 6.065520573940674 5.478073435321815 9.200710596955533 -0.3819242619828971 1.0739387347255247 -0.6830089268099075
Ni 8.447438035433533 2.3346313656914415 10.149896368455229 0.32174476427952325 0.17982269799001935 0.7758977418208443
Ni 2.2054386743943675 5.15706421794828 6.957595610833938 0.32887340490450456 0.06287169982355624 0.023621238963365772
Ni 0.7125955055709482 -0.07728992703577874 9.1922942496635 -0.35128596827174985 -0.03649938047761456 0.06406520591102516
Ni 1.1992504984046193 1.1592857129687906 11.359397604122641 1.7178116147659188 0.06711607692220699 -0.08789187601697766
Ni 3.955935997526346 6.878176997011222 1.6507117446781872 1.5054834879490264 -0.04947548102230834 -0.4610461051167286
Ni 5.730013175991142 7.889384468393408 7.960886858961396 -0.8156027737199502 -0.8573065812166396 -0.2321598168308389
Ni 5.4853225256098135 3.059188321613073 4.5480268871341805 -0.6478619465951293 -1.2837345820388666 0.5559267537467135
Ni 0.9144054848837909 7.438415221398416 7.088585679312009 -0.4799961638566701 -0.05644985545761246 -0.37526561901579886
Ni 4.93733463188366 4.319699500832586 7.099354595631503 0.731394774312463 1.0952727203166104 -0.2728166711202527
Ni 8.306103343591804 6.953926830892415 9.137171372692704 0.05191957168742672 0.8368128321386621 -0.03848761455223695
Ni 4.632078418934231 0.20411921629375185 10.26615444385611 0.29202641127948414 0.436025671812991 0.41678507841582413
Ni 7.967327987131368 7.192153784329525 4.499615060873344 1.2329918042683603 -0.2080330989859643 0.07749356350178911
Ni 7.233427558671655 5.973214287272198 6.956552030712777 -0.17499288070154378 -0.45380639283517976 -0.025939859794213392
Ni 2.403745979944142 5.31841289879187 2.676438159908677 -1.1630032908943646 -0.19614277530628155 -0.21523707293357122
Ni 2.516373190944233 5.344348934156029 11.291853776557502 -1.1555383499758873 -0.23590899946062596 0.6177674412025941
Ni 1.1424945449293413 3.3592446889760903 3.7044900616375336 -0.4528483997972846 -0.17003090871057813 -0.6623184883400915
Ni 3.5321214997048282 2.5770290286093185 2.6530126749917056 0.6604271848546497 0.22437323090688455 -0.20851389527712477
Ni 0.9914011151033942 3.29111407328054 8.142626878712248 0.2551735041171928 -0.06301388182837535 0.0029333715967110774
Ni 3.323649218234398 2.683625863130725 7.368852842664662 -0.4220861789137634 -0.10521468356614137 -1.0350441145428562
Ni 4.375119382872467 6.765477565933543 5.960474665585492 -0.8816729258761461 -0.03810092063677954 0.15376508167101904
Ni 0.9018482188929985 7.564908687295599 11.328056798701912 0.33058781649245 -1.1234957197180457 0.324489416904196
P 0.1809212246211859 5.443236275394807 7.8528988851954304 0.602621072479459 0.06959333481810595 0.2042119254676612
P 8.482320332909033 1.5960456596981416 8.144741121483666 0.0960571854365894 -0.30462224566662377 -0.8237562560650201
P 1.873767968066752 3.2904911751113346 10.513680635033776 -0.7613951773292952 -0.297674610704197 -0.7128843742131014
P 4.103400368453444 6.1062888077396815 3.7900284242849493 -0.8641068919679247 0.9061873660777425 -0.0606032155043537
P 6.959966234880798 3.953290937184648 10.430374775534831 -0.14948059536305225 -0.008798057907604203 0.4355726434359724
P 6.469989118478031 7.640297420788847 10.101471903680816 -0.9529469908307845 0.005411143713242293 0.3045924208699528
P 2.55700601209776 8.401614396203295 5.810285792231348 -1.2857683246394436 0.17535026404096252 -1.016988799703042
P 6.8171600589581915 3.9087853143704083 1.5771574011557008 0.2343416549735061 -0.3599094482747027 -0.09405429607394769
Ni 5.116404314265656 3.0354640261250765 0.32243827215882775 0.017501242108556955 -0.29405706855626773 0.3218735765479037
Ni 1.3278834841003786 0.9987856180368725 7.07428971495326 0.36196710213467986 0.5995545177389933 -0.515428536522351
Ni 6.780716002304828 0.5737171991182155 9.230201665639013 0.6928657649993293 1.1438812253529331 -0.4607491427016
Ni 2.7121979313268847 1.5109523532788682 9.431126949001388 0.10568750943750185 0.17711841168497883 -0.5893747489925141
Ni 6.228124078632373 2.0264863496384526 2.4896373182207743 0.42647865155450415 -0.010749525207020195 0.44432776392078316
Ni 4.236312393746354 6.809288070500988 10.373798469502555 0.5646116831152211 0.3362658407138338 -0.599927841918012
Ni 8.429121218255014 7.148289114703889 0.5281788291944534 -1.3771736131263186 -0.15055608781541813 -0.13741595088903433
Ni 7.522028016227114 3.6836392224866112 8.253983016346771 0.5965918355662435 0.4325210010938422 -0.24770779186776698
Ni 3.1754175089829157 8.453612852067396 12.58491273924445 0.3229945775262244 -0.5110705166639714 -1.2357130598542654
Ni 0.11402828050531774 4.801524775977491 10.002998022386235 0.30595741953827954 -0.15419702700211507 1.1458170089230653
Ni 8.603090357657287 2.2359245746466363 5.7301910179322055 0.826117300098029 0.9065414069830516 1.0260100293650458
Ni 3.7102432935684697 2.68832919568371 11.500812640800689 -0.0796705165484499 -0.49007103159416887 0.06567060272493207
Ni 1.1878036161067584 3.535913053778252 12.683333358231808 -0.8502782136149485 -0.42846148631248787 -0.7634751997867754
Ni 3.1100673662745435 8.483954312164485 7.848221732420571 0.5963861473133407 -0.5710047311257586 1.4488042900894273
Ni 5.681797246690767 7.958760880427368 3.7134480595114825 -0.7107231048957243 -0.6044259868986817 0.11372092126493961
Ni 3.1789833753138743 8.31540167858139 3.5372437087078303 -0.4062324997109585 -0.2403289829051925 0.6702853085956522
Ni 3.317104273702892 4.357290051217675 9.15681794204983 0.6302267500118693 -0.4031898562298927 0.2088424822611371
Ni 7.313140469310547 6.126591677051897 11.410371437635948 0.6357949881282663 -0.773963500912609 0.3081521131967532
Ni 0.5267443579033412 0.11973456938582089 0.3008959257649903 0.26446495672144776 -0.1839266928560639 -0.34032972637056225
Ni 4.788335584307794 0.2745446249546934 1.746926943046171 -0.9985910139221448 -0.08244653663169027 -0.8125819846157554
Ni 6.017692827557341 5.537691109371558 0.30299030801507215 -0.20118445149524705 1.0951531640196106 0.20133871768492423
Ni 7.958300477432739 8.825149041224154 11.35592201288867 -0.4850411824797453 -0.8690966318730323 -0.34949879446434007
Ni 0.012436297360830777 4.8548954133157824 5.606572813874035 0.22154013233346365 -0.4588164444552614 0.850730984881651
Ni 7.71373621218719 8.932747929322108 2.6370646763581083 1.1144608632092872 -0.06688364919642675 0.18624762767975667
P 8.51703110770026 1.6019225685119487 3.6735852849352484 0.2602059243347777 0.010604514988723671 -0.7241571189134431
P 1.8276735035455545 3.3943255916649613 1.6028957340574608 -0.597648558965532 -1.103127954694971 -0.2749774262169974
P 4.636944246661793 1.0755736155334075 8.053005373428142 0.37222451819662994 -0.026440453579715754 1.3809320517274863
P 8.440730595727452 1.6038905656262497 12.323235023863214 -0.759947389139175 1.4255661454970934 1.6082767065578691
P 6.334775078211972 7.691763253580729 1.5336475126612206 -0.14571444345240067 -0.38786402450609975 -1.5574917626955176
P 1.7842331268757534 3.2515826083102457 5.752757986676837 -0.1667057009920871 -0.22156738602697323 2.0294532291731695
P 6.981018387498 3.874164814676168 5.954911914109197 -0.42979434619129847 0.9123816678139125 -0.0024322635905764563
P 2.635752979198897 8.388479369591789 10.234827179699925 -1.3420615999145338 0.34052230199734257 0.1995482014434047
