# total energy = -340894.7149650677 ev
CRYSTAL
PRIMVEC
9.05835410059885 0.00000000000000 0.00000000000000
0.00000000000000 9.05835410059885 0.00000000000000
0.00000000000000 0.00000000000000 13.25781685869582
PRIMCOORD
 96 1
Ni 6.386094172883949 1.8989117760492418 11.550793428466028 0.09241933157368598 -0.47564765707998724 -1.0107158222101367
Ni 4.628538008672882 0.3949206761649241 5.826823253631174 0.4640172719299106 -0.43868059293733486 0.3414977785367344
Ni 2.9277233729817977 1.775835922281521 4.749984264582885 -0.7139935481168801 -0.37532295461629556 -0.3512072925150145
Ni 3.4139667493266477 4.509022087968436 4.853619985151893 -0.1325290551103782 -0.3080942633756243 0.05400447924091344
Ni 4.996153182990643 4.9884988739869085 2.517155296375396 0.6561887212932699 -1.494984902410548 -0.48213455035591163
Ni 7.273984958963157 6.219809971249 2.921240309130943 -1.0107253352918335 -0.31765953846655615 -1.3781051238016526
Ni 5.235647000445914 4.493994278930337 11.497974167163342 0.40432345561370364 0.47957424582790315 -0.21871089041478464
Ni 5.722850562298923 7.950082373662144 12.729956488445762 -0.911049065045418 -0.9267574769196104 -0.264171593850745
Ni 1.7758812140507738 6.595459905432217 0.5531329786836282 0.5426385212782397 0.10038666604987873 -0.6953515075356606
Ni 2.806160264307122 1.7298647764898685 0.23324355329837632 -0.0758943373354693 -0.5633523567868233 0.720229758834579
Ni 0.48117703903622505 0.14620183114823077 4.787662487424338 0.8128339527255614 0.3491465533312439 -0.12206337969236399
Ni 8.643970395323654 2.386015696009896 1.0375474733860477 0.11353245940321736 -0.18570898156746726 0.5526390841343773
Ni 7.111278807099184 0.7621943505425177 4.869596203838147 -1.5241448118039558 -0.4437664921006744 0.26751531351199737
Ni 0.8091148118177101 7.646473527652525 2.729890736556077 0.4690445499411729 -0.5216074116395533 -0.4242759874762306
Ni 7.57210444253933 3.955574784406193 3.7786769095645294 0.42276443592771057 -0.1565498435050078 -0.09035653550738632
Ni 7.654290887025569 3.681867564457312 12.424244292672041 -0.0005021364473991352 0.9912502572863572 0.5019346158009742
Ni 7.993290721529372 8.71485201420438 6.8189992442504765 0.2447877900074945 0.4354546298008694 1.0988352408568882
Ni 6.901641323935398 0.7615738533037535 0.4565093298303476 0.8848621222374051 -0.8109141099950292 0.2633766087532754
Ni 1.7731002994186482 6.54765897216275 9.39608008052433 0.2017027858925623 -0.9284410352696204 -0.49762287579949777
Ni -0.15043570573798806 4.880432712549585 1.387841263470744 0.2289271688261541 -0.7091076807794885 -0.05159432713752405
Ni 6.49840870227719 1.9179614941969945 6.94024168719884 -0.7925363788187899 0.09967344203293801 0.39515181641676456
Ni 3.475672255756743 4.178509931022618 0.31341179654670787 -0.2735347802331999 0.5074833135333454 -0.10762920654490496
Ni 5.634830537932917 5.665973158471182 4.839898390739046 0.9931469600884378 0.13262547147892645 0.4133829947128106
Ni 5.273556211310557 2.7863677611436226 9.192837795179047 0.47368821936077127 -0.870921600896913 -0.06816842944612131
P 0.32836623291861705 5.494761212341523 12.508537710263921 -0.5486104225909584 0.22733385619710525 -0.5636650029312357
P 3.9285446565160864 6.222445952219517 12.846943316755127 0.08005746757422341 -0.6155125837301464 -1.2496852057636412
P 2.598778311252129 8.83222110504624 1.418944027252068 -1.3411689128969355 -0.4918875159776174 0.09972049322078955
P 6.294387398500759 7.68852240622688 5.791968519684942 -0.47858128578701453 0.6282673122926535 -0.22713948079811203
P 4.743905203313766 0.8994737031479351 12.656031262671243 -0.0004391444199476308 -0.07737323587384094 -0.5444285232991268
P 4.128145483613439 5.982372400117809 8.128248418042888 -0.6064571583960975 0.5759309647827823 -0.43372119204953047
P 4.731703600677045 1.3486892464578022 3.5840654237680725 -0.8468761299119351 -0.9260334542693923 1.185041758751643
P 0.19595574550788203 5.6512261584024515 3.477034632175869 0.9547807016054137 0.18137538718911989 1.1409259993793512
Ni 1.2455327128074893 1.2367189345108829 2.5133372002273795 0.883916213384368 0.24118156071347496 0.030711827261560014
Ni 1.8425597567448337 6.483181609454379 4.88904539539071 -0.5025766202603474 0.31495808037499307 -1.3881900188414802
Ni 6.108346927117712 5.497859169358418 9.094252106881733 -0.08698967591768246 -0.2224497886319266 0.9059976186644396
Ni 8.557508407819945 2.0887386393418264 10.103211415515377 0.8635677316350031 0.9718407424114941 1.0491160192548898
Ni 2.168968479396342 5.2715905485249825 7.044792301506757 1.9151394115192373 -0.7903355145127292 0.09617545618200855
Ni 0.6235834199210663 9.137523863225915 9.22876594405657 -0.0957738498682157 -0.8050530232285619 0.04126697706958699
Ni 1.5309795593467115 0.9139244950457525 11.496250362425577 -0.6726967462506221 1.003788756073 -0.6282169186706923
Ni 4.2148248716095615 7.128562146246076 1.559039622069628 -0.383403674741901 0.04316599386451275 0.083143819809031
Ni 5.677839602015432 7.759268149799847 8.00505661734588 -1.0835793431390823 0.6136030254122594 -0.31857793651576743
Ni 5.369194311264895 3.0724396340985347 4.764089933198996 0.073706328545215 -0.16218621585517876 0.4725142536573282
Ni 0.9483281229702246 7.263930186189023 7.115337855459626 -1.321431582369008 0.9760933470402611 -0.42526431953142885
Ni 5.093775062438255 4.154007083856822 7.194685411849096 0.7645877161246638 1.3675715712601804 -0.6542776203134861
Ni 8.352327634750642 7.040850105910988 9.135338082441773 -0.1397433134706303 0.3840773037701579 0.4021213057560623
Ni 4.631219281412651 0.2858925175486704 10.422274719029456 0.4021380179266107 -1.010256366075215 0.041721805218818464
Ni 8.21453195597574 7.297690670990104 4.7537489164431825 0.27675560116334275 -0.4416278484911168 0.8289118321240304
Ni 7.366869319346922 6.2089490049821645 7.020411742117942 -0.02816514958030633 -0.9255279753878835 -0.4871695416766578
Ni 2.321366224578364 5.248464571144472 2.4457890555636648 -0.5601032537219063 0.22285807981393876 0.26045712111363534
Ni 2.2776053171262514 5.216316473328792 11.461621181490228 0.10038229517450455 0.5396850950768706 0.48202476425092466
Ni 1.134105902091604 3.60596761754337 3.8728067936027477 -0.26607189619725147 -0.6301377898424889 -0.29563701144887794
Ni 3.5312180815684506 3.0185877204568845 2.6030266792080474 0.3395128868962218 -0.5524534504861324 0.10246720272799129
Ni 1.2417010291286974 3.310927974276392 8.201656411812538 -0.4100513592364164 -0.3612065698195715 0.5020981379620321
Ni 3.5464995245143656 2.5220540541377847 7.048385750479278 0.4333368121269182 -0.6586549234455753 0.502736028656347
Ni 3.9012427780104626 6.978936257342329 5.999400293686113 0.6936874895696763 0.066472272690621 0.321652204565717
Ni 0.6664267161281161 7.5169753010047495 11.406706722941903 0.12481060342019795 -0.3907670570855077 0.4382008250874389
P 0.21369834319499725 5.383026417594719 8.022808273386847 0.5438065734444119 0.546786224898026 0.7661797432021321
P 8.491989334418758 1.5904838857911183 7.997963020445497 -0.0719276393782374 -0.3092042086103513 -0.9032390820826961
P 2.024723252679835 3.2383615015794605 10.344066703554388 -0.45824848776693333 -0.9195679011497067 0.4310187055167029
P 3.8423997113971473 6.353511274083441 3.6333310928551774 -0.6936193553359022 0.6974688109889795 1.4627972619344098
P 6.968881484568194 3.6468298517632998 10.280826711982005 -0.6677941667426822 0.950562292648692 0.10818970703406527
P 6.440045728417955 7.4686761582734995 10.055523711669041 -1.167352826112312 0.10667018506574533 0.4948612538939607
P 2.278583619342113 8.568414665856034 5.827142107686713 0.665780221636447 -0.12395314051590911 -0.197759227863782
P 6.821148791619216 3.9151111177556883 1.5868940601601367 0.6123395853188034 0.08133299185253734 0.20335034879831432
Ni 5.387619002996958 2.6319952948221763 0.5703021825720023 -0.6211155317392206 1.1878023522159156 0.006447812507872766
Ni 1.3375202961600472 1.0554975073763408 7.047085876701722 0.3381949394157466 0.36313566852148427 -0.39781573640217294
Ni 6.88202998784891 0.6205216963195729 9.14093342761527 -0.8050316830723231 -0.5736313701153283 -0.228792957241135
Ni 2.7715211191825353 1.4070884537324393 9.15199005432528 -0.09834495302950161 0.36759678961663145 0.7001779823900265
Ni 6.56541334570987 1.8920817772459104 2.750466787327651 0.3431162879767639 1.2201637992657566 -1.3148567573649677
Ni 4.048359502897601 6.813258965415369 10.584457298040865 1.08103986454668 -0.49109304510078006 -0.008037011371863578
Ni 8.189893233502184 7.034980292615818 0.49396199966092225 -0.5396089904232965 0.17653322860547016 0.30008270592505737
Ni 7.7860718188436895 3.787107519493256 8.055940108430697 -0.3576818444957646 -0.3174204258725566 0.299701925546871
Ni 2.9931337461367775 8.360371452969948 12.451316994825245 1.2090167815100017 -0.6379770833812496 0.7445361967904275
Ni -0.17707179523559477 4.789251322689729 10.27820160103611 0.8935100277203902 -0.4202825500461213 -0.4142312016457188
Ni 8.60287264390361 2.4687999918502728 5.779439910474217 0.8091230795328775 0.41462869419445364 0.39068272490181744
Ni 4.034690446937089 2.501781458220205 11.330461652746255 -1.9748501971163084 0.30390747898778625 0.15757674210762537
Ni 1.026927459331637 3.3293254909469034 12.319574108093295 0.07144118666012213 -0.7060565526579905 0.3885808480674663
Ni 2.937796262463634 8.221398188194474 7.998546378433474 1.364266161036031 0.21116161731261698 0.07349164143124762
Ni 5.552653151800527 8.08274196580377 3.698373696843824 -0.2914674534522206 0.09809966978791493 0.17481907412784087
Ni 3.0187960625954475 8.601821874856943 3.665057071381421 0.5182271823134107 -0.4518140449954993 -0.11580737148032313
Ni 3.6459511914397944 4.428602022483059 9.586820025885052 -0.16044120813961402 0.5007868753497762 -0.853408274603498
Ni 7.3813717438616875 6.167298693977235 11.641768287858092 -0.16061938558869113 0.13104475725536788 -0.778788175994762
Ni 0.5558305564603285 -0.22411454428776992 0.39296860091012586 0.45263114158015594 1.3436029762597248 6.196358618699006e-05
Ni 4.81746809493426 0.3796528207497852 1.606237268972648 -0.5806947047200128 0.2624787795293544 0.2706155497038759
Ni 5.987463194981831 5.48616483453733 0.2838036611507285 -0.0401428907674728 0.41359613916488125 0.7917640194291397
Ni 7.581162796389902 8.757688969563734 11.318926744952938 0.2039483873936294 -1.3990652709930873 -0.15698281727736835
Ni 0.05028201638913966 4.900596608220959 5.762165629681176 0.06263053034702762 0.20283818504858614 -0.1411697615045117
Ni 7.90360396005486 8.967235869189015 2.7631937744877044 0.7939782534716391 -0.6049579481427517 -0.7280394846869849
P 8.581214119846893 1.8224502111965641 3.645899558822846 0.00552658624518403 0.7103274121192025 0.0757153885554438
P 1.6484120586655258 3.2691870797329563 1.5170260710752905 0.22772543520856908 -0.0574934662307784 -0.7449210909336719
P 4.7062586847107895 0.8436615617330213 8.193516575042414 0.7323129152513581 0.2237739067599888 -0.9277753766611634
P 8.45541170157015 1.2570005887823132 12.265428703786887 2.030660104997077 2.2362483419869745 1.2841582998398464
P 6.4982547102617305 7.788970492075872 1.6709356555149728 -0.9651836421062925 0.17844767201936365 -1.4755635604611426
P 1.893866272954473 3.211521599120216 5.954629379779663 -1.4776466682424163 1.008496960181947 0.22171882400317297
P 6.997813866766921 4.189823814981983 5.994906444340845 -0.9097360026609493 -0.7024750059543192 -0.4520631848918279
P 2.5542836771381197 8.374221676007474 10.26862963852221 -1.0213948991905377 0.9126819726631507 -0.12476972287993351
