# total energy = -340867.98486064904 ev
CRYSTAL
PRIMVEC
9.25729708133843 0.00000000000000 0.00000000000000
0.00000000000000 9.25729708133843 0.00000000000000
0.00000000000000 0.00000000000000 13.54899002046661
PRIMCOORD
 96 1
Ni 3.227519557205458 7.696146403739981 1.9594689050635494 -0.5824052596532163 -0.7670014677724791 1.312737654139436
Ni 6.972438699008961 8.345166236567884 12.664078522227305 1.4504441396856955 0.2239250876258724 0.7195972674569027
Ni 0.48201356695431 8.523322916634253 11.578383660054499 -1.163369930205164 0.2508342533118906 1.4321229727790046
Ni 1.3249043414444597 4.229816356762005 4.902729273053215 0.7282099488265781 -0.04100318188523906 0.02844077183919618
Ni 8.311951055062137 6.455992615998176 11.152566514318318 0.9502365338781571 -0.06554796110413871 0.4929015590644285
Ni 2.4797336230718594 0.7410947598882374 11.042629632766529 0.30413707850008914 -1.140937312233261 -0.853840219934594
Ni 4.641599440301221 0.812130628139174 10.002000217942701 0.8751209836902412 -0.20670795241663756 -0.5147577357075716
Ni 7.063428670865149 2.267871124760667 5.873947475243234 0.29631449713187674 -0.3975925646477733 2.785737053417828
Ni 8.738481012664522 6.914663908658522 6.781242190439528 -0.25476804114865803 0.5703588700116435 -0.9249517911694393
Ni 6.192594745490077 8.123870552650684 3.3864071736418886 0.5252763758507083 0.3846131216689699 -0.3586573210351565
Ni -0.1710748478891393 8.54023599818693 9.095369250938704 0.9578236021967956 0.3578731345709643 0.6991788517015507
Ni 4.574345177859954 0.6805048255311373 2.8663026068710504 -0.25942148076026933 0.232435953310361 0.764992150651934
Ni 3.9152626632325105 2.8825463858532516 2.063606090067581 -0.5224998415468357 -0.5667271867963273 0.872799020425284
Ni 0.43797197664951676 7.804003170664026 1.8540440300518672 0.47010024489919683 0.44837339474506654 -0.08990350713036775
Ni 1.9436250413101803 7.360393500163617 10.318829355065873 0.8375224566111771 -0.5714377048981192 -1.3602356997203993
Ni 1.16659530606826 1.326672485164526 8.603716986385791 -0.1512754824799459 -1.3787851805878124 0.4749940826563885
Ni 6.200056126842817 2.4969984819091566 8.965921690306226 -3.2596826402050443 1.237903639747681 0.020302973223410195
Ni 6.103965384359632 7.232318796670855 10.965631139541273 -0.4239839101571085 -0.16318380388175768 -2.024754281035604
Ni 8.75546815259291 7.661718516331987 4.370741114170077 -0.26266878405297345 -0.5524714482082613 -0.08102831612792497
Ni 1.0249308906327892 9.267109698479535 3.912772450349276 0.7607344038168447 -0.7254850936962473 -1.0182697232979947
Ni 5.915690478711942 5.3622800089251115 9.159306623877878 0.016379212688971793 -1.0675775683941873 1.6861852461098896
Ni 6.720843882129577 6.315966742125281 4.868612430823202 1.0319857873325065 -0.13069354456353618 0.5348529637955498
Ni 2.066126852030796 2.7097959672136827 7.09074232555654 -1.4282904864067918 2.9877465719175316 -2.4397794393375274
Ni 2.7322726842415417 1.5635852290594856 13.435110454766445 1.571066673166475 1.616706582492777 -1.7969332007894345
P 8.829433955332856 5.462480991260178 5.148033756645766 -0.9809218787771558 0.06861271607239151 0.4517340836871833
P 7.041016754916036 9.267387417388445 10.549039815959116 -0.3766822968576674 -0.6029974819822712 -0.40198143774408834
P 2.699372250832559 4.209737279647745 12.963632617486521 -0.9814055032817935 0.3163282212496423 0.642870406917809
P 8.795866996542486 3.8729290442175195 1.6517433937744783 -0.5208198827412515 0.30624846841613707 0.9567568514951781
P 2.0828177584563434 2.5129302899836805 3.59488612991285 0.4989634489877923 -0.681842160195316 -0.3136889838545823
P 5.573975875890957 3.001641511291226 3.9975887308603735 1.2034801679624887 -0.5594072560961462 -0.32009822981503583
P 5.047550426753306 1.6682760004219466 0.8090155477108896 0.21745387807923197 -0.6294096534272128 -0.8101078120436499
P 6.959348881102293 4.577668547469922 11.700799377913352 -2.0574522854892567 0.07875648937461274 -0.6936671778547021
Ni 1.7040369385927119 7.050320338364553 7.709429699153191 0.2428080405733044 -0.4280043441704113 0.5598955085864744
Ni 8.454383826145595 2.317212517577177 13.199236379590813 -0.9184016487557473 1.5786372864248812 -0.5285897564946574
Ni 3.3078173510685747 6.878190158621552 13.25450244246409 0.7666983347097635 0.22527877344028943 -0.7244075443613525
Ni 2.4281334497962073 7.601462770395277 5.431843966958819 -0.738157289847277 0.0748098460220389 -0.8687197081495878
Ni 5.977973572683703 6.133005524934753 12.953823585623786 -0.05213991522834891 0.5472716491748768 2.0557018784570533
Ni 4.49477871045697 4.890130091885621 11.724753559536616 -0.40072442540853564 1.1101951459543977 -0.3760670318711717
Ni 5.214385432633072 0.7614941394774423 5.3225717593290245 -0.7729674555479269 1.5489235614105323 -0.3441773822514266
Ni 8.037527743870273 5.0985673903202455 13.621612588045588 0.944316054628664 0.5472976173168058 -0.5536366721609562
Ni 1.9453376412484644 3.080661798173353 11.250782732184367 0.5843189317361613 0.8700206863491985 -0.11085491257105425
Ni 1.7044905461439332 5.699921401082069 1.1736030798697794 -0.5195286747336537 -0.719352241325632 -1.0719044779043152
Ni 6.003144163127997 4.244655803794814 5.879475932989955 0.5126514879978461 1.2905544331741774 -1.1236456150323488
Ni 0.6176653680118589 1.8628180961140601 5.246548059474047 -0.7719374716215157 0.17306532466152774 0.5205267769808648
Ni 1.2415794114742138 2.9892459906568347 0.9563306172130015 1.5264613757522745 0.6588402999835041 -0.23102390345418278
Ni 2.841481016522287 0.8194642587938156 5.271844549157049 0.08794098408735822 0.6996136252461241 0.10819304946817494
Ni 1.4432959123131937 6.033100776102524 12.128351341100531 -0.9695282922282336 -1.1557550939723837 0.7524366825844268
Ni 0.6642147600641181 4.5879256325057 7.344216373719555 0.20865479173036322 2.175909692997917 -0.04145055383530281
Ni 0.23833281324919087 0.5677259538114936 0.4602533647114415 0.5904381572600218 -2.0879267999290296 -0.7735282131474034
Ni 2.405323470077655 4.805277707916365 9.215101278407783 -0.7281168748921395 0.12642962708085967 -0.27801929836711475
Ni 7.492504385132552 0.9651472668412275 4.154675803037365 0.36364783227121245 -0.2037064465861524 -1.8625770640414891
Ni 5.821867773984862 8.148013583132007 8.768797734490937 0.7985422186932376 1.027320006425721 0.19115072140832887
Ni 9.320894593838618 3.0199431873884572 9.711685830782953 0.6181209678872709 0.9689359100598733 -1.5968360688210952
Ni 3.8836860232893367 3.2743892517326607 5.310797403320898 -1.4112109052166857 -0.6145535622509868 -0.6144939126576449
Ni 6.889974697656339 5.1767267485847475 2.0175667750780217 -1.359289533757046 -1.4758250416526455 0.8134934406864313
Ni 4.682637037741293 3.800490695476583 7.569454740413596 -1.831579330108394 0.42911068986071255 1.7905170128504455
P 0.4966558335617912 9.0355199003387 5.996647392118874 0.02900178654898876 -1.617918600523007 0.5726669493195299
P 6.251267493645995 6.537641975217993 7.236800254130983 0.825893357012681 -0.5242713316249616 -0.07615170476191402
P 8.98017052179275 2.69289214295797 7.188294795230293 0.02283602405790906 -1.153176277501614 -0.22102102660520004
P 0.5510970712756029 1.4415833123749096 11.499949360070174 -2.040075484773706 1.2261027904580108 0.49760282119483973
P 3.977851248004073 3.6097070623517307 9.95451028451893 1.2889426086023672 -0.44970471196198036 -2.2039956526008564
P 2.342670084227347 8.825370001965792 13.700196856240723 0.2934767705727655 -2.0808652650965582 -1.053510805888476
P 1.7489440861636112 6.616995524790812 3.261309616852652 0.11254464156865132 0.8187274353918609 0.7413647410409813
P 4.064906868650689 6.905554728446243 10.669978994952258 -0.886879152667434 -0.3752383653222892 0.15004880916169644
Ni 4.359279654799322 8.754014756969607 12.04178635719299 -0.24473765349584944 -0.23408325910579686 -0.19012022326128547
Ni 8.314496811727153 3.4200805913473404 4.312074846122034 -0.6574876426103515 1.2353803591051948 -1.2650159225834408
Ni 5.956737333448979 3.4652469432332227 13.486325524488409 0.8424101237207815 0.4372921972302404 -0.31554146368228886
Ni 4.445566919797952 6.409724645773614 6.039909518019323 0.858986540022224 0.45427793315495957 -1.3614598019354873
Ni 2.1885823762665932 0.6720260672420864 1.9189302759298195 0.2087586642980792 0.8566782036040214 2.1057831113841607
Ni 7.542003151997445 2.0919917397473684 10.849407627621439 0.5841916621296778 0.49140363436266343 0.9079753112161008
Ni 4.94645148661276 8.71148673471838 0.8494949301440519 1.4926891643978357 -0.04645726302127483 -0.9741236249083998
Ni 7.176691699215994 2.578009087638478 2.0640800636721224 -2.3820656295658265 -0.27041886031203755 0.2811401033842836
Ni 3.505645787182801 1.5337397036485232 7.892028956032439 2.5574133225036277 -0.7412284725734332 1.7324923567065453
Ni 7.891355024813481 1.288902713552638 8.526528718572782 1.318450902474129 -1.3854152843098204 -0.8448572997096934
Ni 7.352950633404804 7.324040094987176 1.322729802387687 0.49707548793646 1.6867557739013788 -0.0688626272996685
Ni 4.067998805836565 8.70920943966531 7.369539709563751 -0.5940520998635253 -1.5214189282323605 -1.8987249747169557
Ni 6.21848740509754 1.2144925605584336 12.525769876941174 -1.0423211078202437 0.19522617702928316 0.27076158836343694
Ni 4.0876242753996035 6.398912122920015 8.374454472701633 -1.2323839954810323 0.6003726427649144 0.5504862994574325
Ni -0.032083939816784576 1.5641776960651623 2.55601652724182 1.2458411494272028 0.974470209614541 0.606422191393104
Ni 4.174318861464636 4.85082360897776 0.8164408256054718 0.3655260231305318 1.0666483717116986 0.639967374338401
Ni -0.32621325905527243 4.194333137500151 11.662590810425385 2.159391126517604 -0.487114005848374 -0.47485498597536285
Ni 7.742414373964544 6.825580939976856 8.869561560481397 0.35350894406499767 -1.625216162625685 0.11785268404512607
Ni 9.064180491738309 5.668492877890313 2.935050071312561 0.20315854450248239 -0.7914881400599337 0.2208855294686002
Ni 5.052179075235155 5.169367197498608 3.6254518730275875 -0.05153236355133706 -0.1440609670093777 -0.004189869711631494
Ni 6.949462087945062 8.65722045991718 5.668870575606433 0.9348893619981253 -1.4349041350685676 2.242323087426145
Ni 2.880509780521238 4.73339479699325 2.95019778633426 -1.1259457239204351 -0.042642517260874944 1.0329298964133307
Ni 4.325036913330603 2.60497559369373 11.694647904080975 -0.046378073043907224 -2.14264013231151 0.9999770956363938
Ni 7.489403190649714 4.144278932817436 7.815300775878523 0.17088014408475086 0.4626599865710677 -0.18930132690441592
P 2.5122267354144396 8.78521184773727 8.811030448969024 -0.4125635841353088 1.3470258858983446 0.33059321580908874
P 5.848713935179587 0.7395534199437815 7.445156088352325 0.5630679927771851 0.800252516516125 0.3803026672190741
P 7.502835528544039 9.603705016079594 2.0473604596259873 0.233851602710965 -1.195771229354005 -0.2132454964248392
P 0.3078273415556719 5.462064412896812 9.437656880441741 -0.5729939936416455 0.2285592439637741 0.4797691354475285
P 4.326805057050669 8.218674530855916 4.456222068603168 -0.8196028960182787 0.36297728856674905 0.853428329208156
P 2.896376787517016 5.027239917214953 6.280240981682977 -1.235714602516162 -0.3828264620821923 1.3414165101313673
P 5.336489179584248 6.737886565839744 1.9217620830710147 -1.1062801271707077 -0.9984670867497707 -0.7819305782784856
P -0.3994338493896419 7.17565488195606 -0.27141468967866206 1.0476083243611118 0.20151972334747875 -0.48481543962218443
