# total energy = -381169.6562888815 ev
CRYSTAL
PRIMVEC
9.26482919577629 0.00000000000000 0.00000000000000

0.00000000000000 9.26482919577629 0.00000000000000

0.00000000000000 0.00000000000000 13.56001403129923

PRIMCOORD
 96 1
Ni 4.535736142586686 3.0052882599607793 10.823250453728821 -0.7566332371642776 -0.15183289764531271 0.0150851764678966
Ni 8.776063203833047 7.7222815224264725 9.192916593754747 -1.346091032788901 -0.4979062113678715 2.2820700283067796
Ni 6.944424986401035 1.5012266111017614 4.2967072532986865 1.074231326265279 1.0827702169742255 -0.13497160311359982
Ni 0.2314141261092755 1.5897891141135903 12.542104198500073 0.6245584959824986 -1.5935489134293912 0.5412524395639904
Ni 0.7413818296641783 2.485531337796995 7.824683827404937 0.6521348629388704 -0.00589116867345437 0.8384254280414206
Ni 0.8618162718548957 3.8834087783686844 4.200363220181236 0.5714047947776546 1.1541874923749478 0.2734247370178968
Ni 1.8314529208465697 7.947555846177139 3.6549797802508737 -0.7724635193283148 0.6972541238750121 -0.6232048101680815
Ni 4.416914707172238 1.546012795803004 4.692294154109251 0.048195585868620223 0.9016655669479892 -0.3629199529662524
Ni 4.936782807287288 4.6665647967377515 3.391128560377113 0.549525221095744 0.4214811983399128 -0.8826774558812603
Ni 0.39964396954880815 0.019895294378868278 8.123885929849253 -0.05064661851227407 1.367889616721231 -1.7982547478143354
Ni 5.7059859927726 3.0179996057220753 13.065832952972798 0.05431146895837098 0.5544704809161612 1.3759968192093979
Ni 4.15269104116174 4.26725065511103 1.1130321175673916 0.5565173361428609 1.2999029642686128 0.142122098115452
Ni 2.5978210685746252 8.19135982847197 6.257797371251933 -1.6543812142254153 -0.7853385755187701 1.396333473884221
Ni 5.3062364041700905 7.33658667982971 6.5004404704389716 -1.5431954006775035 -1.0613277308297335 0.040901109089736015
Ni 6.610214800069232 9.219061015477633 7.718279116180932 -0.2920750051292325 0.469658529376088 -0.06622621811808595
Ni 5.9700150973683845 2.2595714166801937 6.368718686746076 0.4267187925897683 -0.26229931652869665 0.60256322265833
Ni 3.388092475824652 2.2103288490990796 0.22089298598789953 0.7446940625245303 -0.1099012904085333 -0.4205108640068436
Ni 7.1199564417898955 6.98507905724693 7.781238263499365 1.0813180579087314 -2.1141731352200686 -0.564841282627524
Ni 7.437119342261069 6.4171357580390485 11.639062215833194 -1.3822209457422387 -0.0128323758779779 0.045541436075224796
Ni 0.8327793704332644 0.3836195208398156 5.218910755866084 1.142331107256994 0.8988777197902067 0.7982300867694575
Ni 5.556794447004268 0.28752378514685684 2.9675275952965556 -1.5259188729852429 -0.5071380143787847 -0.6766912121219959
Ni 4.19221480283644 6.319354749901498 4.519159510053077 -2.3539593582479137 0.20557512436377498 1.8974306813855648
Ni 5.488327358683584 2.7536832914188563 2.5756299495021353 0.5001088754461451 -1.791366248224618 -0.2598747662476041
Ni 7.5398940933762715 0.3637890802658519 1.7914677706741196 0.5123894925857111 0.5661713142928572 0.1288570055754297
P 3.39943262685368 6.032237690759685 6.777051213186243 -0.35039405258509976 -0.34843230087303867 -0.3613266403372035
Ni 8.306475332177586 8.463050946875766 13.336938534166599 1.157965214249825 0.20874375189974373 -1.391532710061468
P 7.346916964468081 3.929844102680358 6.983163090553463 1.3635110280375615 -1.770563452546654 1.1597536736088156
Ni 6.143600938610108 8.203431901013492 0.4863636980184202 -0.7825319593079104 0.13642093396561666 0.4865218807903299
P 2.5848410427644386 8.053777113781555 1.568473521407312 0.611804795861256 -0.2369197001133274 0.4060838899482361
P 4.031386631502373 4.369413927494275 12.5289509203825 -0.898400265933156 0.526189888803913 -0.5447959339408747
P 6.918140665756139 7.740579560238833 2.8926631423634994 0.5586577795246314 -0.8151307191795382 0.42784339311251474
Ni 5.57562984491441 5.879636687819228 13.330700524617708 0.21484909346653325 -0.2676767787905261 -0.20740215027018474
Ni 0.990104509819557 6.8143467834210085 0.8815624024824835 0.408381170622845 2.3777873139054466 1.5596743721691333
Ni 2.699623012616259 3.4053250582707237 2.55873368035864 -0.7406327479709631 -0.7626195366546995 0.18243956678757614
Ni 0.637071896338592 8.939309495607127 11.081270390058732 0.2974578667077006 0.2907740269296218 -0.15181438570255146
Ni 6.411289650768365 7.686686048363135 9.96816971275473 -0.98795667413675 -0.17049704971371926 -1.4673193181744792
Ni 8.62578767303988 5.102734429208816 5.84562735252727 0.560138477835216 0.39714390714612896 -0.20010947326351342
Ni 2.8564673073633307 5.295294640799761 8.983536084620336 0.06292363610741422 -0.5922826666679283 -2.311329182282213
Ni 6.2833330936916445 8.631531867188572 4.9712099863794155 1.2557185564419149 0.19620139645835888 0.3000389971713155
Ni 1.6730243402939724 4.874198885554375 0.15234807310133014 0.7284480329793132 -1.9430633916230147 -0.537264658560836
Ni 8.902092676421175 7.561110552409338 5.79054608953889 -0.22876827465078667 0.45071721238689477 0.23706625299352077
Ni 4.866370104819467 1.5528409749765284 8.442519158725906 -1.793094029549002 -0.9884025034249173 -0.06823065014262443
Ni 1.0094216788518473 0.5712174898726351 1.0069748374410905 -0.8905985105005501 -1.9727771166373638 1.1099434349549078
Ni 8.811575294432936 8.829854802586754 3.634775040574318 -1.1302692909964536 -1.470188155081842 -0.797133254160853
Ni 7.7599430534174845 2.210829149879772 8.457150177112377 -0.042739962070687684 -1.133439461194319 -1.7126992332400182
Ni 8.077170807693562 6.577083770592267 1.3065021353928563 -1.6125323965104292 0.23068503205752527 -0.33475480338594604
Ni 1.957788132800676 5.732576052783474 2.7622291699394244 0.7541714058873463 -0.628430063122763 -0.0829288755847475
Ni 5.933307843792397 3.403851950416463 8.931561318886885 0.1844635391961404 1.9303662557713206 -0.022909557608321834
Ni 9.3831411418862 1.961762744558399 3.219825573068031 -0.28548038263085024 -0.6407142798067545 -0.848575629101545
Ni 8.98356758503986 4.11308389602359 1.8306292775242816 -0.19322457321822206 0.48697593760861296 -0.18237657476012462
Ni 7.301787981083772 1.7036353362089303 11.912160661803421 0.844504801466281 -0.9966950824510125 1.233147098899302
Ni 2.4653432748131285 2.0011382689647466 6.4122050159004464 0.7811841870307643 -0.38687106446521113 -0.6986643739589773
Ni 4.026911718963958 3.6727728848679067 7.401462720324535 -0.9047799442072547 -0.4982322272487225 -0.18264859747458867
Ni 4.190732430152907 8.13527981688806 8.769654721425548 2.1132475380820055 0.6674820348189021 -0.3412195851746833
Ni 8.8809781305101 6.070992471604804 3.5488456020416144 0.44504278770993677 1.1885695693992433 0.4136619594058102
Ni 2.126676705601454 5.126109593462277 10.971786976067618 -0.09266101527084686 -1.4715477544335303 3.0034755526170143
P 6.6973041952268 5.281981081135781 9.781366666073454 -0.23453654459313156 2.2635290320797985 -1.0638368704048324
Ni 5.032358786058082 7.753568850878293 12.046879617765832 0.0002321706154641163 3.0212848128842933 1.6903465765764307
P 8.499952761866467 1.9862774828123273 0.9518491032722043 0.8813983320585208 1.0338632068608775 -0.40773093863335585
Ni 0.706100433313164 6.321726546195151 7.686954728412024 -0.9728293315770086 1.9655317479288603 -0.05464365548680912
P 5.214829598571732 1.1684802677949464 1.072279839531213 -0.1876110836861866 0.028753675093924673 -1.5892055488590309
P 8.317102091352663 0.463406377565129 6.5193018098710755 -0.5646348230436726 0.22148073985043792 -0.6062974928897816
P 0.5467018251357796 6.082805128926708 9.97537033806499 0.29691922059541126 -0.3209160977306409 0.14474359489869912
Ni 3.270716353776648 6.39124056022358 0.1678286763320515 1.8205487833258451 1.3213418508686792 1.1666989945783972
Ni -0.0012915172005281915 1.9757619015885146 10.179679279655863 0.9767857451215952 0.13047525790514303 0.14273479199878644
Ni 6.926877399759713 3.8443853174746763 11.238133214464348 0.16073328545873608 0.23076550758647354 -0.10696817592213835
Ni 5.7184657178020935 4.6889023001127415 6.104379210369678 -1.570243148823915 0.6551728784342459 -0.7155218118359483
Ni 8.824981502389639 4.432979921130028 8.66289609372335 -0.8698242540676762 0.3614865629538355 0.5849185129933733
Ni 4.3790400851079685 0.1841783205484941 6.632623642629616 0.6136194804724915 1.374967349503619 0.25289036450997093
Ni 1.6003232249959471 4.579049219433668 6.916366450950536 1.3416252837080636 -2.6849526377088986 -1.3885018936549443
Ni 5.048386940698784 5.7029378639420845 8.263201167613547 0.6181178825634774 0.4480036701104736 0.79990284648619
Ni 2.3327543031003675 0.826382005820892 8.843583426602123 1.8986658393442464 0.9857552956100569 0.8099800282165339
Ni 5.135782075222331 0.7975341069164112 12.41065387430485 -0.605316359923435 0.1872956093282968 0.035381207712771326
Ni 6.411363769402542 6.133770954752429 4.5361771484600375 2.3449188453122 1.3782676175214457 -1.324290906194674
Ni 3.361168881959982 3.8052228841415867 4.742357585563871 -0.60655794564002 0.11191060752907822 1.9188849946045987
Ni 4.779308504149714 7.249793759208848 2.3761350132010355 -0.5506230821456131 -0.8302945714041701 -0.3941231180419341
Ni 4.4946836840820925 6.350169572060442 10.723693377819812 -1.2521601496666952 -3.6905627632613536 -2.5241548175608144
Ni 2.1066554095444854 7.6213690019949585 9.073643034671822 -1.8199515160614783 0.017044099966480323 1.1678858157976466
Ni 2.454225479686631 1.7004297052807902 11.527462714836334 0.0014048507673266126 -0.6161623014990034 -0.8402966769222043
Ni 6.441039017561019 0.9699442413235072 10.008700561371306 -0.3537740248009262 -0.3795971565116172 -0.07716009142177034
Ni 7.630717214730488 4.127481440712406 3.7219394808489903 -0.9445631376424636 -1.2164287577033566 0.8956108761134769
Ni 8.705678295853042 2.511741539807714 5.604055267604084 -0.2716131377304548 0.16877492481628997 0.9104795656951933
Ni 1.2755168403753063 2.812274071735501 0.7630300297413245 0.0646249350692371 -0.30093888327776563 -0.06542351971113249
Ni 2.3162258476789734 7.2775789821958226 11.92336091391044 -0.5465334854572717 0.5060159849591995 -1.314495517370807
Ni 3.881815227733887 8.568744119211674 4.405689440026184 0.8105194456597719 0.3181027966515618 -0.4581795822022109
Ni 3.0360382283148186 0.8503454867331315 2.300917570272713 0.6851683963550717 -0.21632490668111132 0.15566718378973834
Ni -0.14616935845977885 3.704718016198044 12.057930706121573 0.40342331239693746 1.3447064937365487 0.21687383720604583
Ni 0.13671830611932828 6.0893275687342525 12.59108364492986 0.001635221610577829 -0.2620424633228842 -1.5382907642870345
P 2.289617258009555 1.722850592119228 4.144048808416742 -0.6486263355649797 1.0066503938915115 0.6299572984005667
Ni 1.7874635114627258 6.210511535613082 5.18087492577248 -0.7562182611140461 -0.9472882498831106 0.053783107258726724
P 2.3073872005534075 3.018722262405298 9.72191981553207 -0.27016200710622507 -0.07214104094062414 -0.4517387116728736
Ni 2.8052698608058066 9.22901144211585 13.261408866491808 0.7624860964006288 -0.8039934716157959 -0.6941688000814691
P 7.525070366540941 4.780549991272173 13.288054515478315 1.1080534170210465 0.04952664597521793 -0.9137533513504585
P 3.2861700890024808 8.836757100394454 10.67209754360359 -0.211155703775346 0.4063751959364098 0.7702438859691767
P 7.7268120239405205 8.739893310354839 11.195690105086015 0.6289905636119232 0.653929750055764 0.6982571112182296
Ni 6.600857322504429 4.712638792707814 1.6032814849825228 -0.4521971393665309 -0.569290062427497 0.8208660790014186
