# total energy = -340864.89248456346 ev
CRYSTAL
PRIMVEC
9.25925184487594 0.00000000000000 0.00000000000000

0.00000000000000 9.25925184487594 0.00000000000000

0.00000000000000 0.00000000000000 13.55185101449592

PRIMCOORD
 96 1
Ni 7.030438738430365 3.010803111940642 10.79319586970299 -0.3502097044884356 0.10764591871545333 2.121400506206443
Ni -0.04635922163338964 1.4081470052740066 13.407415044258101 0.503485505227862 0.47799558848687357 0.30514109428457126
Ni 1.8879984676709038 8.03680829201546 6.745406562359531 -0.6751182112079213 0.21126548988033295 0.13017880971064674
Ni 9.03030748567597 7.370225499691151 12.702258209167015 0.8820598769019196 2.920851866977512 -2.20547172292575
Ni 5.605245450695092 5.872726715084594 8.429739454587862 -0.3220633239612066 0.7515139136598412 -0.5166037877773748
Ni 6.499133614090361 8.724455882058065 11.8031607907404 -3.153333071703511 -1.2772379185709295 -2.6073318046006255
Ni 0.08301845113944466 3.2861269625575718 1.9720521031553617 0.40971017384691366 -0.6631152732097741 -0.7958032224955198
Ni 5.5955047178600825 1.0781565323586968 7.019939672877498 0.6693008331951957 -0.11347075292734651 -0.6590012510414005
Ni 8.323706207312771 4.299440954950896 9.24939527082386 -0.8246872525197217 -0.25024521357764 0.7442459192435182
Ni 1.9546002654676946 7.279799647156262 0.8156900787139104 -2.7622194299118625 0.3752396508738699 -0.3952073522450484
Ni 3.4674786672215423 5.702837964080073 2.7066024329087472 -0.6446946046107414 0.5400990426858375 -0.7203225756587014
Ni 2.5358034974577617 1.4679062160317555 11.787399692421243 -0.6175167586443687 0.6964303424221361 1.6413315801303088
Ni 7.666141926187415 7.519225378760518 8.485545890775967 -1.4145358558248606 0.6901108279620115 0.8827512465419893
Ni 1.7547948720773223 4.203052144292673 3.8395237356343146 0.10553658568193437 1.5905065270586414 -1.3685344493940819
Ni 3.8053209856160235 9.023464898636929 11.067118795531005 1.6377865430915277 -0.9867004331321458 -1.1443972457574034
Ni 5.160949514996328 4.347348323475933 10.109829757666951 -0.545114493622558 -1.998408958272855 0.37936807121994665
Ni 3.9172745984564235 7.94827132683641 1.5300987581479077 0.5956641815456516 2.4649662230157996 1.081259436756654
Ni 5.708819440706895 3.520265661415829 7.251283929559323 0.4903556527141232 0.4394809773514431 0.2274027617618277
Ni 5.874374861895081 8.38492837984612 4.613402737171638 -0.10672649222497749 -0.01935037950215377 0.8863016828974091
Ni 1.9057947495234593 5.302597548180716 6.205894037273375 0.6879529010787443 0.16840879972612288 -0.6137259241433689
Ni 6.010300677501488 4.628644391467939 12.883866395104304 -0.6793582174311978 -1.2644322821658287 -0.330989679916559
Ni 8.159058192795529 1.8415262831662336 7.163183075137429 -2.1102437182586753 0.7319429335064491 0.09201515415673185
Ni 7.0765220343617745 0.39926541669068155 9.541845033467055 -1.8575754970618397 -0.5803704886113746 -0.4712937509866657
Ni 1.0720546854591992 6.45968920165962 3.041129939178767 0.16689981928076417 0.07643452610965547 -0.8684358583605818
P 6.668272365703593 2.6914978155382614 5.498378870763013 -0.5110463482942554 -1.1191924643570015 0.04983980634026255
P 8.940742743553301 4.855070133623191 3.3708333752900033 -0.13070999962376845 0.5976609002607063 2.0633380548460725
P 8.642974466708175 6.6141150022511495 10.387615643322693 1.007330964898304 -0.5967458446456045 0.7614036619697273
P 6.801290776262288 2.523664618420977 8.809123405933171 -0.16883303174773504 -1.059673225945446 -0.09468035969372082
P 2.171627867102475 1.0564435870183 7.315736655026261 -0.9541723785974534 1.0187237801162778 0.6219285145588193
P 7.418743978831312 -0.32519325458658505 13.554019554901217 1.770160303570964 1.2556411662367601 2.2031086220102125
P 7.778123316783048 8.466789424517527 6.366659647534231 -0.2172718439754129 0.7712206480601492 -0.32928863806505226
P 9.124631483195213 1.3070915317366547 3.2953630661725164 0.6699886032908398 0.06601358788664759 -0.4627792857577514
Ni 8.828122464587311 1.7807578139683553 9.7653957779557 1.9734872553305107 1.3458372649068822 0.6000222014040312
Ni 7.727586320762628 6.614040928237195 5.019470000193687 1.6742933797683102 0.9538594753427249 -1.5276430547652013
Ni 3.579515613327641 2.796062545486705 6.213618105078475 -0.886485259663125 -0.7736719378141191 0.2236767190604922
Ni 4.702357294604357 9.29434430841659 13.225969821151514 -0.2856035384722759 -0.335068735081939 0.7027038341356736
Ni 3.434997212102518 9.041927846615074 8.55936249753192 0.15969687377442174 -0.27856282957541056 0.20874195212753086
Ni 6.168911659881444 1.7627393100739366 12.79698591006231 0.3372474879008127 1.0571746278933085 -0.22441154034398772
Ni 0.6196569044841684 2.7490996206395866 4.895185841805395 -0.6783796555680123 -0.8752269131404863 -0.4519960790993184
Ni 1.6854893727711944 8.344104338905476 11.883238503525853 0.3710186708139868 0.9183486840306248 0.9068535389068317
Ni 0.18963225349890345 0.06630272396544963 8.173595218034087 -0.19365626143900197 0.8585281123285666 -1.0965281899902664
Ni 7.1035034939446815 6.7545222957018005 13.34155306067568 -1.8631262516767397 -0.7293983127077245 1.8087875290248592
Ni 8.563826382797851 4.9176626754146975 12.156755874127466 -0.19259850959844896 -1.0001282765022774 -0.3506527055631251
Ni 6.576800217721598 6.071485813027859 10.55015625214293 0.7498072153813796 0.9004970005611846 0.8243190705470255
Ni 1.4437951244895835 4.080441132694578 10.346960120763795 -1.009370878146468 -0.9872660758276289 1.2899167995901784
Ni 2.9688309237837047 2.914034671960904 2.1659519457832155 -2.188858025628469 5.646346944885146 2.4898516734035696
Ni 6.043245095207728 5.773421240126916 6.0060451253998055 -1.7135692945497973 -1.808127783953673 0.6621608797163048
Ni 8.98770566840042 8.826668762063456 1.687774556101689 -0.37951179588666256 -0.13849015778981955 -1.4207322144435597
Ni 0.9499158957000632 2.9110717114027262 7.2067654471727005 1.1843994971819536 0.22162857828221183 0.9068795070487606
Ni 4.445135281147545 2.000600228133405 8.869943726940818 0.7635309927253754 0.4991436833193984 0.9449752854792177
Ni 0.34318027702507325 0.7224818210298575 5.725033316436349 -0.08720384881101757 -2.345318137633148 0.23082387162823476
Ni 1.4859895346883842 6.0636154490452 12.130193858648578 1.164281129165524 -0.8029195218253269 -1.233570816700282
Ni 2.1223779070745135 2.053035370761408 9.583814443848471 0.3854541295130265 0.009023029434216718 -2.2406770671822898
Ni 3.39723798348924 6.643892755860836 7.743663159566266 -0.5723442758727885 -0.22951903677388213 1.6499645732149584
Ni 3.419265743388943 2.9458679794578266 0.033040713924380356 1.2649958679787827 -0.34923217106651466 -1.8004124175872864
Ni 3.520839735023976 0.2812256976787496 5.930032224130102 0.2047965943265376 -0.7045324027039802 0.7569435693158447
P 1.311739676112296 0.24583035603579229 10.205803753847029 -0.550507125393039 -0.7078203294266326 -0.6433314057146275
P 0.5079245877604575 2.7813403352132595 11.811576524650798 -0.40205060041912694 0.4532903724307097 -0.041060260375419606
P 2.857923606390411 2.0824890505600444 4.083809648479156 -0.5989348818771233 0.7171117820308875 1.51959858719417
P 5.699254633655027 9.321751693579735 2.4905183490267113 0.5595072720091203 -0.9550203284200454 0.8249543901381793
P 4.451616757368559 2.685729301701559 11.685232182749399 0.7649214453149988 0.3961913134248725 -1.1585943631933917
P 9.09479817407506 6.102856157937567 0.6931105485717455 1.0941090390258124 -1.739034014479805 1.8725568009620204
P 2.4982294538793695 5.791106410958539 9.856071630287685 0.8508716242245733 1.2617668195185239 -0.18313427886175557
P 7.585317917711372 3.340867658869907 13.621507463089939 0.7346317931925219 0.07164867468523789 -0.009695115800576852
Ni 0.8922613128637951 5.207727254808561 8.373512648370566 0.7587389706533707 0.24978241500860854 -0.9772513719041039
Ni 7.417012498755128 4.859162722894173 1.8513179418858368 -0.7083494624572253 0.7313487515658759 -1.1990930946383866
Ni 2.822081042888204 9.21299252259112 3.658783141585468 0.8190089711880217 0.2735142114079096 -1.4145571959810994
Ni 5.106625485012487 6.778892646292813 12.294090021924182 -1.890723444568718 0.8131435135461803 -0.22345971795367967
Ni 5.215255026476681 7.855854735176494 6.845229629489716 1.1741235691772425 1.1553501452244812 1.3223183558493357
Ni 3.7648024999829417 7.247049673736652 5.071048662035341 -0.3900893142921927 -0.9629958904263545 0.2510581963972386
Ni 5.264588319770342 6.236365308838711 1.3249905912835718 2.561728147828898 -1.3519390069292458 0.08461114838317686
Ni 5.146440267513001 3.216006649097945 3.465574039137739 0.7529794424617742 1.3186169957383485 -1.0910440269472437
Ni 7.432521745426839 1.7318597055066773 1.4934006397845265 -0.5798817219004142 -1.4466255372705539 0.49740613180300136
Ni 3.553571189940097 4.932857107527103 11.710953458169904 -0.18659909748190442 -0.4870358443122709 0.6619960720036664
Ni -0.05440921509988899 6.770401912443284 6.901889768688647 0.393620981594535 0.7701081317222609 -0.43178463714844995
Ni 3.773496937370845 4.638533272330858 4.676838796797051 1.135956571189218 0.3654092950470094 0.03610780146615072
Ni 4.364579790972086 1.4959710080687458 1.755818019395068 2.5641002476055 -3.040066721477487 -1.0937040902779098
Ni 3.240312184926747 4.125005911339921 8.49814865832514 -0.43964527084344934 0.14930858856156223 0.07186001936509559
Ni 7.169114551804831 0.967295511224125 3.9600541933654645 -0.0824341953365161 -1.375266883021909 0.4402042286707128
Ni 1.5726190940081082 1.3590359340222091 1.8724595913936102 -1.6965377929888072 -2.1841349091211866 -0.5178435737217469
Ni 7.532873515831624 3.1751548304020685 3.646111855573385 0.7851470283332542 1.0259280111742008 -0.027408216809623766
Ni 4.861227536033153 1.3324526222643078 4.53238983996001 1.0518100211472852 -0.4834923499353867 -0.12349548415320019
Ni 9.070363008721836 8.274224765991201 3.872915375199804 -0.19373622274731797 1.1919886223831213 1.5834359933651052
Ni 8.485233853992185 0.1520656173219065 11.536772118056726 2.544476045616669 0.9718212020274681 -0.9121957770553515
Ni 1.5705727993726166 4.284607633656518 0.11070361385491861 -0.7986131811404891 0.41844266862390517 0.1466960906393796
Ni 7.046670206738133 7.376966234961005 2.8524337960312125 -0.5003299903180157 -0.2908015377334476 -1.5968093293482177
Ni 8.943761259621946 4.715246173032431 5.823324903328026 -1.0187327789773424 -0.9124863117125769 -0.2911427231229502
Ni 1.0034436300338943 7.507179092241176 9.121357411778424 1.2287217161380966 -1.3373140579272196 1.5741620242623469
P 4.71171839811785 4.092255937920313 1.4970589701487018 0.60990912150044 0.11377979952733307 -0.23966615251021303
P 5.379541930175897 6.276068980318294 3.982495841818138 0.36578853276329903 -0.15123331638810084 -1.6930071541277296
P 2.6606922849849566 0.3109747476080293 0.3050590116685924 -0.2457334417502155 -0.43339903282342135 -0.5395346855419354
P 4.140237380459304 4.950560796862216 6.68373253834106 -0.813443304174786 0.25821871870141977 1.1323544556602563
P 7.571225336556538 5.471791855304414 7.619866963744899 0.5808386864970448 -0.45220870933075663 -0.9237222896377123
P 5.395171547120285 8.064299010444303 9.749472642731018 0.2476262878975542 -0.41324235536988835 -0.21907881527716463
P 3.495302718713181 6.028328440647651 0.18825540276452518 -0.6968682012905031 -0.3925634868642981 -1.5226589712870486
P 1.769230045546695 7.726225210756215 4.6317517963533295 -1.518506896791888 -0.666224251152401 0.5868077595962862
