# total energy = -340898.8223690376 ev
CRYSTAL
PRIMVEC
9.01509198749249 0.00000000000000 0.00000000000000

0.00000000000000 9.01509198749249 0.00000000000000

0.00000000000000 0.00000000000000 13.19449838316277

PRIMCOORD
 96 1
Ni 6.326124467217493 2.074102222481038 11.457244395802412 0.5502988660369749 -0.5593221525815076 0.05681906587157311
Ni 4.597705948483296 0.371285663592208 5.939477086812542 -0.007029910263587893 -0.7122809363011475 0.0043857877725214794
Ni 2.7879532694882028 1.556726091094126 4.829041323459884 -0.11523658657851767 0.48782028788677917 -0.2720903344771895
Ni 3.444450301024319 4.220207984975794 4.700764677509064 -0.9306562977533844 0.504809366245608 0.8164694925956195
Ni 5.072422664401957 4.663633316471316 2.7161931369591943 0.042508305675855826 -0.47031698889569323 -0.8057778172097284
Ni 7.209080610453195 6.118633109141154 2.7211279983343672 0.5361457144650443 0.040442424285762606 -0.8965099908889786
Ni 5.302704175120676 4.447541560601926 11.671985690886268 -1.3360544744885055 0.1459306732282648 -0.5201519101399493
Ni 5.480878453927627 7.957829078694003 12.373206593964648 0.5059766470808318 0.09111346827806889 0.1305809302450719
Ni 1.7209630376284835 6.409351796803901 0.328575763608611 0.7109017965654337 -0.02462165520342211 -0.3341781049468696
Ni 2.767182497459706 1.436690140764509 0.41902598492645665 -0.46057019392157456 0.8224681333812157 0.30819607906081115
Ni 0.5524511499334712 -0.0723370984186893 4.64070342990253 0.023990963597958683 -0.15055685914636652 0.6571004344742618
Ni 8.644643864714421 2.3179694768833263 1.4399022180534646 0.8289830516815981 0.692361314559085 -0.066480243110421
Ni 6.773191895891624 0.817250546511527 4.715450262419838 0.10126495488977397 -0.510349836447863 -0.15081294102123058
Ni 0.8201534061439819 7.289314929486885 2.501822362157617 -0.06415493741135403 -0.25013131370759506 0.40301450699429303
Ni 7.49142427762355 3.8588019607351605 3.83809519586005 1.35491865838286 0.0735122102565379 0.12315558431527822
Ni 7.551663122543002 3.922547676452827 12.719549300938606 0.2277208072228788 -0.3892524202131941 -0.417504730190668
Ni 7.7732360543643555 8.873185462672073 6.84004150779393 0.5093939002924969 -0.34426685664143936 -0.02676235569550875
Ni 6.799443843872085 0.8195403798861963 0.4496367299016136 0.40739232434701456 -0.26267315492834764 -0.5903854496452156
Ni 1.8873365609730635 6.508932503325941 9.090244537915881 0.3650087171744811 -0.166725498486429 0.30226660095025365
Ni 0.04559022188598625 4.892328170993413 1.3876128812827664 0.20406460125651954 -0.3763891910972808 0.5279096997084972
Ni 6.181423225104036 2.0016659580500598 6.971418443892579 0.8527639561512798 0.1630480496348418 -0.05371934390032684
Ni 3.220172841595087 4.105373742745327 0.13907672619827538 -0.15268624678454348 0.8824036333945836 -0.11751355553815244
Ni 5.9695685624869865 5.600589860944298 4.790843477035429 -0.1816785202518355 0.2735502068521676 0.6127620175682028
Ni 5.32639583696568 2.776603268627145 9.29156596700945 -0.6035361280945606 -0.09028171640539291 -0.48087111026245566
P 0.1764532977391385 5.494842831476299 12.321259830690947 0.011559165592509125 -0.00472105962475316 -0.27993914109764695
P 3.9472580436967983 6.059160547043933 12.638996749156389 -0.10526353452620581 0.3795598755157785 -0.22061530652634906
P 2.2367164524506684 8.431995873999062 1.2466456902865848 0.14828991748906073 0.34191146903538533 0.9886069061262394
P 6.290136219848674 7.661214520846082 5.7638053975520815 -0.7756100353770966 0.49333530416773747 -0.14056658070287406
P 4.715100476849219 1.1036546111305086 12.668869158094596 0.41673339924228225 -0.2970092092060563 -0.08126640028066004
P 4.0498588060476335 6.163149633566813 8.234818682709964 -0.41549952683518115 -0.21380882512747693 0.012780696704436054
P 4.799319466558515 1.063113742288429 3.6319173366919357 -0.4147747328540147 0.1689623582367477 0.6277646616246221
P 0.17828516443887402 5.538710269276068 3.690606487292074 0.6702595975640392 -0.30801018830225013 -0.6745674809107737
Ni 1.5520111979643936 0.9984845475521897 2.6917433058747817 -0.32454778094595715 0.9234317549804871 -1.1205687758792378
Ni 2.0030993576822347 6.412507079013092 4.900700486958198 -0.6611303815692614 -0.004619758160198495 -1.3277963482447712
Ni 6.092318055516508 5.705020686976464 9.216357561780397 -0.7091938127353916 -0.8679332076925503 0.20307909741479863
Ni 8.52202058297327 2.261841513927848 10.087523767664159 0.4752015706815042 0.46702854795240856 0.44832480089531823
Ni 2.443657889913407 5.130876521100209 6.935727694560626 0.15939888291802873 0.4491113013523556 0.7243766911234171
Ni 0.6412543139381197 8.93196386268327 8.977048337906584 -0.22052146126096217 0.006957405154439631 0.4753766628067877
Ni 1.3093249206175446 0.9705467773628181 11.531873130614175 0.4932599708451118 0.7044987212525673 -0.8273910246041299
Ni 3.869295527853724 6.943108350402523 1.479024111410611 0.5110751446496616 -0.2019915207775747 0.48842398290904915
Ni 5.593170440206689 7.779095864181423 7.953221465159382 -0.21756057886042532 0.7389417334217855 0.0911548630389656
Ni 5.309997384569917 2.9607545534475044 4.749452485015272 0.25376891046018235 -0.8743784490972619 0.13843719306469707
Ni 0.7597558956048679 7.326691501027749 6.893848084552647 -0.15491873565948805 0.2655759303974394 0.03896866795371353
Ni 5.110114764163739 4.521627586873708 7.068609249518457 -0.01123392104260646 0.24894243560581641 0.13662790777010017
Ni 8.100619121297893 7.111095575219803 9.201790074575166 1.1632763420500936 0.07830320388727804 -0.7346983847643992
Ni 4.610110715111425 0.4509998118159837 10.378923996284092 0.04530129503996069 -0.9134913559383234 0.005487762587448613
Ni 8.155602167566038 7.069590091530914 4.872213697664428 0.1792920222975299 0.17948176971083282 -0.15838612538279817
Ni 7.186218337074606 6.037596446917125 7.000710280904295 0.6098818678069303 -0.533279705771159 0.10993317208773326
Ni 2.4066238918695415 5.032738229302372 2.5758831461717264 -0.17643706934723807 1.2747069246189595 -0.1159374693002842
Ni 2.469197645623794 5.244601907011447 11.206707776319098 -1.3026812983446985 -0.02238248146025823 1.1990007920348964
Ni 1.0710470232715354 3.353163479166436 3.748094827634315 -0.4615778092504825 -0.04285951836768748 0.28549915168392764
Ni 3.581876363872586 2.79352459636043 2.624161668499943 0.9613467848587056 -1.2520778743655339 0.5107283028332043
Ni 1.250645686618635 3.333294216340565 8.300856936329906 -0.6618847432367826 0.22273029598682284 -0.4738525128527775
Ni 3.6293498384828577 2.721899690211815 7.053066329355986 -0.13047602923609142 -0.4326531557963323 -0.1289552217161908
Ni 4.101911947407244 6.845312632101683 5.985011415127967 0.6858443393761737 0.2716303641216354 0.2610461608478859
Ni 0.8006826103856711 7.381449169995236 11.20021600855099 0.20472588898960226 -0.6181515640148902 0.25646111258036475
P 0.2198059737842077 5.479895808896765 7.964383952106294 0.1884299800430561 0.66590620569135 0.08163946734936262
P 8.553032499543594 1.5570235891309927 7.941438739881064 -0.29605558704353535 0.4676643817641946 0.17360525632539778
P 1.8414226972833345 3.22517621766966 10.444844152198492 -0.4606229015363809 -0.28922570860589547 -0.013223954889441742
P 4.015565395979751 6.199137880935632 3.8097661706767387 -0.6782642130360705 0.38259017770167014 -0.5748019933846616
P 6.845330662285735 3.895944139883341 10.307146735080233 1.255946613292321 0.7137894025258739 -0.23010653384623597
P 6.396865894347536 7.754971477919159 10.20890026217808 -1.5406350961494952 0.43390605436682694 0.595907150794393
P 2.3994118182485353 8.446086462836103 5.6960389507907045 0.13342996965809278 0.4059905589034814 0.9005790187520297
P 6.9588937765405 4.121582878208537 1.6303117797584519 -0.3401479493770594 -0.4145489899964538 -0.02503046060606657
Ni 5.160914807731699 3.036490341560093 0.5909987819285453 1.0823876368238263 -0.6586032442720335 -0.04427722465082052
Ni 1.4693878795437445 1.0640873722272648 6.993664986485775 0.05305368529186992 0.5280205142547487 -0.7161370768224441
Ni 6.81650941307779 0.6732705117601702 9.074054334145924 -0.07637847606073943 -0.24349632488958065 0.42645679717763324
Ni 2.747006721504942 1.6143505593259635 9.1357779647221 -0.0402004834782856 -0.7502869832312755 0.5576236818331622
Ni 6.478434447001112 2.152677764581897 2.513024515509444 -0.592471899860599 -0.8128079845836325 0.5156535080489636
Ni 4.16623462901459 6.869346867443684 10.56607550373079 0.19054599794479443 0.3305993864566758 -0.9995590342623689
Ni 8.221430369541768 7.199722944929939 0.21859975447109445 -0.4083888839323289 -0.8731188656585478 0.5597152742548683
Ni 7.757946458287823 3.717652664880049 8.128787677843137 -0.4179518450304157 -0.00044454373658633114 -0.1308562953936456
Ni 3.0227693714961292 8.36275095214538 12.410797724695735 0.4916064944020888 -0.7084481928186186 -0.7004368924783678
Ni 0.15492706099884113 4.896745566086279 10.045499014674558 -0.44628617319873465 -0.5203899942926845 1.1693816836168829
Ni 8.538896835246423 2.301841477248352 5.712980111726447 0.4547232482224943 0.33307767279383926 0.5876179142024073
Ni 3.664021882415844 2.5221342660019777 11.419416168151034 -0.16872478830464488 0.6761996171975581 -0.312948506144132
Ni 0.9571503506117996 3.3241438979339133 12.563221294638884 0.28762493977767883 0.2886896335967673 -0.3527928918345795
Ni 3.038203209045082 8.267091810654762 7.903306703628401 0.4974207870910208 0.41668531961316624 0.03799653384843134
Ni 5.635766750030755 7.862007665546913 3.4985606863843204 -0.5732896705051933 0.1798833760246257 0.434926010990909
Ni 3.04851647432312 8.385072320002392 3.571882232852277 0.9667399308498189 -0.6555104642793226 -0.3326598685301303
Ni 3.4661947029916513 4.296259301309301 9.309562795221465 0.5330277376613529 0.0612624463549074 -0.8387385884064652
Ni 7.176482037686248 6.100918453309558 11.508518633210953 0.3263784063967927 -0.20403631912174539 -0.8782901254468422
Ni 0.29846084869489814 9.113626982104384 0.45128468872401345 0.8840211143933485 0.7680345370226836 0.31593432824533324
Ni 4.746815570597593 0.28141691571005595 1.5901874081679859 -0.6237393425153129 0.02776302904588122 -0.041914380845598787
Ni 5.935374318431394 5.719616120966975 0.45297501847893673 -0.13538683627414747 0.19182589309848253 0.27723151235849675
Ni 7.982647627042289 8.798342168670084 11.393422953311726 -0.7662604758413964 0.3172139662887053 -0.27690703913954245
Ni 0.21309423777065906 4.889722809397825 5.834963321933736 -0.7669153358165759 -0.7610056552003603 -0.15054194674803104
Ni 7.905469424205499 8.704522105952822 2.6015193633667946 -0.1833744198970197 0.32994864024655435 -0.16737624469655044
P 8.609836594401042 1.5677154882741338 3.5927692995679132 -0.8858800219789582 0.5485062929129263 -0.3196089488834431
P 1.8674222226870607 3.2272947642958303 1.5209956753572575 -2.022280365573814 -0.8388594302550456 -0.17646226615821867
P 4.629998008121349 0.9644074996929368 8.13136058510743 0.368353722387314 -0.07041711627098196 -0.06114340427853987
P 8.431725421238275 1.715842465357569 12.341236373111931 -0.8603602804412991 0.10402734812625955 0.6668395161388967
P 6.355378440842698 7.721056701716378 1.257980365491198 0.010953927908342424 0.2183599348332691 1.103597438132222
P 1.7581412771447686 3.272253028230776 6.032775175701483 0.4363614578858549 -1.2274654751334924 -1.0952076714066297
P 6.927160652608073 3.889363122704173 5.990183373423431 -0.13861254230029676 0.686436721544534 0.10131354873952228
P 2.4086252422993706 8.59221208948971 10.188171861082106 0.6455885771799204 -0.5457472421105504 0.005562838799758162
