# total energy = -340886.5335185566 ev
CRYSTAL
PRIMVEC
9.13078038719859 0.00000000000000 0.00000000000000
0.00000000000000 9.13078038719859 0.00000000000000
0.00000000000000 0.00000000000000 13.36382005009437
PRIMCOORD
 96 1
Ni 6.374234193565272 2.0276814938737404 11.264805170213467 0.723840616114289 0.32010131513882933 -0.7885493691465838
Ni 4.726247064292248 0.5157165105918022 5.639999850787429 -0.5731755135248322 -1.40030634248904 0.6264919655597855
Ni 3.0469139665295586 1.951110770962486 4.535947908371081 -0.4765344305603148 -0.8200075876558651 0.5978318786209317
Ni 3.320399095630189 4.334764862429616 4.701658786242199 0.6730957814612537 0.1021077625060435 -0.06838465922198544
Ni 3.800897273841715 3.025904041247088 2.4360903361051873 0.11708495264116608 -0.8705683313225524 0.32615266353923184
Ni 5.096591509949353 4.929498231953175 2.393874173765552 0.11645091860159298 -0.3070977037903098 0.3469392612672799
Ni 5.2462358669482265 4.778009457350191 11.731229163796396 -0.6949997806231966 -0.649708512885565 0.22457120585030355
Ni 6.040376345660776 8.232585368289334 12.370740792588865 -0.6326181330621814 1.7910003802447674 0.1852202148565068
Ni 1.7949287753272596 6.641893884886583 0.46276528994942845 0.09005700198909651 0.07806589106549136 -0.6200588083399322
Ni 2.931035234778219 1.607829957872631 0.35825711880402594 -0.06464678944610802 -0.5187131208108937 -0.9846240102190915
Ni 7.9043612117795705 -0.015241098340503927 6.719168590952673 -0.12580793433646073 0.0747522533112261 -0.8952894882183161
Ni 8.849095648633705 2.6007566527193235 1.3883935691966218 0.3752381082119731 0.3301977801428829 -0.13534364174103788
Ni 6.879860278937754 0.8758901801636642 4.5346513375800725 0.4367332394029769 0.13062952409482018 -1.0236153038806242
Ni 1.0291302384125316 7.593512930025368 2.836363653162067 -0.5971448798562362 0.40282450247067403 -0.6011162057991583
Ni 7.763820242658413 4.352314222009324 4.056400244380288 0.8922650995696956 -1.8917184614921358 -0.6617240492892024
Ni 7.741486354244279 4.111672509354171 12.421577324532665 0.16377721449138247 -0.5457459565589698 0.3235028846212106
Ni 8.328851184131613 7.702178345404194 8.697280905176925 -0.17548653250851068 0.12344766163440032 0.26481488386169877
Ni 7.281614608546052 1.2242915347999812 -0.06133784227294706 -1.504201021692177 -0.8969136540853005 1.7372998053975177
Ni 1.9451848946007635 5.933756225050864 9.27515885441737 1.0535213474114373 0.6534209287401457 -0.2129541904366655
Ni 0.05722077347248383 5.19001765314372 1.481726578432761 -0.6800179625023837 -0.9002427184585334 -0.0718456211873924
Ni 6.453105873091556 1.9841550645727684 6.635657561997436 -0.05016865043459102 0.7556492759844534 0.8321305961716443
Ni 3.3323878100569098 3.9870190978129783 0.10087685985255654 0.4953294517796309 2.178844607256525 -0.8033285843382875
Ni 6.221019701501017 5.767667332878706 4.672646645176348 -1.8785153325383 0.30781812689610216 0.6871702572764489
Ni 5.47291661664949 2.6056964048174622 8.959064939427714 0.1532644878855167 1.5081342953083123 0.1083516865332263
P 0.3559935983878919 5.851707034008588 12.351897601452215 -0.7394104455280879 -1.939340434245473 -0.001144912237720609
P 3.920967033713286 6.21595211847982 12.84641244037696 0.7867264570052322 -0.09508479422099109 0.41566741987161315
P 2.2541796279706374 8.620771358493133 1.3215306918135388 0.22242767714473952 1.0945900924272889 -0.5478126092800114
P 6.502722532798181 7.825927809703769 5.46844801281062 -0.9992628431781886 0.7733580061181262 0.8333870942865648
P 4.933022713117466 1.1207210947830053 12.639901584178077 -0.21629199656064685 0.19428026817624605 0.16128324442493516
P 4.272520333680984 6.3117705260914 8.458081855796275 -1.443661055325591 -0.15911709001155178 -0.6614240015502802
P 4.802032540104722 1.1506974462399153 3.4800453092802655 0.6713479455322116 0.10036481167300779 -1.0078032765490321
P 9.330926920757111 5.9093222571865045 3.6936663040351942 -0.5959210347514641 -1.5734223178828453 0.8039459062073122
Ni 1.064000688066488 0.0700476935232506 4.790742330364708 -0.30186268064361566 1.244095884601322 -1.0137204133644155
Ni 2.0919713173912866 6.368728333093595 4.930675189523322 -1.0114619563475418 0.8628948739376945 -1.855887310726139
Ni 6.161760937883793 5.628304234405719 9.299187415640036 0.22261922433025527 1.9076402749287145 -0.5672501491793327
Ni 8.954537898595445 2.4789063907051703 10.27941045596891 -0.04997607480781071 0.14842927128040243 -0.15287368020500122
Ni 2.858372485800427 5.552400058450405 6.8218159090895725 -0.8445703645968938 -1.2854549071640828 2.787236777891806
Ni 1.081814840272529 0.2624514942847524 9.314408426264057 -0.7080224181351097 0.22704872085651864 0.5240818413219748
Ni 2.102928253653331 1.5204666527432629 11.279758648977094 -1.1106697715979712 -2.823516329049131 1.2925784055827416
Ni 3.9628499225749514 7.016584581927632 1.5333784890500604 -0.4352731099176826 0.03931473843922261 0.14817113252300934
Ni 5.71469054605172 7.928338640633012 7.616428449139412 -0.21522858829313898 0.7248652007240614 1.4951707931691087
Ni 5.389415631552493 2.946913661577965 4.670828706834871 0.45567352795090554 0.8511122794804696 -0.17301673081177943
Ni 0.5967950996968662 7.688820013944718 6.484994209926193 0.5476855967838439 -1.5407009163904242 1.1956624716902828
Ni 5.253997030133841 4.817180504486999 7.073376208729853 -1.0195627310778053 -0.2225752584661973 0.10203422895563073
Ni 0.4528227833696448 7.383139753794113 10.874581189864927 0.9669921560699412 0.7909464086238507 -0.08156284847515631
Ni 4.653593446094675 0.2976150419837187 10.296328878635526 0.2687520141325759 -0.0842689345524097 -0.043532118954679865
Ni 8.195404831240129 7.918979590909183 4.29323442168438 0.9609284663743644 -0.2688101210640209 -0.5661440605993475
Ni 7.308513887069371 6.293700712039246 6.815748505634466 1.0709403142188332 -0.35955257915591626 0.8622590401259085
Ni 2.234621496742888 5.436092180028802 2.6143505583084337 0.4572401011070771 -1.3481368595743362 -0.2999081280204061
Ni 2.357667890965648 5.360334096556983 11.604205401710514 -0.22468870526477433 -0.7602541217463166 -0.5493809822083958
Ni 1.0161188766013536 3.525613381038065 3.8248993558017452 0.19574888230197257 0.15193214222733833 -0.5937988462021386
Ni 1.9426647992604933 1.3458861349680202 2.5733643120642125 -1.8854385420206947 0.03499040003225587 -0.47149763946735573
Ni 1.3661473362725842 3.5946238179285084 8.00305672823796 0.6603693350335208 0.21810488139966952 0.6575272375990354
Ni 3.917606906592926 2.7389053574232687 6.795676311480422 -0.006993657709013761 0.4885484243020554 0.15447804857764363
Ni 4.429067560524945 6.949217685476495 5.826184677142199 0.3990519228021192 0.5407880983330622 -0.6125175056575645
Ni 0.8508891908477441 8.991252765853513 12.944436844489298 0.5998640785596121 -0.10775364793791119 -0.8837691462835424
P 0.20656198856810695 5.83830304864802 8.081770445266466 -0.09239619164523442 -0.3017348968164997 -1.364609660418379
P 8.942896153817024 1.3530811897800958 8.01014038753137 0.36880752209528095 0.7449483446271815 -0.36087901127682365
P 2.0226595647536367 3.345134379241755 10.437450565378574 0.011574849321792969 2.497201686010738 -1.2699719810371355
P 4.016840226006176 6.29776390923642 3.6913808697465362 -0.22956917328552723 -0.4556994960928345 0.14455744702982198
P 6.831731936406723 3.920547017823241 10.19063461913976 1.3356104449725514 -1.3944930782413725 1.2695667751789166
P 6.603909839178162 7.88004594405805 10.023452772575462 -0.6226754200271727 0.2233000524473638 0.8695805134879863
P 2.7064728260876167 8.235972887750348 5.8222557024142345 -0.6365578344362199 0.9506437966189047 0.7630648517222341
P 6.872720008806987 4.533788478849436 1.177806732708257 1.9246157264407888 -0.8238002219290781 0.5770774196823997
Ni 5.3986559811334836 3.1504661449860976 0.4832985885044998 0.5001592690681064 -1.087835804422591 -1.177110162609392
Ni 2.241871336236274 0.9576270985224726 6.9223247984993295 -0.9100738456163424 0.43712121887001487 -0.46737564687918215
Ni 6.978061820186327 0.8973447744427692 8.882930667810898 0.2223078637374236 -1.455391713498958 0.617405172767169
Ni 3.1605008724460864 1.9336983730860533 9.05386800427901 -0.62712060028272 -0.6318961672944924 -0.08038759722013253
Ni 6.620947875065641 2.5735469276685796 2.454639516118807 0.009627238677118904 -0.13929645574119878 0.7153796298311292
Ni 4.34466262818633 6.9997474232049575 10.76613400013332 -0.011519056383193066 -0.6757820700441651 -0.608241761100346
Ni 8.351157680205091 7.169497758244682 0.15029994701855204 0.05824911344988033 0.893153672822236 0.06349287834732291
Ni 8.107621510220715 3.374051560193334 8.075743217244318 -1.2186532761585012 0.7699780339022997 0.4131881050931852
Ni 3.302758428248298 8.492164319117386 12.581448155376112 0.6669955821007868 -0.02084187644601572 0.5060334684606962
Ni 8.864910159971922 5.2351876228839975 10.237474608581977 -0.6306810639404686 -1.5114463904006807 -0.6410423525701346
Ni 8.997315603918512 2.241697851412125 5.755957107248646 -0.7139827494836026 -0.5463568506700913 0.35264196807901205
Ni 4.07682945204087 2.761220984276966 11.327053351274186 0.11339233428092729 -0.06842991063762408 0.41166266958759423
Ni 1.0369187939388014 3.4698790985851318 12.764064672821544 0.18612755716212462 0.9510379467335298 -0.9528770568247976
Ni 2.815229549268627 8.215446893819452 8.302299788334613 1.7644198015427615 -0.873592977081489 -0.05511133915184702
Ni 5.447295647356742 7.965975716693134 3.513508705702571 0.7478184670861249 1.007846985302774 -0.40143507832231506
Ni 3.0420746530138216 8.520624961058047 3.4043666635963454 1.5443056030225468 0.23004894113542318 1.1938580714916922
Ni 3.8505321951087765 4.2901701318430945 9.415746390517644 -0.2574083069849825 0.8938838661200412 -0.27912255873362257
Ni 6.92437283250231 6.262820413340717 11.638296995811844 1.611621711770702 0.785300523191983 -1.4924569937823717
Ni 8.877446721211745 0.032343049689511745 1.6068118758782828 -0.5890934703066694 1.011410020063684 1.2926082303794124
Ni 4.602954139003592 0.19341549120969723 1.3386271646944155 1.4473459603763459 0.38300566797253394 0.5359474824113092
Ni 6.046493968407084 6.400174740165663 0.551448905898373 -0.9514827475804323 -0.21592792835300875 -1.2656381295484718
Ni 8.068852217413514 0.09020115162123783 11.106657317597225 0.11042425279153886 0.055106196945524454 -0.13489704112192252
Ni 0.1834921592683722 4.884428700795297 5.952351972043598 0.2038306308688425 0.04456775930804582 0.5691849043082005
Ni 7.171689145497091 6.353817768996996 2.621901713549026 1.3737136796021758 -0.565534966260439 -0.15596260354297012
P 8.606664303055751 1.9545256827641564 3.5132411738421734 -0.4811145937318295 -0.786036372916743 -0.22926295489901807
P 1.889715404774163 3.303059743995504 1.3988446602345688 -1.364917421466785 0.38507772001021423 1.9984382688488938
P 4.7542055133208985 0.8502290354379559 7.873307428256894 -0.1967079037811322 0.2160053185581635 0.10318094096556424
P 9.023922697474843 1.7364096049077236 12.36857588459909 0.33411459869878585 -0.10270040178471991 -0.2366404783100118
P 6.937557679137636 8.190328117438714 1.5152429333803332 -1.1714966730773566 1.095283776060204 -0.012068758239075989
P 1.8091819232481359 3.1200241237380504 5.916737363801844 1.1997865211609853 0.8603088583780732 0.3261603768487157
P 7.019962970608429 4.140114889734395 6.231789456768585 1.0444798060344593 -0.6736423979933431 -1.5969358276237529
P 2.52776519565367 8.310416138870723 10.594288151033478 -0.5892909310294561 0.11392172442183607 -0.6850861210539104
