# total energy = -381165.7858662686 ev
CRYSTAL
PRIMVEC
9.31398138849057 0.00000000000000 0.00000000000000

0.00000000000000 9.31398138849057 0.00000000000000

0.00000000000000 0.00000000000000 13.63195323372046

PRIMCOORD
 96 1
Ni 3.5499308585623313 2.601124890595479 8.687412144719033 0.5641316581550091 -1.5032556270597723 2.4173154539070563
Ni 4.627372223201284 5.6592589049698265 5.565040532248399 0.8925504920205983 -0.5496085248381695 0.3130271819008673
Ni 5.083654856433457 1.413741289889806 7.295835336290425 0.559496730486159 1.0475746429096993 -0.33091820324867527
Ni 5.537860471820586 6.179472706311281 10.074586234155035 -0.1909602026640776 -0.7977570037877809 0.9337675896888564
Ni 8.744356895404252 -0.15893098386747667 5.179733231234055 -0.8081555734132856 0.43878755082884435 0.716370790099805
Ni 8.065628445162467 7.8165912113474905 7.2269258451399985 1.8712774200289641 1.8715718113409319 -0.9204467042102342
Ni -0.08301365313584076 1.1351135372690047 3.176926395536849 1.9509687625130205 0.5138707051169279 0.8385755804660396
Ni 4.014828924559813 7.741008252546963 9.253874520542807 1.2588689291454382 0.7767786017639009 -1.4672259871297246
Ni 6.853702503552371 6.474977393170721 1.381570798245071 -1.3813567979697308 -0.3409689026164579 1.3708584695415682
Ni 3.3009215666914606 8.749954598206362 12.78241023250493 -1.6464316203610352 0.5081803396003699 0.03183488512240969
Ni 1.9413038225305352 5.993127881083657 7.323630119488519 -0.1770785595859789 -1.0117866866768124 -0.022404592947445286
Ni 6.988717977461484 2.3798246932941174 12.847147991400673 0.05428524370612586 0.6636441491300505 0.18261954400886612
Ni 4.481589786830876 1.3019735134749768 1.74118175606351 0.08070332868833842 -1.2713673187227652 0.9524476825968629
Ni 3.2272479740713518 8.72731230950099 3.841334599425484 -0.3582711413403314 1.0942905589089993 0.9769862911681755
Ni 4.5785017629639 3.987185027859879 12.006547201975426 -0.4172918428489136 -1.0926944180664728 -0.9230157504889909
Ni 5.774230690975214 8.543649910907323 4.231808365904605 -1.222665739752004 0.36324442618520664 -0.024408510751351514
Ni 6.994073516748028 4.29503074003179 5.76334450955241 0.5860706243199455 -0.22772234988477555 -0.1365849703473067
Ni 2.513042568799226 5.494624970310784 2.8038334496883706 1.102265863804992 1.8996659984739865 -0.839961919290605
Ni 2.66461830158047 6.7336359697387405 5.0489481676622425 0.7484291040869304 -0.6884609510634143 -1.619359960955224
Ni 9.122858470233071 6.25638756444742 4.791835712001296 0.49768149695157515 -0.2696588422175614 0.4259526038477051
Ni 1.1510777013335896 2.5724471419637074 8.159787208403138 -0.2605982746771899 -0.8095527108711283 -1.1609919168912908
Ni 2.242890539223216 6.07952437225232 0.3709991628369735 1.050773352352655 0.26355041532697837 0.8086718509280719
Ni 9.258814656260343 0.9367443620954188 10.175694158894299 -0.41998867295478637 -0.6398038521773433 -0.5436525643650508
Ni 5.157682380345546 8.130630721129057 11.57834063417866 1.196297277060804 0.691821382895215 -0.8588497573340435
P 5.866504304387023 8.48420808181737 1.904942970668381 0.12312704507018794 0.3418621038546887 -0.369589394566628
Ni 8.438122502008987 8.842023304028077 1.424770906625676 0.004646754743391998 0.4877102446714762 -0.3333802916359226
P 9.212216807476727 2.773694337379975 12.140645248719801 -0.2504835548406912 -0.13913524757298618 -0.7445436529895951
Ni 5.725425428607405 3.082825378980657 1.1897754311209505 1.7947521339777155 0.20440784352855118 -1.545409120499371
P 1.2623890926613914 0.4176379931386081 8.454346526153737 1.0726390420774947 -0.5270326964201827 -0.061668680654390566
P 4.917977755861208 3.4418700467319274 5.568912354303036 0.1608476995494133 -0.9261607238758759 -0.7302226083812327
P 0.14960582572193276 5.4898096419435785 9.375062457713133 -0.18164638146231943 -0.6076763755151792 0.06449869390401795
Ni 9.326555242749096 2.263595519804063 5.679957365763716 -1.16070241067533 1.2067045884370573 -0.001370912205597639
Ni 3.8296110910777057 6.5005908419324525 12.144216229176255 -1.2729596029105494 -2.0949330560435344 -0.8828353216153635
Ni 3.3396211592750946 3.516605433227977 1.5572185158716587 -1.997418826445444 -1.2274539051692668 -2.278053193837902
Ni 8.082589205233417 3.4162007140819886 3.3477625103887783 -0.43948791932997855 -0.6101526049698137 0.37186507797468216
Ni 8.488883700464056 0.6603370626327256 12.949742427566253 0.09184674689966763 0.4797717065506899 -0.3941143762911858
Ni 8.643737954686802 0.8564541171115527 7.6161859998468815 -0.8481213151729459 0.3247051324594279 -0.40106689634961895
Ni 7.124888385060217 0.01929111820919951 11.072227269230073 -0.8249201944661342 0.7698623342600419 -0.4738525128527775
Ni 0.9123687414574814 8.222243041863745 3.6623329171083148 0.4347264933855932 -0.8055371619538321 -1.6678136855812373
Ni 8.564122041953972 5.540542898454543 2.7154987189970474 -0.3315275546979 1.3468857607760545 -0.698173807475804
Ni 4.575148729671456 1.1294320086345842 4.871964825107497 -1.5365223595327022 0.595934918708535 0.5748914677746744
Ni 6.976078904745241 7.026337148206442 5.328158044118537 0.18530223304735186 -0.5383275526077116 1.1211238770517598
Ni 0.7719735119102673 7.468714007256335 8.870161773138646 -0.3414702677329087 1.8543901573553225 -0.2698686442355223
Ni 7.232679091430952 4.723771930359074 9.23263584882958 0.08000013197372674 -0.3227480087330571 -0.28677596151382223
Ni 4.3979781760912156 7.08735304014757 2.886524839068882 0.5793523317595054 -0.7910734211200182 0.39879815492010023
Ni 4.903364119094969 4.731716756465896 2.4911165252610465 -1.044109567179234 1.1697845754822562 -0.727549946645076
Ni 6.251525666173374 5.48371829812897 3.851135702018928 2.3325230427510086 0.5031147521520045 0.4320741433644107
Ni 8.606780076618964 7.781384361776819 11.907988513936557 -0.44650651673965686 -0.37964240792725584 -0.43475528974099964
Ni 8.557676766847385 6.193741725766907 13.654036825264795 1.6826445799464826 -0.06099736561897882 -0.03496726010380429
Ni 3.9890850800589313 5.465546720480192 8.347254368385595 1.0032261987013107 -0.4889510590571128 -0.36880289410959066
Ni 1.4346698060234828 7.743085270392005 11.504223696045438 0.5312580473554399 -0.27907499332513874 0.711170219735472
Ni 8.491808290613577 5.316262227115453 11.400675508187785 -0.051158268041369956 -0.36233914076211793 -0.35203133107820667
Ni 6.775353292285574 1.212419582622595 5.5315735343972525 1.1542656539110507 0.4186851236520144 0.031523010308945706
Ni 7.694615311353441 7.1509582189089755 9.705882967725248 0.4348694467213607 -0.2918914283635166 0.4371842108974664
Ni 7.012645595595625 0.7745953976653319 2.9315653901677847 -1.800709637112731 0.17403488766364866 0.36583404128925384
Ni 6.713704049611429 8.928755098525984 8.539246260516578 -0.5428041003218265 1.4584240725673785 2.716261732234825
P 4.786548164778737 0.6105417240455089 9.243036771823116 -0.355073203228324 -0.8479302822080622 0.5790265729889705
Ni 0.7579196454242394 1.679096619061346 0.8490485705259335 0.34788131346557505 -0.31896154510743135 0.7584088410074616
P 0.7513672595319201 6.8656337136846535 1.6792111810321715 -0.3148305536581933 0.3533999292909591 0.7486383918842591
Ni 1.0541564112191968 4.260596950914655 3.709076995399407 -1.0921298038122547 -1.5041179750600677 4.093207545621054
P 4.92303524774398 3.8836880668997473 9.738667250742129 0.6009588542856876 0.6700474815532331 1.4319663925964823
P 2.6122550983301225 1.4046322161119973 2.812353879843728 -1.0180408951166402 -0.19933017189532767 0.18385830151197366
P 3.3840302224372536 1.8688969313764618 12.831771539560403 -0.9540451089909698 0.20315391651679204 0.2168175300468137
Ni 1.6819560113412921 3.5455253453753137 13.21626014161251 0.6820157096587028 -1.4517834273224093 0.11010312200669425
Ni 6.4457687476009795 6.39354525407115 7.611946275528212 -1.7547059166891068 -1.082225143104033 0.5203732821221362
Ni 5.587494678530138 8.587863380460755 6.730804519402897 -1.166884371116326 -1.512426752036079 -2.3601927407521353
Ni 8.85018235170636 5.773289978857056 7.118265212909502 0.1589383983418424 -1.5879541929504328 0.6786995008012764
Ni 2.4317315114574374 6.314795541605536 10.03938869856573 0.40358297790325337 1.132839622826791 0.9503393780046083
Ni 3.1103388799414406 0.021502257385939548 6.920425071877613 -0.5974068752683712 -0.12583981601566072 0.24744502512468353
Ni 5.171858259987492 0.6941225986466549 13.20760372732918 1.184386127445515 -0.21364735984894817 1.1496397251032653
Ni 2.8503670320005483 8.792640574815458 1.4827336754744065 -0.12923341507824196 -0.2037164738884814 0.5361223174262767
Ni 2.6188587111199655 -0.08509812216597733 10.27782475878776 0.4339785594759752 1.3723785057305202 -1.2385361311253573
Ni 3.313895942736948 3.333399419721336 3.8488453940005614 0.4566528611450394 -0.36614488766145326 1.4007328885034973
Ni 2.392631417674983 2.8687807731648913 11.05083864241682 0.3678032492004827 0.16264567199010052 -0.6978835299288948
Ni 1.4227851657980393 5.376588884435356 12.06407407649614 -0.336016443707189 0.5747811674490553 -2.005903209767371
Ni 6.871492207965064 8.227710348926704 13.407380245087456 -0.8466213335886515 -0.07223925708138526 -0.39124579649413904
Ni 0.7666859646877092 4.1993668374020645 1.5813612869753988 -0.3737738649616208 -0.16426649542297517 -1.640936144464103
Ni 5.651043973403337 3.7613768635764524 7.663080033237996 -0.6814588087139682 0.5191671776291769 -0.29390743035228095
Ni 4.89585705011244 1.6278324656124112 11.181486790462527 0.10007093458167282 0.44866161540944666 -1.6937388900874315
Ni 1.3881185271467065 0.9746988361696213 11.939737082225326 0.1912831332211351 -0.2694294998155747 2.3688969533943527
Ni 5.759039587364166 2.5973527281414786 3.4767071312422932 -0.2104072556450957 1.5390119587237754 1.2477784756592318
Ni 2.9677418251988543 3.1803148219584916 6.67889397564703 -0.39426812826023067 0.988008353310292 -2.3772273276369185
Ni 7.154506845810147 2.532397022081727 10.511476226781097 -2.067242017886169 -0.8050843906871297 -0.03848967143476597
Ni 7.7995745673883325 7.990380789691182 3.342949976215983 0.7136302512401903 -2.4459955954505683 0.6544226305317826
Ni 1.9244548302359998 1.3826977899905872 4.946013771176731 0.7970252678280789 -0.8957602572071477 -0.646327512228474
Ni 9.038250263487045 3.28240537173207 9.85357104468353 2.451408281825707 1.378614459337903 0.2766229322402204
Ni 2.1847806094688726 4.3375490649762645 9.302894935880214 -1.646860737478654 -0.7526035471795942 -0.31418417832344603
Ni 6.3152705546552985 5.587150061219527 12.479780349899045 0.25675396123043526 1.152216484691506 0.34622860835350044
P 0.8976936324142144 4.305928098232236 6.090211234473851 0.1662547294975975 -0.3366571626149815 -0.5418268240102216
Ni 0.9078402837164072 8.517486937244884 13.780678098526028 1.1429646270759348 -1.0621638535777835 -0.8429701099893095
P 7.4392631981710275 2.7028708230584453 7.9577893060886185 1.039440443838339 -0.3483474544687162 0.2788286816422875
Ni 4.6982795633551255 7.152001384822181 0.5550387776760415 -0.5510791958464251 0.5849812479105087 -0.5517219716367465
P 4.666686538555201 5.01303624970202 0.20647792735248177 -0.05329665454061143 0.21267214041987242 1.3028363358653239
P 7.970514067433447 2.068095050891791 1.60197219634443 0.08200482110858136 0.9568509538708811 -1.586910839287583
P 3.839791272712823 7.157431435959667 6.994460046974796 -0.03566891415651921 0.822138517955939 -0.39722078313065134
Ni 1.1526238222406613 7.8629189546714375 5.9933560736271705 -1.12447171047807 1.6815621455155816 2.2492444971363263
