# total energy = -340870.5698202093 ev
CRYSTAL
PRIMVEC
9.27741499584104 0.00000000000000 0.00000000000000

0.00000000000000 9.27741499584104 0.00000000000000

0.00000000000000 0.00000000000000 13.57843462188981

PRIMCOORD
 96 1
Ni 4.94668040498367 2.1355680883262274 2.9951585970911045 0.04494622569338711 -0.38216543145942566 -0.9498709230086222
Ni 4.78504000877659 0.959915543520301 7.568796012726932 0.1063624240173394 -0.08473481844523473 -0.14773173099274556
Ni 4.0712078900047715 3.1655095579540324 6.4475425167185625 0.8744452977794553 -0.11520907577469192 0.7127828156382305
Ni 8.724870429304895 5.189943495665291 1.110591891042452 0.16697155305896405 -1.8935097490646038 0.16076028204192958
Ni 6.207109965259969 2.880442436662925 7.638222617845228 0.7413943087273361 0.6555947964630129 -0.7826129490574908
Ni 4.581391478836761 0.8342260569924983 0.22764827401077428 0.5237776798179947 -1.1073674466976156 0.339009464897242
Ni 6.793368354579709 1.977211896920691 12.407538336457588 -0.47993394316016696 -0.301369543057281 -0.9593431241651156
Ni 7.261887074022616 6.133345241030933 4.311043903698565 1.6113553454831926 -0.22093000955329045 0.43305964720613155
Ni 8.902180378929513 7.437786856613803 1.173639345817409 0.8661403774581858 1.9987182619831578 -0.1378738643620593
Ni 8.485216252939097 2.6177709944422354 9.14337831710033 -0.5101035247650118 -1.5483365785588108 0.11482778117587321
Ni 7.294840451014383 1.536543976388055 4.179347291156638 1.352799040936696 -0.8058552074148831 -1.5612234618238081
Ni 7.172972331598886 0.694912686987103 8.432668976114389 0.6712744119817988 -0.7153503192550906 -0.8195306480194466
Ni 2.0241834475145293 3.5585657862789692 5.530577692263882 -0.6221115771039027 0.48200548097721513 0.09542366561764858
Ni 4.4683090711361295 0.49702821479642595 4.870530457436902 -0.13703002830452532 1.1687291376345486 -0.350740380180925
Ni 9.347180852124072 4.3147493031272 4.343917494923966 -2.586720813218493 -0.22153190480334753 2.1699403627883593
Ni 2.44000645149763 1.3291288160826142 7.398535970528002 -0.9551794797057291 -0.04283226467417785 -0.28616918116775875
Ni 4.925880441240556 8.672898352191192 11.38265213009634 0.85340416083844 1.1348908489288647 0.6747407732638444
Ni 1.7167855890558597 6.4565054270540765 0.870015539656107 0.023536392559043336 -2.875101914435907 -0.37417418572383304
Ni 0.09028872753985698 4.67559434763586 10.420728954036338 0.2380095907433966 -0.4058404064788623 -0.13742083598504073
Ni 5.387301938442838 5.283905151682354 3.2276756583330948 -0.6166454117830089 0.2111114808009719 0.700003147375059
Ni 2.9527691616144485 5.763065065778853 4.5639286011589455 -0.12471932925797229 -0.28654661911183554 0.16134212268732856
Ni 6.025810727317091 -0.17047527821982242 2.81191759625285 -1.980385268001925 0.399793428953834 -1.1689350829977674
Ni 1.6156061044071528 5.915975414759229 8.971121775259332 -1.6258226858614322 1.6423289110465715 -0.34658650591355145
Ni 6.060424761539017 6.416306389186587 11.54138405679697 -1.0882530944656676 -0.39254188959774333 0.7182654360193566
P 3.96413724702561 3.6881991017930336 4.206205406694691 -0.4827613853066331 0.5855656596590689 0.4119269789925744
P 4.739042586725582 2.9050739726745074 0.0953356411331906 1.5384771692662278 0.4990105001756438 0.468858916292928
P 1.2692152719911647 3.8073860483620723 0.44607015910873554 -0.20007296359862317 0.9510214916732975 0.7203706552878175
P 2.58548559130841 7.270014089294235 2.587520128350723 -1.509377423686794 0.2667825491110309 0.017595858704892275
P 5.373441480890558 7.924173876756638 13.353942253218088 -0.033299128372762006 0.0028472396408079997 0.9795869620158162
P 6.98252556276809 0.27597525489135183 10.58415896353782 -1.2629865508582376 -0.09408232109840571 -0.0101784831948986
P 2.109164566108162 5.602454462602765 6.684975680006707 -0.6254972057466841 -0.12602982053927972 -0.32800385781535774
P 1.8112203932222992 5.918415374823653 11.177115646266358 1.2419675254044096 0.2747365138507849 0.5352064904802267
Ni 3.8388364841734712 4.1767755918035645 2.013994062956518 -1.2517947959074764 -0.5798112736737949 -1.5226903387456163
Ni 3.4996634803891253 4.896990571884598 8.335814622195851 1.2186044251984367 -1.0330779919554207 -0.701578976502611
Ni 5.5073052975049155 3.9841393531050726 11.738651580910519 -0.017399169313053908 -0.5041491069537898 -1.5479773954471794
Ni 8.327722861100069 4.370200410751014 7.8400249422610235 0.675871544434178 2.928582917073182 0.5782429007454106
Ni 5.52874540286189 5.130391770746892 0.1203763111327619 0.5072794250526553 0.016393096646042736 0.6565818429666305
Ni 8.36375633977012 6.730365431395281 11.099120420937028 0.014904685025974331 0.4474861070441068 -1.4734313446094882
Ni 5.4446270838347655 7.895432446035778 7.4656812593731345 -0.4000081160678014 -0.12879607043050723 -2.0350523205275017
Ni 6.935869444273836 3.305348029631087 0.9875650225317204 -0.7035638681431239 -0.4996368209057331 0.6664394524870006
Ni 1.369179415315006 8.256305322788519 9.777586096522619 -0.12469593221920461 -0.05657481107125095 -0.22026177984167225
Ni 4.325065788266514 6.70752443641957 1.3987010766116 0.3370574833771937 0.14951119149067155 0.4972135561762211
Ni 3.7020688367600068 6.587734457895444 12.693419087017327 -0.6672326378122574 0.01084337047240713 -1.040220773647789
Ni 3.349016820593994 0.35789853760196444 2.3885140167235863 2.1693955460284835 0.16348050918657006 1.530531689166906
Ni 6.454918989141467 8.276734189943888 5.14732676352864 0.06876261138669448 0.9554265627195289 -0.5514265518835147
Ni 3.336919071833503 4.224990315966348 12.927008617397899 -1.9572530528598353 0.5318787116585744 -0.0028282134774144842
Ni 3.5599666758977073 0.45793040605306956 9.739498598239397 -0.4499073148910897 -0.16210162656117244 0.6710077885839735
Ni 3.324450226485267 8.001259915445992 5.910515656212029 -0.910669313108496 -0.30230336772545996 1.4078191059263172
Ni 9.278156886803481 2.732254291761605 2.6208826393304787 -1.1606288771249174 0.6150443858444762 -2.547273920076781
Ni 2.203747808909699 1.8107750773170048 0.5858696656440769 0.39152964628314507 0.26344834253147537 0.13597921844250774
Ni 8.920596047096366 2.287680579642952 0.10731649446854179 0.6247947803630207 -0.9627567778323548 -0.5330344225295722
Ni 1.3675558677436213 4.760501246911944 2.716691428613044 1.6668670053972519 0.8336992262103449 -1.9606556507834816
Ni 1.3287762743242562 3.6559044212445144 7.93645902929394 0.2206567012872458 -0.43870347575547025 -0.5319015944767097
Ni 1.572132139152812 2.847971485235227 11.908408787233055 -1.5636724375849327 -0.684415320239131 1.3395077231444286
Ni 8.142443612253624 8.655159935296973 3.080539572258032 1.734307298428097 -1.3750635087618512 1.8130388481020452
Ni 5.542021383288472 5.390521201341527 7.27178143679337 1.3449057542315483 -0.25755537408580803 -0.6436882748334141
P 7.731454141325903 4.346617222599812 5.957673682841209 -0.8602096137960475 0.01655276215235859 -2.047541711243764
P 7.851077126385543 1.1277996398161931 2.021055103279838 -0.37042731708689103 0.9113532265493981 -1.4096548735834755
P 5.342158038543644 6.541597874624033 5.298427088902289 -1.6361060700653112 -0.922027932654425 0.9791717288552684
P 3.520621160182031 8.210966597180759 8.32090488904172 -0.8071865246317971 -0.5199919875233173 -1.0268374103623477
P 7.324481790960524 4.362871253143048 2.87216512727327 0.48943699755459574 -0.2526869902499132 0.05202550113767169
P 5.3052617603070855 5.455537323514473 9.498983477790032 -0.31765902424592385 -0.07518599841453504 -0.056858403749940785
P 2.256378582466651 0.8657432901896913 5.1105149097657945 1.3454778246849342 0.4507627209128495 0.720474013634901
P 8.468785951516681 6.5019647590528535 8.920433692339227 0.6353977526898477 -0.5056992250497291 0.18083005620861115
Ni 7.166747186339461 4.564098377847839 9.768108289671607 -1.3738008399993438 -0.11510494609665983 1.2313861503441375
Ni 1.2175864592211247 1.6648784538450112 9.760952619718413 0.7773337029364226 -0.7051867484585275 0.015082862475051442
Ni 4.190441223647278 7.645508171604134 3.7206672699963232 2.1417919253786017 0.6161908407440936 0.3910470502197717
Ni 8.367485860476958 9.295505652280564 6.109996771471479 0.5815634804782113 -0.4620994860819074 0.8112817777470931
Ni 2.356287061302331 2.462420685397435 3.4025113214589227 0.5833334278944405 -0.6113975331205084 -0.8918331542385995
Ni 3.9153102134930466 6.869099890723795 10.241900291626372 -1.4647687838384837 0.2630526497549534 -0.8976914127915894
Ni 7.7608449910753174 7.111333188374421 7.059712725277606 -0.5409181961530233 -0.6091161932854994 -0.5621035719813867
Ni 3.922880583883047 2.0180510764020414 11.668776876662522 -0.4028131896167644 -0.25504366340754786 -0.21604388510558278
Ni 8.89327406082363 9.220627638288294 11.50049941798362 0.15283408521631742 1.2412599578144237 0.2142816509988374
Ni 7.4243809923815105 9.158830779014039 13.615775017150474 -0.287579174141408 -0.16493215403143208 0.5668313164743592
Ni 6.2979636873546685 7.679361457821183 9.475466159283153 1.181308774071772 -0.2759819562221118 0.9440928828742644
Ni 0.907483306637793 8.579762386081859 4.622778025785036 0.4738193456219969 0.08283965830505088 -0.7245988344365522
Ni 0.9722730598922135 7.623928905026755 7.354228893434174 0.4639949033324074 0.37941100864274013 -0.15007786262741893
Ni 0.2983811391179328 6.560217645914144 5.351451224842251 0.1040620580189369 -1.7174945977461327 1.5735195055823417
Ni 0.408785157196514 1.6726436499435777 4.459062271910991 -0.3084691302165397 -0.7304306106269807 1.754207894006766
Ni 2.2731707030621173 4.066170253826131 10.172636969006685 1.7642997310251294 -1.1994363369104184 0.6391099114341122
Ni 6.052084365729445 3.2842140789590024 4.752859440428803 0.27917166680400307 1.5261633848958813 1.4546437795893399
Ni 7.882740942734896 4.500260487340984 12.430730945450186 -0.4378763518684846 -0.25673416373609337 -0.06380449605047075
Ni 8.57712760030887 2.32184002054489 6.654220122555861 0.2765691961841495 0.12229297920466681 -0.47184345284254864
Ni 1.1562905803403245 0.33254985743456467 2.292202391564626 -1.9457597075082556 -0.2345267744011187 0.1586272948593268
Ni 0.8297654760078019 7.373698475910221 12.372791635205543 1.5346531675344472 0.7609249225610959 1.095869730470661
Ni 5.801158130510889 2.1280348275950014 9.875133473318769 -0.3705638426647554 -0.194032156721182 0.5406947672883076
Ni 2.7845881880483607 8.388137385584974 0.6038557895106136 0.2612132825533695 1.5136729657383545 -1.8057356295724127
Ni 6.717942973120514 6.674580336842496 1.739777805891078 -0.103064469992358 0.5737136454164894 -0.17918275041317527
P 7.681124166612971 6.677521277300376 13.10192592177303 -0.016053711028752995 -0.3914208886194227 1.2566456962418744
P 6.340574853042502 1.0976851517206767 5.9400892710309074 -0.3142489701231104 0.3350299114242037 2.366119390649215
P 0.3787634432479338 0.3479151116501514 8.072990102632716 -0.5623154308818767 0.8376163018765639 -0.15978094884779578
P 8.583130087615647 2.7222532387218745 11.244939114125595 0.7681160409928964 -0.1304408051227818 1.0605114055760252
P 0.8074792704307688 0.06876234222623194 13.65420206881148 -0.8340918336630733 0.14186215958584603 0.1772071147440432
P 2.09409804464571 -0.025049019672795575 11.529326200919659 0.6379410879369917 1.0880309511525326 -0.024497213810415877
P 9.26339652002592 6.619129229218681 3.3184059908123684 0.06700140572121364 -0.10190078870156 -1.7918089921889915
P 3.433302133085604 2.4867646215535144 9.194718602273399 0.6525192428614826 0.9854927859772898 -0.7414148775526264
