# total energy = -340874.1782691697 ev
CRYSTAL
PRIMVEC
9.22579419461996 0.00000000000000 0.00000000000000
0.00000000000000 9.22579419461996 0.00000000000000
0.00000000000000 0.00000000000000 13.50288236139465
PRIMCOORD
 96 1
Ni 0.26170256252816687 2.3183958997446164 5.239807223431283 -0.013627618085763628 -0.4700467659534421 2.7575773031541604
Ni 2.0030859386806408 3.468086668914218 6.962490837753271 -1.2580847426812463 -0.027880014239719725 -0.9956900382252658
Ni 2.4544394578640945 4.709970797387219 -0.0044219230575522584 0.9374560942840371 0.9625860565824454 1.6577005084066356
Ni 5.756018996916632 3.8813930136988692 13.190277268206467 -0.32789998524764175 -1.0973023491521297 -0.5219995048716494
Ni 4.419921060257268 5.929113343684408 12.514619787576422 -1.02842583789539 -1.5293520670365082 -0.580589032380084
Ni 6.976683799221533 2.14844754872611 6.007904392064158 1.2850926387286579 1.5104488023741018 0.8442934567864233
Ni 4.901848860710757 1.6714832254371592 5.338094219662524 -0.17820830231504792 -1.1987897044653548 0.877230059613444
Ni 3.3649976469131975 3.472865630199033 11.534567382747394 0.2221728808214561 0.1279396359674829 0.6051957751851706
Ni 8.19571563599089 3.7341124385042854 9.700051461463731 2.6380058366457146 0.7499198296998439 2.6303097535530378
Ni 2.5190569189429506 6.894758748624696 4.729168752092957 0.4621444803872299 -0.522308808581952 -0.859452681025365
Ni 4.757280668948096 2.1346180835409005 3.0742282978523283 0.8743403967704747 1.0426725776223915 -0.1359205972904304
Ni 1.0614645012802368 2.758669240350727 1.3583902226680504 0.11504041140731155 1.0420609121803213 0.5595779773460556
Ni 0.659373031665125 2.077501192972768 10.94092628807465 1.4119724659730584 0.07227808073912069 -0.13170038856149577
Ni 7.6666717056502325 1.5357072153432794 11.162116544050921 -2.1655826000402962 0.37818690642765196 -1.102205957101334
Ni 0.5178881002526278 1.894922729987249 8.47989131008987 -0.3584040673737698 -0.4754892771252521 -0.4571251727957676
Ni 4.846669386879712 8.043656099511491 13.2140013974418 0.18686366399720075 0.15229518199371192 0.623063656604527
Ni 3.683389023168541 2.829606370310083 0.7925824258720633 0.5096834065084577 -0.1325719925331717 -0.5749148648134421
Ni 7.083047978087629 7.085658877785705 4.001701057595603 1.1821382119516028 1.3870031976222306 -0.6227193858912308
Ni 8.075798765759167 4.05981986939063 0.9160207816682912 0.02098431556115096 0.493334532836789 -0.21016325795508967
Ni 6.377283963942647 6.046188669368402 13.570801599220202 2.2627672142131097 0.9628652783857611 -0.37886902009634105
Ni 0.5373166998080195 1.1460558063390656 3.2858855409027314 -0.8410232706755838 -1.452194546717899 -0.7354116087813399
Ni 0.25572148028695857 7.548286317220209 3.808420673586173 -1.5385121362692211 -1.6287226331170466 -0.21744025123247715
Ni 6.7303735513798255 9.33899447834013 2.519016325449412 -1.8288747866930377 -0.17575675545076183 1.3407289971460392
Ni 8.840395668153704 8.203945044226518 8.057250306950053 0.4719766359863033 -0.27622698235338233 -0.05069058437633205
P 3.243816842905376 5.220609268725545 6.101992729452308 -2.6266680430353926 -0.23749202767702973 0.7337146806948912
P 6.543744964834397 7.3370064091438385 8.26951645240354 -0.6386638250356291 -1.145867916765659 0.06670264353387222
P 8.502786963025251 0.7520673515819721 6.871494986509269 -0.7211705254812933 1.2005591376609517 0.06126501745806868
P 5.443541354606398 8.210006390875407 4.784300251795274 0.6477997258986262 -0.22884412219404457 1.2248720033747034
P 2.1570090855452393 1.0399038207346503 6.974184531630691 -0.202907861944257 0.6179034525598261 0.5059725333157737
P 4.84869906155666 4.1930956893142675 10.142406141193112 -0.7069888346642728 -1.8727838293711616 0.4449741392555305
P 1.9839700935413787 8.624862669049728 3.507022287273883 1.4662389406261072 1.4087413606302706 0.37355146453816956
P 2.0446020116182275 7.020875352415098 9.482560748875898 -0.09343466021207779 0.24853825818886224 -1.2718864244510288
Ni 7.029058631680795 5.423585962214398 10.74713294991959 -1.0486730181802004 0.5247631836597156 1.5977331267140675
Ni 4.180078093999838 8.896257850739723 3.271208225250197 0.06335429588692959 -0.6905031783044236 0.7087806364573729
Ni 6.9870166884859986 8.829315489576361 12.393350415946333 0.5381622306744409 -0.05445930739014492 0.45165257971697054
Ni 3.0202850804154244 6.901142998063098 2.271130311994874 0.18495847655468792 -0.9421588990763452 -0.7823928626268848
Ni 1.0857560168457179 8.152686532839578 12.3255251462985 -1.8955717737999545 -0.07563439880586328 -0.9285785892887493
Ni 0.046209234338330886 6.122449082457755 10.746363518701148 0.6861392449087732 0.24765868379738637 0.19937773730381145
Ni 6.219928821715208 0.3302880376004582 9.1454483914639 0.42731605985413507 -0.3852121887055495 0.2726179248458853
Ni 2.7410202964552597 1.292487608486926 2.406848199586641 -0.9083650904553516 -0.49195770709392045 -0.9846805744886395
Ni 0.9084307209559016 4.763092919159357 4.940663621169204 0.8635692742968999 0.7479475364648215 1.3446861820215745
Ni 2.9894340253258047 1.233091946804219 11.154339199720614 -0.7345510605532575 -1.3999476735980405 0.5952042111900974
Ni 1.2599021041279135 8.392298854247354 1.558583494111288 -1.3088758571911847 0.5290882933976307 -1.183367970593646
Ni 7.257452387601437 2.360853003668788 8.481146940651383 -2.131537080419813 -2.776628406248341 -1.5319295979556973
Ni 6.336847308901437 4.476392145246372 2.9160825050802783 0.0218219809710979 -1.4126872326518962 -0.9564084670168239
Ni 1.1219119034773626 5.318273523862721 2.584910636415949 -0.47174497959147144 -0.5244500232946709 0.36352596198136744
Ni 0.7784752642878715 8.842250052744916 5.770443525813946 0.898636293203362 0.3624383853441436 -0.18131830869893933
Ni 4.343430002318262 7.9924898460644105 8.688848163240534 -0.8270187288663756 1.0206140551604552 -0.6692442689256475
Ni 5.007742524083561 1.2194008685288018 12.891106911141826 0.7841790079930301 0.7729049777411076 -1.6556323130236972
Ni 5.045374537752986 6.025965728950805 4.0587635159792175 -1.8928528322068954 1.1227832670320532 0.8782268763090746
Ni 0.5946273320498611 6.192260665550803 0.512249294968305 -0.4525784339653496 0.27856128691351384 -0.9413996523128174
Ni 7.729656201193545 7.822080205346598 1.1199421964613239 0.8120780483961433 -1.6739622216811363 0.24773915932633464
Ni 6.216256955708729 4.640924955195019 8.622414143325807 -0.5391459347439489 0.08150422732307898 -1.9660971335140272
Ni 7.49459219622093 7.82291052680535 10.042633792130106 0.7334053769845885 -0.5548193796151477 2.0183085254102595
Ni 8.798473660280727 1.784056363655921 13.275614939998773 -0.34124349643408325 0.24718920036013559 -0.4903870201726909
Ni 4.422541185749329 4.009760711221887 4.9258922024180105 0.4543491527125271 -1.6960703664340855 -0.40866399197058645
P 8.130544627272865 5.774655100768615 2.5703541786646324 0.7248019515862937 -0.4859510958885243 -0.6730047644093442
P 2.626998708580676 7.094238866192805 13.342211333887654 0.5654362358990456 -0.7693619975848557 0.7543968916345911
P 1.7095396256299467 3.167159720674619 3.540604177383398 -0.8138081437133727 -0.21402762600650235 -0.011646840210308974
P 7.5592926894456625 3.6243992964212235 11.88219899046238 1.0580266914809584 -0.15025835406934124 1.096457227543015
P 1.944972662362006 2.1435947810894054 12.995632389266488 -0.1500441811760061 0.3469022373817574 -1.0696923007443448
P 4.7272783869051995 1.0090435398510444 7.834952955695445 -0.7102970731018993 0.8318943117911222 -0.753065317307361
P 4.7924493956232235 5.12866500585977 1.4280108318255857 -0.4925614021161904 -0.4941976521680328 -1.0548781185496476
P 8.289726476709557 7.0572895612783535 12.665635886755991 -0.20891447314965308 -0.9002946547423915 -1.5268370139241383
Ni 4.890768682133414 6.3510365800521065 6.703317065356702 -1.2901327722557265 0.8584705196177538 0.6615669548860478
Ni 2.131158410796102 6.986140238057317 6.966244813326227 -0.5162314920396206 -0.2144605997788629 2.334729563484024
Ni 2.629600382484764 1.636923401165115 4.82364826314612 -0.24583448610445405 -0.48649719819998155 0.7003417616614003
Ni 7.063553875394936 6.339891820916861 6.398178542162435 1.5885620017377609 1.0873637498821789 0.8139220435834176
Ni 8.75057333790474 3.393210124922784 3.41612146170794 -1.5663237591648507 0.3189810854914571 -2.062547697734293
Ni 4.2684704261809525 3.3000665088388126 7.332159176983526 2.8246267885044904 -0.6420152580063653 -1.0729331762791456
Ni 3.360846039619439 4.2235592610564705 2.793327780618423 0.3841783481243964 0.7734045430853455 -0.45398559872552136
Ni 2.48162787274122 5.728064841138656 11.133869008024188 -0.6977187222162564 -1.4060864395059267 0.17014532280125536
Ni 4.759153505127279 6.204383358848578 9.984705954270595 0.6327235482917941 1.483528323834174 1.12345226807462
Ni 0.8109694332864211 4.106354774256671 12.157050154579577 -1.8669322556863912 -0.35664646125271476 -0.019124636644592873
Ni 1.9834257716961974 0.0363265638203881 9.206103374025712 -0.1745964165940735 -0.4252733183924934 -0.25572706262781764
Ni 6.442676391716338 2.0070807074766353 1.1989638896907258 0.8833497993579367 0.9366251137423094 -0.2585087391380128
Ni 7.651052436431715 0.2584929088003921 4.736919341620705 0.8845013964638768 -0.060147101803541575 -0.42059519619053365
Ni 8.631920401449117 3.7613193049693834 7.26974944840555 0.5466586981812263 -0.1108320297529188 -1.9198537862757707
Ni 5.512098229717333 7.055684273124767 1.9970495016755159 -0.0295849127459684 1.1791012248974921 0.07597044198904336
Ni 3.7167679458103597 8.78478258200531 6.297865561571841 0.4891348929331447 0.3698634741636211 -0.16049005909967845
Ni 3.2801018906528263 4.987104422936587 8.556803064234645 -1.3013533235618944 1.036099038169932 0.11021882164895212
Ni 8.355192710835139 5.666408859929348 8.376688810822822 0.6051538662036418 2.1453040522969182 0.8854542472954493
Ni 5.039137901018362 1.9031060092529466 10.40978994765794 0.7134903832282163 0.9408622917521087 -0.13093060027500675
Ni 3.22103835755362 7.865210792231757 11.159821166507172 1.2043535717063774 1.8121615877034145 -0.028053306592790397
Ni 2.8935226710459943 2.46799214922972 8.952532426316921 -0.1789850325800724 -0.7167461711613528 1.3352322356975264
Ni 7.756318745813462 4.976254889208898 4.80475752738012 0.3528062615710182 -1.2421958393651318 0.14591756060214225
Ni 2.8967240215591814 0.14433570175421148 13.352946467769915 -0.3945856595006495 0.7480550085769633 0.6483946791701478
Ni 6.4834082721651045 8.88391373838628 6.728567140917342 -0.9703219917741223 0.4206273349800498 0.05138143979576957
P 6.116415413190826 4.2747900950614515 6.27715273149358 0.7311566901597278 -0.1768366187785019 0.7767814299773784
P 1.017236044910728 4.089204023236455 8.94669895677949 0.2705075633711019 -0.24119878710465553 -0.27870835401433935
P 5.252650451239376 8.822682143700334 11.043102879050442 -0.17692095096219207 0.7315084170721918 -0.08017393854742966
P 8.514817398383165 0.539013323322069 1.5050443664509767 1.2550996919109934 1.071734527985354 -0.13000603157820836
P 9.15105582904867 0.06405930054269582 10.538202851571489 0.613018613663699 -0.5834236736154017 -0.7921376007184745
P 4.653518163986088 0.655892139594158 1.397710556636938 0.18374645852445776 -0.3229562680891212 -0.4614212290679601
P 6.778403034871621 2.1885336235958466 3.7962001868721447 0.7011076932931475 0.1746720070270153 -0.39840040526104936
P -0.018486645989407916 6.728602198934489 5.974984913962848 0.49069503833141304 -0.4104179985472158 -0.12934397251417723
