# total energy = -381169.73060153815 ev
CRYSTAL
PRIMVEC
9.23776261151415 0.00000000000000 0.00000000000000

0.00000000000000 9.23776261151415 0.00000000000000

0.00000000000000 0.00000000000000 13.52039934930334

PRIMCOORD
 96 1
Ni 8.125360278165271 0.17437754547541903 3.5509432063370454 -0.09028145929507678 -2.06334885347935 0.31369901115691134
Ni 8.606943306927047 3.672915849566959 8.265033397905015 -0.8780852085248878 0.4993457720278755 -1.5169194977001101
Ni 5.6587483921490636 8.233756182014934 1.1161443264293665 0.333447140318116 -1.5135485243453481 0.26927240541242015
Ni 3.8069927328526263 7.046712953041186 3.708713102593023 -0.011467891430283475 0.0480037815727883 0.8199996172360651
Ni 3.0680641195123655 1.9447799265340469 6.411629721798727 -0.09609112399831837 -0.7454311978008711 -0.7529406188040387
Ni 9.013875977839058 5.199095811294148 12.737175507241236 0.4345035787415098 -0.6806512252110084 0.5873448630466788
Ni 1.4338208133814465 4.1993112636683225 1.4387463882862226 -0.7222395901757562 -0.25456209578543904 -1.062456702227854
Ni 8.670637678585768 2.7870144366487066 12.319030040343822 -0.17628768825356736 -0.5723103373110595 -0.32407624062617735
Ni 4.958941702517966 8.896962857068532 9.570833605021743 -1.534102694347616 -0.07381919997399544 -0.480285927182947
Ni 1.6801365096697916 1.41598269421205 11.054372979346542 -0.9633082794604505 -0.7145807880789178 1.191993507479128
Ni 5.039531941582605 3.9999234003062 11.552545181802984 -0.7913963516770758 0.07633271042446854 0.047922020492259396
Ni 9.389723578318643 8.798201939388564 10.072845945302486 -1.1404572872730487 -0.10434565069762675 0.6790118898353725
Ni 6.948146028371345 8.242707573767987 10.374810845986667 0.2862182892381393 -0.2883181091899615 2.818905826860313
Ni 0.9938077153614027 1.6105299700833573 0.06675576611378999 0.8142439456992104 -0.4451106648333947 0.08775020823279081
Ni 6.602746092719483 2.133331894616158 10.99814179592032 -1.2059656533885037 -1.4522863351007569 -1.3991431754188743
Ni 0.08081009780945035 5.110117683982066 5.187006351658213 -0.31758729046772405 -2.0962715723492993 -0.9242982167458403
Ni 2.347296947025048 4.744357720029144 5.2196045675696405 1.1716596810177822 0.15992801594862135 -1.0890475653425051
Ni 3.472659636540453 6.748767402771609 8.840150618388165 0.8921113476006506 -0.31887284204836697 0.030211490586373776
Ni 1.1679487741197132 0.9502331901816801 2.5485813230052328 -0.7037646713000203 -0.1699244650397009 -1.2716437123126034
Ni 3.25350296167004 8.73429509919494 7.625193642809463 1.2091530499775498 -0.016707542562667998 0.5852681830233081
Ni 0.9914982747646398 7.721716250663049 7.822497466977067 0.24188784275188022 -1.9375982547433854 2.1851918896307914
Ni 8.61830575466312 2.893923060754055 1.1265063244989222 -1.3535330908892431 0.6343518279238365 1.4823546152410472
Ni 3.820683096710237 4.025853799326654 6.89202385054129 0.8669842135157197 -0.17066494275015123 -0.22237008443392672
Ni 8.3730431632869 6.281456716897828 10.756572461946442 0.3215997540612268 0.6184742374616317 -2.0160948055883923
P 2.170199804302881 8.52411752936474 3.7990288578987492 0.024185081886635765 0.22039727697827202 -1.5867642864073899
Ni 8.21403355931858 2.732003561633814 5.550542786204573 -1.2165105187838854 -0.08171248667914315 -1.4272077948655741
P 3.097994469646413 4.661097767634647 2.7130171885997068 1.6951943915870353 -0.7960168811682227 0.6011912820114678
Ni 9.094900391735889 7.168762269698912 4.364560976129096 -0.2821271498879012 1.6133086125548217 -0.5100469604954635
P 2.0069315918741304 0.2098237635307749 9.385617392937597 1.486086057259021 -0.9824403723042111 -0.37629226050810033
P 5.863965283577415 6.6696644434512855 8.850710304572805 -0.29621988053554144 1.0391324256796168 -0.07525747508241878
P 4.302506307294077 0.659987314861711 0.6397991089410484 0.009604612969299589 -0.01091124759586508 -0.580297212171278
Ni 6.521065797693174 6.759658724625943 4.274555609639574 0.3623620235802533 0.6440729118663423 1.6868015395376497
Ni 2.7442251212718833 7.84506809181735 10.820023880454384 -0.12890559942517799 1.0401287281546152 0.3241811416351578
Ni 8.703514874921284 6.021164286117873 7.029430947167489 -1.122812320497776 0.16422510066207846 0.6930891938640451
Ni 3.2362745348181887 5.586527565807094 11.022586762748936 -0.19906714804192815 -0.2822816731878945 -0.07108637442386466
Ni 8.810913100433147 6.467883999630917 1.1056576185675853 -0.556745392993267 -0.8502985253299227 -1.7041752549294071
Ni 2.952758369397187 1.609726284755684 4.058851086573203 0.39623347951671756 -0.8592202532995847 0.059805145083090545
Ni 3.486146769625549 6.566875861370562 1.503968685843762 -0.6230687988108495 0.14595278471545187 -0.3609638576811461
Ni 4.024163288809823 9.074521887910052 5.38601361920999 0.12998006343627935 -0.09915227942214537 0.6308754393394619
Ni 7.183699731478774 7.185473381857088 12.620738131233644 0.7380205071590967 0.3110528317833159 1.0804292275458747
Ni 2.9379594740531303 3.1100589873239026 10.499563131918846 0.9861512454968953 1.799405830699643 1.3442935745688462
Ni 3.9160814688813192 2.630434364188181 13.074509952552962 -0.4601562463126075 0.2956259557052844 -0.4091231909951922
Ni 4.585699151031532 2.7685204363498293 3.2028070454661397 -0.8699862335668371 0.018268716402200794 -0.46121348393252826
Ni 1.88990761795496 8.230495251892306 5.8501548288087735 -0.8872964427105107 -0.8977657176729507 -1.2719555871260675
Ni 2.688890924573444 9.316190989717711 12.810903012628533 -0.98388558939117 -1.6256285675727549 1.472622732665264
Ni 6.079048105235139 1.166997284593847 1.6799231173586509 1.1166403873591093 1.496894717838751 1.3440477771066273
Ni 4.898729967279164 8.081730326411225 12.367595728541266 -0.9315502703225633 0.672424466425842 -0.7039970990258005
Ni 6.331728619808162 2.5988689301116255 13.463789259543319 0.02180552591086567 1.8595683591221523 -0.7002075500763811
Ni 1.0907303183263486 3.1174861482830916 6.259201099754943 0.2671669290336431 -0.1433873379811208 0.8943916589943951
Ni 5.127484677269724 1.0684857864983281 7.301691822896107 1.167054063924971 -1.0781268046649433 0.4738273160417969
Ni 6.394702446000694 3.915009888444421 3.3210965928323355 2.443216490043534 -0.361329725660997 0.7614268018981789
Ni 3.595318645515725 6.674449604367778 6.1851909188386 -0.2520598981888756 0.28130311132470903 0.09852801557458514
Ni 7.232798438565954 4.2626176493067875 11.19847283482216 1.249594188711732 0.8336822569294804 1.1214802319499138
Ni 1.3980337218940084 5.82362397523316 3.2390551012966915 0.6003405039753984 0.12434446241705684 0.04227819194292074
Ni 4.962239583690144 4.140374339638933 1.2779982374366594 -0.4870684973224192 -0.8330790761278426 -0.364154853814618
Ni 8.376230191310432 5.194855678358492 2.978733109677099 -0.347011509266112 -0.34244085917629413 0.08192768801374278
P 1.5462074305823168 3.648398828191724 12.567008533861834 0.044928999302206486 -1.0599835580970132 0.3500559525193907
Ni 6.73967744458275 0.5036585095381135 12.78752593113186 0.24859507956872667 -1.47055556572359 -0.5775193923158248
P 2.4283860252585874 6.98387769328446 13.158322323138204 -0.16196664364520494 0.8662023410443728 -0.7997786622035
Ni 4.431853456237573 4.478753575876635 9.107787070265825 -0.5431172606868712 -0.14364084875282357 0.17013272439576504
P 8.300157218053062 2.134468139389765 3.1519430019867944 0.4603575636901362 2.1431857204023346 -0.16622259070808149
P 0.3876211286418804 5.677630378468197 8.95211322229547 -0.2801926518693497 0.214322788649418 -0.452137489773189
P 7.036532938890654 4.65973981656375 -0.019572970945685022 -0.5427454791697491 0.438564893295077 0.14496779509436325
Ni 0.844159659796121 4.495455450272424 10.698137148414668 -0.04607468287087549 -0.29418125283895785 -0.3237581951651263
Ni 1.190442725532184 3.2037483734533803 3.652630647141232 -0.9801518333803506 0.1024638602938816 -0.05756622845024279
Ni 5.823041996202777 7.993953108209461 6.99657684523794 -0.18185798325249325 2.0618650698449716 0.2696164190154002
Ni 7.898619400375088 7.8177427906764505 8.358756963755324 0.04554734961249575 -1.5444153891275338 -0.5111144825280295
Ni 8.837656422543661 2.1988645809899023 10.102577683545212 -0.3958377867401957 -0.5677689977972802 -0.6394935200257761
Ni 6.741783654406998 4.6464928653007185 9.041888568501554 0.0767703121825194 1.8620607865267027 0.9475114216375102
Ni 2.0317072705962027 5.365200016775724 7.482811087361597 -1.1604111046871564 0.062105768191809164 0.6769447228936986
Ni 6.316421647532818 0.22763694074172658 4.964649715896925 0.9960057696934718 -0.49078039895636766 1.3614014378937263
Ni 5.17643558015871 6.040147887823265 13.307223043726374 0.7620533797385843 -0.951697948915032 0.31395663569367216
Ni 6.392272914492899 3.378009523122722 7.266673313239272 -0.3732509025786152 -0.8541302403711871 -1.621935434991884
Ni 0.9278593296802411 0.9131629734986806 4.814627530954969 -1.4722306394331677 0.5742656612652175 1.5112597283111715
Ni 0.4801835077601379 7.605228066962328 12.283079440462132 0.6655418803733958 0.14468214553314437 0.6876070877035513
Ni 4.282072376893918 0.9860387571938923 11.581439054997205 1.343201369945932 0.500026600144984 -1.8379826625315765
Ni 7.075738002461302 0.5904047934574833 8.82937476856367 0.06550219546786784 3.034094820164768 -0.9365042718937291
Ni 1.0846611084380557 7.751711265133806 1.9063767007385959 1.6013336995811325 1.853971324650349 0.40360740338328555
Ni 5.704539980301678 6.0330994751219436 2.2709939534842403 0.7002463737341166 0.8394068181180834 -0.034029835891199456
Ni 5.570398432679301 5.856676689054032 6.800287327380435 1.852923343001809 -2.7786822034535756 0.4654416630812629
Ni 3.4444197969232366 1.7491703079882284 8.696739899986621 -0.8023633922115407 0.035704395380144964 0.8661123524337278
Ni 4.792329420105103 5.059420844001926 4.727339914159717 -0.40537555102730183 -0.8406638304536361 -0.5426742596121815
Ni 5.278134106277761 2.2235755953752654 5.45034354892094 -0.14705527375101127 1.4315732709231217 -1.7900598707083686
Ni 8.672596084211822 8.682997804659642 6.181485652345155 -0.6259759451553155 -1.333862094822877 -0.7954995752121718
Ni 1.3511890288292696 3.104858127099992 8.733352847431462 2.6764065479111006 -0.560704377641015 -0.15725946797752272
Ni 1.234968740237773 0.678598634742904 7.4380716803448665 -1.1159587879110524 2.659144418396543 -0.2197619573871183
Ni 8.276610161728467 9.239702317152924 1.1477965954723601 0.4034798766664858 -0.2802947246648528 -0.5760960296057369
Ni 5.695662490647721 6.3280058015661815 10.976386865498812 -0.5579746374146778 -0.8689567638610584 -1.0891429532697887
P 5.4776235850261425 2.397208577202288 9.02378440177541 0.6890718451745358 0.2328175050194958 1.2631930104420892
Ni 4.871755701108973 -0.03895841531491289 3.286254524437093 -0.6533239981509652 0.19675881162372566 -1.29303940437956
P 8.333191456349159 1.2279480408236136 7.078591547262662 -0.5083487468574343 1.5036657180139974 1.2632734859710373
Ni 3.0734035461720812 4.912771366107482 13.317795662778355 0.3205247758294932 -0.3078116991381989 -0.08989733648278066
P 7.053742890217731 4.70034902001723 5.39658623826197 -0.34019782877838833 0.323855639974939 -0.011741713916960423
P 8.827180799996745 0.3818216614152894 12.174227191150546 0.024894706359150677 0.5750120525129389 0.06892433377553936
P 7.604923220803554 7.376556496833251 2.497258162735251 -0.6953792754498024 1.0639080899624 0.4885962468208553
Ni 2.9898295098564254 2.1435488598162373 1.5440162333441083 -0.6240003094861835 -0.10560857657045038 1.1225097016556926
