# total energy = -340858.5511021701 ev
CRYSTAL
PRIMVEC
9.41416030800299 0.00000000000000 0.00000000000000
0.00000000000000 9.41416030800299 0.00000000000000
0.00000000000000 0.00000000000000 13.77857520866374
PRIMCOORD
 96 1
Ni 0.2935194011037236 0.7878211917040518 11.61689604840881 1.400280631457427 -0.3931406995240068 0.9510034939511686
Ni 7.825549103570523 8.597839754805957 13.06295722051771 0.6111293670607861 -0.5745975906833394 -1.0100982432307957
Ni 7.213487462928459 1.2167331653431293 2.9160154834002907 -0.8296800777486227 -0.2290580379770636 1.711601115079833
Ni 5.7834294221419835 3.0388156749386006 12.687532740802679 -1.715138181698814 1.7750016908236657 1.0509430451612998
Ni 7.735304961646432 3.555107061481584 6.637512182063511 -2.472150656579381 -1.3784414240951486 0.35848608556461486
Ni 3.7804444056392157 2.7056297088445613 0.5134181847784067 0.2835499983773568 1.3446098202576844 -0.5660494440030122
Ni 1.587349833324315 6.704605020647343 3.8850762089551902 2.178055535696326 -0.8956306736078189 0.06877032469617834
Ni 3.404527565333467 5.0555077090338445 11.297715528793017 0.3841233265167449 0.4522956126176081 1.4220139093694606
Ni 8.802531845130964 8.104142353305516 7.637298844444183 0.8850971210663465 0.6487206950509989 2.3997075110173056
Ni 3.3358700932854384 1.8205009306424929 9.496235909308215 -0.7075485638224847 0.6289836216333877 1.067309659444781
Ni 7.07567356832938 7.510805477767461 2.4237339716291832 0.446019035580277 -0.23938384538310387 -1.4432581634602175
Ni 4.343044047358979 0.18103807081755205 5.516721549955411 -1.3380835891033924 -0.7539163524537468 -1.5730736762941746
Ni 6.157425773719116 1.2985798761597425 6.049772966319745 3.726303411196073 1.2949309649753182 -1.277389099436813
Ni 8.366505590451617 5.11087238654851 1.9535267832446406 1.7075549700349173 -0.3249020789615824 0.9863445924546238
Ni 0.9326928823807962 8.230254446484645 6.133877192808526 3.4037721464595125 -1.4377917410290078 -1.5785580964475137
Ni 2.411408952788476 3.936738297171009 2.3558606991453392 0.17624706482361904 -0.27313754479478125 0.3641299141139535
Ni 6.358869978694258 4.376624357628458 9.478336766074305 0.4716827588949683 -0.583686440358485 -0.047735615513066175
Ni 7.395227830114417 6.537305975567745 7.115352371728259 -2.771103876885686 -1.2168941273755494 -2.991915358583241
Ni 0.1785150758211347 0.6338620119599878 0.35849687783794787 0.29425118684494483 -0.4096970612207912 -0.4077916166679622
Ni 6.235986942544126 6.25601086178808 11.011671912490245 -1.5795310018837443 -0.33007308163956056 2.67508165845209
Ni 2.2218736607628404 8.742761340533004 10.011003143276872 -1.2906246242904804 2.4021294901952372 -0.6106619405060644
Ni 3.77192459044609 7.405847003084412 10.648165759885156 1.6409574846203416 -1.6086734277756554 0.4927406080065321
Ni 3.3216923676712424 6.201794711846411 5.7763782159766235 -0.01522761558303184 0.6729399726096799 0.2743737311947275
Ni 0.6535074819544793 7.606265064572206 12.809307730269685 0.12790415474385716 1.2528147525315583 0.9025379422506133
P 2.6496531109016606 4.678197572983805 13.393133479520873 -0.87228325713113 -1.4287761677939588 -0.8060313279814313
P 6.3909534374546695 9.00803355325333 4.504092089910141 -1.0017023058576167 0.18056086170762453 -0.5146340656455137
P 8.2514551357829 8.412860916430567 5.62437341593874 -1.4158764290131551 -2.380489029107326 -0.9938393581697723
P 9.018182018201607 2.673489765121544 12.25790246672246 0.7123500989761861 1.8296407183247843 0.5446162138299009
P 2.1762055684956 0.07016844479774857 13.498567369305858 -0.07881125387194815 -1.7450876768730526 0.9456959656953261
P 6.388439856618687 5.186449266515817 13.32331712432337 -0.7550571509264092 -1.050807805135016 -1.2509555878356327
P 4.208694563799756 0.2856698741335267 10.812654678075088 -0.4873549182145865 -0.7169521165245717 1.097223159174762
P 9.087103086741799 8.05385190826499 1.2262226390609976 -0.24605817207948588 -1.2047130119283254 -0.0864155485817673
Ni 4.833427664386512 4.469071413094198 7.578422685087488 1.1314052043731095 1.4518060530302286 -0.14061594588357074
Ni 2.9579386226467297 1.434040230650224 12.156933713231506 0.7409325385995691 0.3208991284497764 -0.263433687243456
Ni 6.78918183798993 8.92803201788186 7.3696222551489114 -1.3889585215763887 0.7837902571950436 0.25986628160717185
Ni 2.3925335611175176 4.327087045422682 4.982016065602755 1.761590302513766 0.06136374781946206 -1.1031888898398938
Ni 7.11163566118876 6.948337634293779 9.182938298547876 0.084271505655571 1.22452953243362 0.24546604702144176
Ni 9.200430750051021 8.83395631266097 9.842587578769752 -0.795103625325334 0.041365964541296506 -0.5335311596603328
Ni 0.6985787164501794 5.108339977391658 12.331356453511809 0.10888878998361894 -0.1641155716674077 -0.03815337114126978
Ni 0.21311870532983324 4.000754588124882 7.778322967751391 3.4562313927004933 -2.2575504458988607 0.7257218922974017
Ni 8.911397196394285 5.3920921870447 6.037371692779519 2.3402772327751307 0.8469892584510317 -2.334344926451096
Ni 4.49579821456744 0.21941113016418154 2.581526597502132 0.15921813436579033 -0.32565206975372946 0.6661874843771947
Ni 7.290824790896997 1.4724970760247196 12.504676795605246 3.7944978087841226 0.060868553350598396 1.0914062953826689
Ni 3.267956339911727 8.32496090045464 7.344325464645654 0.5203673685848652 0.23496977547580825 0.45855522037407476
Ni 6.078318583588912 5.230243940856614 1.6559922427156482 0.8789203028316734 -0.8128833179062581 0.8032051713865458
Ni 8.590270769816705 6.865003486128532 11.046490184856848 0.4848961722614488 -0.5892983872286237 0.410882339778144
Ni 5.273153684116577 2.784275605113481 2.863173800882042 -1.1776876323794168 0.073474415040067 -0.227603307808408
Ni 2.7185082803188116 3.6900402229877396 7.749856429429873 -0.13840711115771004 -1.2031526094197407 -0.5014959856016589
Ni 7.149875980873265 4.111145033378574 3.666630030235534 0.18080434517699828 -0.5836992958742916 1.0563027668113163
Ni 5.596850176492747 0.21482455120054525 12.705748199827186 -2.8672124843855005 -1.0239292355766172 -0.7254349571846023
Ni 1.7231961683926065 3.2398927276568013 11.204710213613518 -0.5667868363896691 -0.7323800210438678 0.11430096213812573
Ni 4.617316197454586 1.5899857982459447 7.551086787434142 -0.7308563853104897 0.35608930319766413 1.2790304916949777
Ni 6.6326620066077115 6.709029676051507 4.42534734495666 0.37079112818421306 -0.6313670342638998 0.5674383539307389
Ni 4.559560323189584 5.114609808240965 3.8438779600621995 0.43221683958986207 0.36415074004956 -0.05944107687545247
Ni 0.6287199975307224 3.1953919912834254 5.2538810148752875 -3.2959881595042977 -1.1087908094077035 1.1022224121615662
Ni -0.03645351203405676 0.6268023330502365 5.3163392622772685 1.3603699113054184 3.061286807198528 -1.1849808236067203
P 3.7012148314233637 7.600437699263317 4.091258560876963 -0.6560506530535088 0.4441202758956673 0.025711031612858946
P 6.388684624789982 4.98360235163595 5.644545137501513 -1.500347709384358 -0.655351055883323 0.06080890375725656
P 1.5333784515539395 6.761494792152381 11.009356970439429 0.7250361790842867 -0.18160370114984206 -1.2175122205755224
P 1.4723464494577694 0.05582597137595077 7.9435829056809 -0.5407970971941267 -0.311069029733232 0.14803717804830635
P 6.62670284305274 1.6649884144267542 8.62943932572004 0.5988510639140654 -0.3715462611826827 -2.0226516328703035
P 5.036283993426814 7.112049884247874 1.729403865783045 -0.6037880962043666 2.0884191661844165 0.5328906978628564
P 0.4851653478987497 4.597847713676261 3.5452551425869916 0.2594862725599338 1.898919093005633 -0.2520699254912046
P 1.0600721215543947 2.2427825110876274 9.36996848248192 0.5098435862354057 0.9019262768085435 -0.9795517379025065
Ni 8.391952066105782 2.1024456214921305 10.074977070508789 -0.048516716653464825 0.4276605876777474 -0.2986107493652212
Ni 8.858009492570844 6.9735769984183875 3.6552906739923077 0.16772437206458854 0.17360808453887522 0.7275849136480694
Ni 3.917053287702693 5.425465385784622 1.058587508453891 -0.6651479873690866 -0.04438109721853647 0.9020702585855753
Ni 4.700330264165063 3.0909136387825313 5.663876174537497 -0.49070917939880004 0.7220166755316727 -1.2468027420095238
Ni 8.30068178069434 5.970131051876867 13.66594925899728 0.3674427805372704 1.6797389762639134 -0.38054769335034466
Ni 5.333809119795371 8.737046945149327 9.301503059306752 0.489795409335279 0.36166705439575775 -0.5699068700758896
Ni 1.9829328547775105 4.988055249521419 9.530543934179272 -1.2785039297675467 0.6482548111581738 -0.24054829800485025
Ni 2.244241705954958 7.967910037659415 1.6687371331117296 0.017759895086582315 1.4789353051468528 0.29341480698657857
Ni 7.70212946027563 4.429513110948879 11.783189661154015 0.41112839435067905 -0.598340442826234 -0.7406759425040728
Ni 2.1300291115649017 9.280799437679434 3.8400059158755337 0.7109714734611046 0.42792026909703723 0.5529594435882734
Ni 0.8539170706978819 3.021305336530629 0.24487172705899754 1.1953549677521929 0.8406525175997264 -0.1789166412359822
Ni 6.016185124721917 1.8071704794673924 10.689253863101065 -1.4070439183231895 -1.0398739318313317 -1.4200812111231222
Ni 5.202029702034738 7.361176811823218 6.060740463225812 0.19942118894723718 0.6299125612055603 1.2598104671231012
Ni 1.3730741276770948 7.153359220233991 8.434569028976235 0.2874886713101307 -1.0333777825840267 0.23877038016882102
Ni 8.993629887788709 1.3901890713468212 7.737538000501469 -0.018600131599690543 -0.15395894284938003 0.22422410692352998
Ni 8.239405010426877 2.277238338277506 1.2166004256810046 -1.3677140103753156 0.7755935803168643 -0.7350827646870115
Ni 2.459995434790378 1.2524693183520852 1.6203332858222543 -1.4347748085795546 -0.49657437993032544 0.6553803664593616
Ni 0.4405186920386407 2.5805343449923472 2.8894364842458686 -0.11429144905642896 -1.0327524902952019 -0.29657315010990215
Ni 1.4332211986924317 5.970752386465536 0.8996793045694665 -1.3185010389857743 -1.0309861424233986 0.7872437629612828
Ni 6.481357620106146 9.144115242332482 1.0927053672841747 -0.10668458324344852 0.33916578796944813 -0.2511417572499804
Ni 2.4276389653773696 1.985192253281765 6.041257858206836 0.7141203035027314 -1.4237784574690513 -0.43928325951834024
Ni 5.864014635460388 7.280902265799147 13.44560236128592 -0.7547059382345777 -0.7501705122580693 0.06352476002652285
Ni -0.0775632678189643 9.482695522355428 2.830450179212092 0.28914240486346976 -0.47729136333099725 0.04729569976217016
Ni 2.9718904084105002 7.132535097353113 13.277269641390625 0.9517843379812512 0.5514095826026504 -1.1266581766064274
P 5.5980740173492185 1.5724189748753674 0.9612912189483953 -0.13623864275148148 1.3514926634204467 0.11522681638650477
P 7.138654301635469 8.787450360115066 10.79027816013858 0.6639200284992565 -0.7478524056478539 0.6172629907623499
P 8.00522776962135 2.259276120168684 4.925386124925707 -0.5658555828246513 -0.29173022019530404 -1.1653239686077412
P 1.6893240191496601 5.44442550489949 6.875315757468366 -0.9756827418654035 0.27988051994556956 1.0825827835537678
P 4.700725658903308 3.494705808134518 10.605837811740038 -0.8653070829236129 0.44546187752522637 0.1462723728383997
P 3.1064187610179768 2.0871946815884135 3.8246429474626473 0.3500775497859455 -0.07213358474145641 0.05893199844951787
P 8.23609122595397 5.103689382137068 8.588599756339601 -2.036330158798661 1.585976757509088 1.4372181279137248
P 4.692968390705368 6.77748003656998 8.323926284222901 0.25851773799907735 -0.09550362692596455 -0.23781624378566787
