# total energy = -340889.6572795721 ev
CRYSTAL
PRIMVEC
9.11316147880171 0.00000000000000 0.00000000000000

0.00000000000000 9.11316147880171 0.00000000000000

0.00000000000000 0.00000000000000 13.33803299670483

PRIMCOORD
 96 1
Ni 6.3387139955990675 1.717047166248013 11.514923978345967 1.047262768096235 0.1613662910570447 0.04830434353234262
Ni 4.676464268026787 0.18635685730380366 5.914897317891838 0.05251606762084504 -0.08048889868468719 -0.8716438237749182
Ni 2.672780840566769 1.594867013192045 4.993159380349391 -0.4025802476703518 -0.032388443633034544 -0.7645882303452961
Ni 3.8580932734285205 4.1507989000418295 4.758102700571076 -1.2094145311690527 0.05024372664690056 0.6101803728839557
Ni 5.262914421637411 4.55420209651945 2.7414594464786344 0.8524315125125255 0.16252148770741043 0.1666203403671324
Ni 7.23723524350734 6.072582347229304 2.666819921784498 -0.1710979165225118 0.33610771786941473 0.24272216572771746
Ni 5.183675484453728 4.614613242533324 11.690332283708141 -0.2699277796082319 0.10348433113859597 0.06262076015501472
Ni 5.632598921441124 7.889436855632084 12.554143322997067 -0.18983817324449243 1.541952529409338 -0.799912616678203
Ni 1.7827439457945535 6.628612768543305 0.27184286653342293 0.3856392489406391 0.2442000358248246 0.47287857897528235
Ni 2.7792681299274746 1.7854961204960453 0.20433894710838602 -0.22542429787921822 0.37974370939181057 0.9454172581126427
Ni 0.5348231837383661 9.194632924911472 4.342943526063903 1.011975919869483 -0.9445356268386378 1.0079616565037672
Ni 8.794802087649032 2.3819616383349462 1.0573991900550932 -0.5803671461772649 0.35306388610777906 1.3080142805218375
Ni 7.073599319864992 0.7067192767496949 4.499932309880859 -0.30100161819490096 -0.4687180198396895 1.149760824062162
Ni 0.2449526615940447 7.437360264847613 2.160387880645562 0.9354053824025955 -0.6686904533047064 1.014005805815318
Ni 7.752803228812652 4.056614378386468 3.8756324635957102 1.198754223241729 -0.31083814466934856 -0.5812606045258119
Ni 7.504806771356693 3.73848303184878 12.619019006713792 0.10207845193000484 0.4820324775604085 0.03653614725282095
Ni 8.342743723187088 -0.02410248890895976 6.745976615871663 -1.085828287074259 0.6891677473224518 -0.41968194034764494
Ni 6.878823724186227 0.7445525657339458 0.4739882757257523 -0.011811390812631271 -0.8827018813612926 -1.0646835346758436
Ni 2.0012411002414754 6.515837397910978 9.473217708147425 -0.05035479830346811 0.6400362799031235 -0.480307781559818
Ni 9.003812441220944 5.082628752367163 1.436839328991082 0.6962575642896978 -1.5063262955652963 -0.5413339435342032
Ni 6.205452238447027 2.2623878494002594 7.049510500697926 1.8518535069763977 -0.4978095378890072 -0.5568148127786217
Ni 3.565560796879213 4.792392792456187 1.0600174012860157 -1.0500264468843012 0.36843265525436547 -0.5558827878826555
Ni 6.026478864398683 5.690595079720246 4.919840352722296 0.011089939265574448 -0.4707134530031635 0.41964620201370306
Ni 5.32821022208837 2.5027839303626944 9.226890781834886 0.675677683255817 1.0732751329995966 0.7757938692531284
P 0.18099467321652604 5.5812189182391 12.494055694208038 1.139290263548141 -1.0093418246807455 0.5037097054235261
P 3.9186046642162897 6.40330808263276 12.884353253473023 -0.2626757260315089 -0.4189157516055817 -0.9809735579506977
P 2.3009091820598826 8.588243174456926 1.9023232026259989 -1.2961067304509744 0.12006203299161904 -1.4699834952702038
P 6.255784228103781 7.775549679325645 6.104471121121557 1.0711956247627488 -0.2967978645261985 -0.8164016154721616
P 4.710529264828697 1.0722636673915285 12.856209988859954 0.5568950311972538 -0.400811071585071 -0.002111904136680234
P 3.9263873039350785 6.133859243563184 8.235474524589998 1.4746297357929634 0.11919891366037534 1.5576262313908529
P 4.665984132574086 1.294087125699525 3.933052670082996 0.6116839540126756 -0.1692436369225924 -0.8348536515297622
P 0.036140063621544816 5.86008165289358 3.9464171210755055 1.0306436714823153 -1.169412022634186 -2.6639922334071477
Ni 1.592315328038344 1.6215868020158013 2.621496525558008 0.02580307710603298 -0.9143341635545931 -0.5921003754537931
Ni 1.865719279096156 6.093761334005023 5.001495188956857 0.7192131446446065 0.6713222345005987 0.37176711894423714
Ni 5.852499502722582 5.486123080457417 9.267985671235243 -0.29712953683400445 0.197911180060614 0.9004214101282428
Ni 8.639231311724632 2.2467496646725764 10.263189358301123 -0.7836794426487923 -0.08705781015145651 0.8603325125271571
Ni 2.308755613907514 5.503984876533325 7.254275943753431 -1.9980456613961652 -2.198115796781311 -0.7872388778652765
Ni 0.37216510229956157 -0.17352279229681333 9.017603388160571 1.489092448185513 1.1553329188333006 0.6837164943998935
Ni 1.506405556809985 0.9072717053532138 11.313986063021014 -1.4511658483430685 1.8526950290410866 0.6384650787612617
Ni 4.039372277276459 7.171410879703114 1.6911420940411885 -0.24549458626653203 -1.6644131445401205 0.04150866076674787
Ni 5.409326470492276 7.801513075764554 8.121755030450803 0.08829579632361567 0.15746387067884493 0.5730369310644389
Ni 5.946091668895834 2.894039282876446 4.717862625697209 -1.2822292011379337 -0.3366515061880267 -0.03342254132450373
Ni 0.6535503599917004 7.341307545133292 7.118681217318006 0.45622631513058204 0.052835912854109005 -0.5218961465245657
Ni 5.046239899443132 4.570068110278713 7.012337004589133 -0.20509818472735644 0.04375914736382141 0.21415540983361828
Ni 8.090937964323103 7.225725320831894 9.118546230208736 -0.41395403672493225 -0.4216442062803384 0.7826283756764586
Ni 4.633340788929238 0.34609599318999934 10.410347775063446 0.31200234018077877 -1.3334134373212325 0.1600249465378018
Ni 8.1157895550879 7.296188283719099 4.928322883226099 -0.8333513559526228 1.4930673736728608 0.9271228306788292
Ni 7.137792427803102 6.10754043383501 7.32695522745985 -0.03050459634676037 0.2579047870054268 -1.9738101858875683
Ni 2.105659701995431 5.8616126639858 2.7260673171050587 -0.3518924915074972 -0.597886386007951 -0.9228779393595461
Ni 2.57208952176947 4.729840053545456 11.954932009669559 0.18949133142803493 0.37568599438266914 -0.39397245139668274
Ni 1.2599127709624567 3.6085931443641295 3.903588908402885 -0.16753899552665985 0.759179400624899 0.5600034949192484
Ni 3.7603272793967144 2.8160488487858237 2.5849636846860182 -0.7462704058727148 -0.8113141736469254 0.3421364405619979
Ni 0.8640862567590748 3.1397027710490217 8.473011806864163 1.1315797822777607 1.6243036781137445 -0.38706364009199146
Ni 3.790437164210388 2.45267976973752 6.942779889931493 0.006930151460930001 1.2513754489818707 -0.7919761354399457
Ni 3.971579470639378 6.837103671923214 5.948962314693748 0.6475282174047945 0.5590161913053147 0.187793889120954
Ni 0.9113708052894093 7.5355454642975275 11.444272373020615 0.8166268441090905 -0.6905628278977656 0.12287764806354322
P 0.12585275704504473 5.610052960475922 8.282998749261555 0.7702639405738347 -0.8248147792365215 0.4564168338748333
P 8.377565112373846 1.6594155344194204 8.124876288183454 0.026925106525618143 -0.22652781535604216 -0.3611967996275586
P 1.7340887778102312 3.0277658112529116 10.576580038349684 1.858721951961457 0.2673854728023524 -1.1511494768795723
P 4.057288752319946 6.147036874749798 3.7915088719749424 -0.36264690181052384 -0.09989738511828601 -0.04836425023600058
P 6.769319978447396 3.7301900550992513 10.460058247122047 -0.003844827667386927 0.21432073176688896 0.053112563554263366
P 6.261653103957294 7.524709915555561 10.341056764714692 -0.4125237320363089 0.6134299901695048 0.01300361134851954
P 2.1623435650526486 8.384308851708628 5.729165623450691 0.0213470982172084 0.45327237470858067 0.6517466263615163
P 6.956732139825481 3.9857230969198927 1.485003297583317 0.301683474753274 0.1292005049577775 -0.4583819280210041
Ni 4.985035908399359 3.140058184338287 0.48014786142356153 1.5866961521736158 -0.8560174300915709 -0.685541206313458
Ni 1.550786652161858 1.2189217716005007 7.332370267882455 -0.9183610253257991 -0.5716127970234026 -2.079413877362012
Ni 6.875369836067468 0.4171886755204916 9.322618161692109 -0.11497819071080843 0.3636416616236253 -1.0524018890950133
Ni 3.0676905707470703 1.663571135955448 9.003118929648814 -1.3569629425063985 -0.6109337061102125 2.0340794150912713
Ni 6.559881306296114 1.9690625278210518 2.4065544153198672 -0.4980525071377487 1.2431890565163364 0.9635183385887276
Ni 4.124416298184812 6.835855168830153 10.592611911643939 0.20823235948096397 0.2236353242995955 0.2918040108560329
Ni 8.189196069063122 7.124906417776911 0.0953273120777687 -0.5127599885512524 1.4583232853234562 0.3737178149127048
Ni 7.643800706943297 4.014393102253977 8.348127778861398 0.22987436323077184 -1.0526201757534066 0.30663413389032995
Ni 3.078425874715142 8.593665505408541 12.446412087123932 0.8660822705267407 -0.6156362537922043 0.8592601053985847
Ni 0.48623363051513874 4.874192527954834 10.454723402518562 -0.2564199749297842 -0.5135040658061285 -0.6394822071718664
Ni 8.708126810874564 2.618439059954198 5.990724287498573 0.3306091566486887 -0.878945499642654 0.08223699172404546
Ni 3.9349719018450298 2.521575268887451 11.339275085526445 -0.8678735580992085 0.5019736965690258 0.21472156674973344
Ni 0.8153581834846466 2.9569200955926522 12.490627322940814 0.3715424045279408 1.3304394422945733 0.042733791423100596
Ni 2.986346493311584 8.410955735242277 7.89471519863574 -0.24443734864661124 -0.38549706693582 0.3803168082864611
Ni 5.736935504743711 7.753504942229919 3.921288490208308 -0.5566250653653189 1.125263610251746 -1.2099369793314259
Ni 3.3434457174107934 8.603015608864602 3.715375700149764 -0.27460024538323674 -0.3571719947388816 1.3801586638965715
Ni 3.535104611937537 4.077793365162187 9.426187416816333 -0.660281660415721 1.0877954381029589 -0.13325050665743504
Ni 7.56016011286948 6.001445010408622 11.326457424209728 -1.371816462579463 -0.48412869796780494 -0.3491357546979665
Ni 0.8294197913137924 0.11431731751806301 0.3593000525442763 -0.07824021185982655 -0.3202812923601193 0.07995025257239778
Ni 4.6986548157027235 0.17327855957495908 1.6928499004619155 0.5931023343557463 2.2168015461162724 0.0319698680383772
Ni 5.932130305840584 5.940605545815377 0.34609234792549404 0.6314624221911834 -1.6033741270499289 1.3611540977696108
Ni 8.051222807537998 8.533719130619092 11.21992639167496 -0.9725701643783509 1.131546100826348 0.8976363911839379
Ni -0.07218535036595215 5.034994258444321 6.0162265579775625 0.691995446579234 -0.09406535181754122 0.7611455232123343
Ni 8.34580574537153 0.2769635518472253 2.382999627402827 -0.9801225228043121 0.4415388883217364 -0.5551281691048182
P 8.742902634255003 1.9567688732769701 3.7798385576612645 -0.16467324394309057 0.5501255736839041 -0.48073458468459146
P 1.741643588497439 3.624304234381918 1.5038502263917786 0.017692532183756625 -0.4468245622007079 0.022503580419154793
P 4.801469501074353 0.83316165532847 7.940277359687326 0.3927843446258526 -0.6357232543500665 1.6130926398892735
P 8.529645547534432 1.295964436919748 12.353712099438349 -0.9398721599246974 -0.2081086894189061 0.26842599825172486
P 6.590364830721578 7.816130586430756 1.6250388675023082 -0.38603622726874165 1.216703351520982 -0.3972683485391351
P 1.9843635255819951 3.4336933534004443 6.201931824251045 -0.7349765781264503 0.0224056213887098 -0.27047876701569545
P 7.06586224595252 4.173727613780086 6.069231437832819 -0.8435900029614956 -0.17408682394750663 1.0440254921058598
P 2.6064370265705397 8.706358857589498 10.292479969917233 -0.06200986604389321 -2.5248359027882388 -2.190505845644537
