# total energy = -340888.4950253118 ev
CRYSTAL
PRIMVEC
9.10957315204307 0.00000000000000 0.00000000000000

0.00000000000000 9.10957315204307 0.00000000000000

0.00000000000000 0.00000000000000 13.33278111778184

PRIMCOORD
 96 1
Ni 6.394164090071312 2.314532956906655 11.540294828145756 0.8732044833938186 -0.11376283024646859 0.15360541616470322
Ni 4.552308652452009 0.37670634673886083 6.174970457606381 -0.3109060217928065 -0.23919486930074932 0.02174304810404642
Ni 2.692425370038732 1.3899841828642576 4.684445740420688 0.22937171256274044 1.3238000826011844 1.9125014596757577
Ni 3.2745179695789437 4.211155146876321 4.544624727700257 -0.9389583898611764 0.0252438621684533 1.2774369219556128
Ni 5.112866221626908 4.484670073576188 2.8559084983995597 -0.1426435178365608 0.2155576894977836 -0.4957274585489979
Ni 7.301532209600605 6.246479694012752 2.6131584213400183 -0.5292510442277402 -0.579063596874493 -0.30383523098895415
Ni 5.169172491799493 4.912355412248364 11.33845037729281 -0.42810281742148854 -1.1819335521399645 1.2147909649896176
Ni 5.551765444554456 8.004244664076136 12.611837492619939 -0.9243491245884338 -0.6049119253961646 -1.01462132791213
Ni 1.6810350374208198 6.556268940050468 0.4639778771558491 0.7971682211638464 0.8577925197141227 -0.22780976739225925
Ni 3.0509690503045146 1.4795677228864559 0.47690800494794877 -0.5678782696816349 -0.10900526095682518 -0.10454902495768446
Ni 0.5867776528891457 9.147286544426489 4.875011629050581 0.4497448211712964 -0.7407129663895953 0.10806809385453646
Ni 8.208854781265336 2.1871537988702103 1.4844322348217673 1.1497397410162393 0.4688725431396828 -0.4424662852320122
Ni 6.743206485789285 0.7846503299522101 5.103881449863242 -0.4134670697861847 -0.4302301481771365 -1.1625700600116882
Ni 0.4544355995299336 7.706088342647771 2.5762528085993295 0.6532504646005524 -0.06909942590082294 -0.248007839606689
Ni 7.743382934151826 3.9343972122195776 3.7375247662623137 -0.3114876053278894 0.33485353374733945 0.3136753570078275
Ni 7.851404249749063 3.8906166048017736 12.827881945728997 -0.3049598315117006 -0.5099649423046185 -0.7414516443278327
Ni 8.233049806921118 8.871958812717018 6.813117903106791 -1.140792044904648 0.6073202777273411 0.418776140703924
Ni 6.983252841608377 0.4392517633992646 0.24055558094490392 0.05681932298188924 1.1064061112256107 -0.6092810009981378
Ni 1.9757661594340594 6.740992859571531 9.145007329283764 -1.3991673437885903 -1.4064551356992552 0.08808676563660313
Ni 9.115494134961624 4.937570710070354 1.3165938196514413 0.07878425728875463 -1.1862486345755507 0.5364267360405729
Ni 6.290069000399392 1.8831764603507137 7.178409044028913 0.3240104203852484 1.0157215029548443 -0.032416468657492564
Ni 3.5126877533780463 4.616740661662605 0.5592977152410916 0.15467422374884976 -0.0035596923268003213 -1.901880489626802
Ni 6.028833777985667 5.910682617309654 4.725191038144024 0.05119503481657635 0.1599771240190019 0.174221549753158
Ni 5.656416218174043 2.9504995706517967 9.313280271082018 0.038324092391179156 -0.4842680517591466 -0.07263083609284911
P 0.0696517944894984 5.6393630976817155 12.519000924110664 1.3951697925934232 -0.06958922105304789 -0.5240630722688975
P 3.9360460449167527 6.452474466284663 12.660541824196988 -0.9486964430845468 -0.9918377543587112 -0.03175698069662273
P 2.2597115471188185 8.598872035944042 1.4512333072992027 0.9628007436964129 -0.7236009892996571 -0.09603147440497654
P 6.428069920451892 7.87271154079156 5.848130823948211 -0.03507781753973959 -0.8278224557145936 0.0445603031088781
P 4.9858787752257046 1.1364738782803903 12.811602227976946 -0.18623605771553087 -0.5707188244542236 -0.17864127608740846
P 3.9760826178674913 6.270948006855911 8.336721301452604 0.4439030176785387 -1.4770756262302949 -1.0258202819517428
P 4.689899641723442 0.927409179936944 3.8150818481253386 0.7649229879768955 0.2321904129584582 1.3184470458193873
P 0.16064640735585342 5.663257507431382 3.3800997415501954 0.9008788093806356 -0.4385834052378382 0.95278192600783
Ni 1.3450922075511205 1.1215068499850402 2.7349798289425045 -0.5813971301036761 -0.42114155561230693 -1.7414552223267883
Ni 1.7116249832612247 6.751696607743798 4.611768656766926 1.1740582631569456 -1.2952091583373695 -0.4098024764504039
Ni 6.043053821302186 5.466927992019707 9.202591672535982 -0.8453036432184927 1.4130685272507149 -0.7471762055164358
Ni 8.800202706884717 2.2443983550527906 10.360650683832704 0.020566254187125873 0.5559766331480425 0.20123407378625988
Ni 2.453800107594002 5.213463235300402 7.21424792578154 -2.3162533590567076 0.026346865424644945 -0.5582566874314708
Ni 0.5677778166654016 -0.1308708573338322 9.011546620370888 -0.4064068205052937 0.4131819344455981 -0.15296264037438173
Ni 1.8008805786585704 1.2810063621112011 11.683929108087387 -1.9068316629844904 0.857489129541091 -1.1899191414486023
Ni 4.025784447678465 6.778843135023252 1.5981470334893595 -0.0392373482340679 0.7661386055515514 0.4072974506403631
Ni 5.694129850032077 7.672264498423403 7.979722604752793 0.08752317982364927 0.5911105007366981 0.24285406331989146
Ni 5.110361089075953 2.8119702953703682 4.931408994952292 -0.42745438520421225 -0.43285113073975134 0.547715935801147
Ni 0.8985573406082573 7.469139241618953 6.844422950420833 0.5906728989786473 -0.6459061084203392 0.4788116566302657
Ni 4.565308012998244 4.5382434718750035 6.800677870337387 2.2509725355710266 0.5769707189012063 -0.04978401340166265
Ni 8.225088040195534 7.102050781961181 9.445928406091094 0.7457286744366317 -0.5699598348010119 -1.1047377223842523
Ni 4.953712873271425 0.27609020296225095 10.575281331225728 0.07947305582566314 0.09919521684493884 0.6962434232223106
Ni 8.355901507220016 7.160698212372297 4.834093249441906 -1.1926208566504815 0.5164865454732201 -0.07272956645424249
Ni 7.1877354247768 5.847343756848565 6.925072732287675 0.2791598397294612 1.0557355814539366 0.4429519666191791
Ni 2.369017312496727 4.909968704145271 2.441831950701469 -1.332700470414608 1.3036668021864193 1.8128028208318394
Ni 2.175657517854549 5.348549092020879 11.518882777014763 2.3376611353085224 -0.12235314301864089 0.8208048867461799
Ni 1.006571368547164 3.1182614654096574 3.8349079226122527 -0.08062105338717729 1.2132174498549104 0.6037662418274957
Ni 3.560166847398353 2.4784415023224993 2.6219309400548214 1.3279429011249648 0.7447303150791045 1.13706883041679
Ni 1.3855296017100118 3.2653537392289005 8.417477665322522 -0.6648985903624419 0.2064097044499284 0.22339106949927334
Ni 3.6172838695601572 2.5642718983047197 7.2608461241012 -0.3381962249673272 -1.0617416784387004 0.18238583073150524
Ni 4.145475126176701 6.976165593882397 6.053709288738017 0.22370602963653086 -0.11767759191984249 -0.0841465500419325
Ni 1.1358362081765103 7.362639224698115 11.29034545561341 -1.4692090789980246 0.5576604486083686 0.970091363820555
P 0.25346748959117843 5.694403137219454 8.004601759334308 0.5843042764481421 0.2025705332094963 -0.36924460963269956
P 8.647626470172108 1.910760247129971 8.149022195418295 -0.3565053076891602 -0.6183693364526512 -0.5959135785522963
P 2.1079825006870783 3.3213502839224582 10.622572768044035 -1.090832682267386 -0.20887770637444675 -0.1926962115185778
P 3.9654790749972615 6.201095801762336 3.9513565041109064 -0.43587063429236544 -0.07408376648929177 -1.1611222718215681
P 7.223745566500184 4.35018544866794 10.645305707247351 -0.23745654645340394 -1.8335835050226166 -0.12492321773866227
P 6.338067340075716 7.688142484010011 10.20773739292233 -0.420569742269237 0.9171783178716074 0.15474107243104318
P 2.5301474381742377 8.43476307992412 5.683844231256496 -0.0181059655720914 1.4318537782780179 1.2279519278516078
P 6.898151211459162 4.021949317482274 1.5972934665074519 0.5136200225587025 -0.011624985833438043 0.5620164115842191
Ni 5.2400358594863645 3.1135062683492967 0.5052633725529007 0.6132890937162664 -1.071336006995355 0.18779414623127014
Ni 1.3728672953615415 1.1664808114543905 7.069147004600984 0.11190880775686535 -0.15732554532876777 -0.5137691465420572
Ni 7.227571587123462 0.5064448841596607 8.946962481292651 -1.156859382780156 -0.44184639225982614 1.5230240679359512
Ni 2.970394877892846 1.6144896072945072 9.520512123355456 0.2546978500323549 -0.5687239055113819 -0.8446667809654421
Ni 6.330151121214693 2.078093991960941 2.960744196349271 0.05775031943659086 0.06834994932930809 -0.8807992650219411
Ni 4.081471266892995 6.84728335631538 10.430114821120203 0.288890950974296 1.149107506748879 0.4569549657664904
Ni 8.143857978534161 7.07888513804452 0.40866272851615093 0.03442887110183103 1.2539786909326724 0.1945587186486133
Ni 7.9139870156584085 4.190859018427117 8.512514195690184 -0.13293863184397106 -1.9931991319371416 -0.4147716475302211
Ni 2.988513818415945 8.70324041280334 12.417472001128216 1.4817295800625385 -2.5878148176136206 0.1937195105767696
Ni 0.4445535348343794 4.85789838537703 10.158392658369529 -1.0441589323599307 0.20494777519242122 0.34582983025318503
Ni 8.522852649988659 2.6463127119553107 5.840317543261102 -0.14564785188052337 0.35700513014371416 1.4430079951226245
Ni 3.9159321079258014 2.7205010737552686 11.690075336931498 0.27366410672221253 0.5765104914353361 -0.13391822214842097
Ni 1.4360239643643786 3.436067135610433 12.785923252893706 -1.3292865596370527 0.23547191192320738 -0.25549129246792773
Ni 3.169548360907418 8.345261526058136 8.042493027864136 0.2071211286946562 1.3618202705986997 -0.7484710130684594
Ni 5.527488432742462 7.903028199444588 3.329221865876209 0.3366286233698912 -0.5108242049811202 2.1329902679265715
Ni 3.084893099830919 8.565995587302583 3.465816267871008 -0.13216344424084336 -1.6867382903998822 -0.12911951520819698
Ni 3.6662022761006496 4.2749312668372115 9.47919383349592 -0.18610261746146015 0.4656895174260109 -0.651396185000633
Ni 7.1860683729338 6.335097619306218 11.59691902241299 0.5665099285791986 -1.23790569663021 0.3423953506503393
Ni 0.594436070836742 9.198026865549496 0.3315693239143753 -0.7217631647599698 -0.6276667025941771 -0.04687686705719668
Ni 4.702953659707153 0.3138484717275559 1.7931920991203625 0.20865144929625354 0.19041590012483336 -2.269796610256065
Ni 5.912458984027604 5.532945066917089 0.2924892561194567 0.28028932534821405 0.9942939292086875 0.6364819868929619
Ni 8.16442739417074 8.568245651811987 11.45171243018665 -0.34697499960122186 1.0293951437871949 -0.0570815755043404
Ni 0.09839249702865188 5.109140406305667 5.714642786316598 0.8021847005418313 -0.9146964319900183 0.29034850935642903
Ni 7.63107100971277 9.054751502780618 2.385954741413066 0.4452369059986138 0.18582031033435095 1.4705702210116092
P 8.48232416010064 1.5027698050947678 4.025153154275624 -0.49577553817811393 1.0117267799731544 -2.6940764543870377
P 2.0117763011574428 3.1001880727511217 1.414194694793991 -1.888943726960476 0.17166227366641404 0.9462004161355704
P 4.784356803253865 0.695776425659901 8.510407151475507 1.131912483026831 2.116168825493859 -1.8727038680628458
P 8.62188281712119 1.426048982025116 12.428431728299326 -0.2204885511404977 1.381779487329446 -0.3356238362544607
P 6.201022925179035 7.698618492859464 1.3066470769882077 0.3991131150573578 -0.6606822382882492 0.19567072076586947
P 1.7022967805987546 3.189434558575555 6.140185553439738 0.8747741418737838 0.3755546110111274 -1.1489182735562085
P 6.511358745591505 4.089760978243433 5.9024220565925365 1.6269313455445786 -0.7873504637424763 0.13223620646030776
P 2.3212193834244808 8.702083497043443 10.140219971366246 1.0084835904455083 0.4907076367369033 1.0268777766819799
