# total energy = -381166.3368001915 ev
CRYSTAL
PRIMVEC
9.28493111939582 0.00000000000000 0.00000000000000
0.00000000000000 9.28493111939582 0.00000000000000
0.00000000000000 0.00000000000000 13.58943522845560
PRIMCOORD
 96 1
Ni 2.9698223605980445 5.93247675436628 0.6806225913112828 -0.31995861891337796 -0.7532584071547737 -1.2153807760548165
Ni 2.669176290715646 2.4848054133328543 6.202489979475485 1.2083187270017126 -0.1456987597231168 0.4589174888095
Ni 5.64197911420536 5.804344704817884 5.638719174886776 0.21800537970732778 0.7910811344295021 0.4503947960504695
Ni 3.811371378197213 5.13779806909467 6.7333475602062824 0.7225452943416331 -1.3016420584469068 -0.18255655198141463
Ni 4.8305782679745715 7.223305019323988 0.34433724179217656 1.3724816069672878 0.4899147085219627 0.3345555428909464
Ni 7.934372899799705 2.7564453583754562 3.8051644017390167 -2.0622589628492807 -2.4596988039692738 -0.099779371483183
Ni 6.140839893780452 8.431209564389178 2.1419119783308793 -0.4982633375969742 -0.5680194232451895 0.3721324727034559
Ni 6.0529580206662805 3.9889642558575167 4.159535868599813 -0.584040224153478 -0.33577913088540234 -0.16714715940487987
Ni 1.496805177072319 3.2379247468813754 8.419089943789503 0.8924785011320823 -0.6741715310239358 -1.4532019049364906
Ni 7.478714904757125 5.607123482755744 9.490902467851381 -0.11145449382826611 -0.7382164252199868 0.4877814642290438
Ni 7.000448102421044 8.13974629139108 8.857906002261368 1.9197802527253582 -0.9408954589828892 -1.3148940383608063
Ni 1.6576016143244308 8.173404166725353 8.593687502668335 -1.184386127445515 -0.189065556744526 -0.7212414879285449
Ni 1.5302494989906763 0.24699123838056353 11.424366813894833 -1.2922865853739356 0.24648857474868519 0.9543197028085951
Ni 5.082849846686886 3.826245837862179 10.064756707643678 -0.1613601204094576 -0.7757103084003866 0.5474248869232895
Ni 1.1390660656918703 6.325767867030845 4.712028267348924 0.5128479202793683 1.0962070592054218 -0.7932732569848144
Ni 1.1407373532946754 1.9515625337956086 4.579354029493348 -0.40855857674097373 -0.6808409726243113 -1.138344354695104
Ni 8.56432762195261 -0.04944690071521659 7.36961882100468 0.013016981084958227 0.4061458535344232 0.7946981623567991
Ni 1.6996252126038542 7.25634080427277 12.277891535661213 -0.09890931017340385 0.053909091313629746 0.0465577931548811
Ni 8.174750481738723 5.556687736875535 5.168660251666694 0.06163371365139708 -1.2307351470236998 0.4715225791680202
Ni 5.776415631988783 2.0071792712445142 2.072905441704166 0.33352427341295465 -1.3089218799377718 0.2966112024366892
Ni 2.9144934560140663 7.44344145140681 6.335897726890071 0.20551701743232992 0.34208039051308187 -0.5402216843066309
Ni 9.165378353508114 2.2775100409982523 6.668376254647232 0.41336036900499135 0.2734147097155678 0.11223250964487122
Ni 1.3049970698570448 0.8617892389622517 2.2950381339792276 0.07122367133267733 -0.07070790803852338 -0.713487812125055
Ni 5.92705435458829 0.010670242850798404 7.260713078340331 -0.21822083815224355 1.0395872538288482 -1.925885080071515
P 9.00202856019616 3.5742435221525377 1.75672011108813 -0.01783934217426605 -0.31309068814895114 -0.22537339003662477
Ni 4.659846954416896 7.775182755632511 4.377551622413298 1.2278611679100144 1.7348012073453802 1.9612238645821256
P 9.005055447743462 7.107076251480014 9.197343585897988 -0.18515568016715855 0.10596261747575944 -0.2453099810595517
Ni 6.547919129168161 6.318256357749349 3.637551896546798 0.18090744641376585 0.6591172077939746 -1.6909559280256554
P 2.8744011234089952 7.2366753201464284 9.992406667318242 0.4885042013276813 -0.2091949805045494 2.0161305439223343
P 2.9232305762042867 4.439227705915485 3.578397600338621 0.6563211331060761 -0.23419587342426118 0.7900645202395297
P 6.798732973693585 7.368149944900437 13.029822398025516 0.22115986617590944 1.1557502088763774 -0.24633482277964028
Ni 8.291489920794666 9.298394276829152 12.329259488626542 2.5680556327088224 -2.9960985434266534 1.655118349501756
Ni 4.014349257557901 1.319741540486237 0.5740408669079458 -0.21021673690084441 -0.7679777156428194 -0.5450191056952742
Ni 3.8595416008825087 6.355600350740918 11.847881305869905 0.06681577207296881 -0.2824858187789006 -0.20570162263931027
Ni 1.465041427687894 4.413267038485245 5.854029299769943 -0.16135703508566404 -0.5793063090129186 0.08126460050844714
Ni 8.475368696827742 8.066813157390888 1.2159759356936268 -0.661121639818513 1.3421143075293402 -1.168544532427568
Ni 3.2392339221702398 0.5916748081037657 9.948744278694956 -0.867366793666119 -0.12920179050935812 0.1316235125769733
Ni 1.9946353292923487 4.725547127069392 12.175970846683477 0.5517263425121208 0.13757535928503403 -0.11610330545418714
Ni 8.20274454908571 0.5481953326236764 5.1503280836501455 0.6840170563594478 0.9191485542241009 0.21954187095651223
Ni 1.9600675307076616 2.561016128020771 13.24142319292357 0.6580692261454345 -0.5743777613630495 0.008453787194308022
Ni 5.895290605203865 4.71838844517071 7.845778872468114 -0.25865297802536097 -1.838247486157189 -0.043302519442377035
Ni 8.123989763269078 3.004371589320478 8.903064193289163 -0.8957402026024897 -1.023602705475134 0.6812119828104848
Ni 5.303450525326043 2.6710704166654917 6.041849529066301 -0.14750650235581694 0.4019120179587336 1.1689330261152384
Ni 0.16051324685274748 7.0872529235245185 6.75914017038313 1.2198673510712603 0.6411297700776184 -0.08320475495395348
Ni 8.936718354650985 6.282054411286364 11.406876789131477 0.09773020226363814 -0.2529276455058096 0.12356618949013558
Ni 0.14622188086253785 6.108156936214485 0.40151106219102906 1.7315191941599986 1.7886107969666682 0.04065711139972998
Ni 1.5586892430317443 0.268880463511748 6.292710726740472 -2.3950700122452946 -0.11917500240097541 -0.3575180652243907
Ni 2.0578100006783844 3.1119932260100054 2.0928949699268284 -1.604346004044895 -0.3476699687857173 -0.10037098232059488
Ni 3.907368281116117 9.28780945534472 2.481947511532058 0.26346171226791404 0.6699081277618915 0.7919877054041715
Ni 3.4712364962329785 7.023214753543701 2.8232327964628894 -2.1233146925100206 -0.024710101152170344 -1.3683375028919273
Ni 8.829245276859485 6.137190915847661 2.802820803873962 -2.4685673101034973 0.7026087033187061 0.6146718329964059
Ni 4.747691687806562 5.354824049250049 2.401158397305568 0.9823293006476437 -1.0131213463278357 0.03500222710679778
Ni 7.215895644284885 6.074666189640494 1.001754933231622 -0.7319282782184298 1.1583593643644503 0.4842081450554887
Ni 3.39862833482222 0.41014976211130655 7.465369673248726 1.660465215635966 -0.22024532478144004 1.111087832971996
Ni 9.27237789981215 4.159927692693359 13.227385305553117 -1.3999258192211699 -2.0110166197345367 -0.5966183179288047
Ni 7.001478729776107 7.863436025991751 5.50282399442335 0.10277470666608106 -0.14089285369404123 -0.2573000635418924
P 7.449885193608737 3.740239520835599 11.503389005727913 0.7851655402760155 -0.07373461067998914 -0.26358101145459767
Ni 4.8432057743068775 1.6700155672408226 11.905228754480826 -0.8681710347349694 -1.9501295544411767 -1.0954185018658553
P 7.51671812785869 3.53742877023519 6.102906307662338 -0.8792542891323245 0.5577393814754201 -0.21049030227720522
Ni 4.111061100173561 3.5003447553151688 1.1579042624548226 -0.37940355244357243 0.1528528542693948 -0.2291976488787214
P 3.7851600176265516 3.2213697146824773 8.010985652005408 0.13071077095471684 1.2542265452774206 -0.16033193625525935
P 0.8617669551275475 -0.0830769212561075 0.0001086336941823367 0.06650929657614352 0.21793133193628272 0.5965422132752307
P 4.891738109306114 7.351130666145203 7.412574626369223 0.2262534786487329 -1.3764305643127068 -0.8021409917880895
Ni 4.96882160751994 1.6180292378624548 8.824693803621178 -0.8274061941127815 1.0214807740361247 0.2617053916984396
Ni 7.956378186569973 0.41275047131989395 2.8495825025073387 -0.05924387326298185 1.2705335099675603 -0.34198834501990777
Ni 5.936422850095125 1.1965397893661152 4.325938547266223 -0.30067868763784344 -1.011626249839548 -0.10566796905347609
Ni 2.071570268608147 2.4958544813736223 10.597911380335221 0.2005802422523449 0.422801202702917 0.733080389545002
Ni 9.208367584624714 2.122646674736099 11.982634439804748 -0.4166498383895405 0.7515576224135831 -1.4015528133016315
Ni 7.420424107143731 6.273094452749103 7.260916418332005 -1.2616426352358334 1.3371965585127485 0.1148879449898473
Ni 1.5365261124323222 5.5286750996662954 2.3719275771325057 1.7263831584850138 -1.5032342869035338 -0.5248405738648703
Ni 6.807841491128873 7.661052382223171 10.93159973461819 0.23070560088281558 1.16594103336645 1.3197809341394624
Ni 6.732921381867568 4.069891715557794 1.6320643397535677 0.9190074006605463 -1.075055621938787 1.864682797530582
Ni 1.2643012167287386 7.77366931185886 2.1834146919740953 -0.09307881953455584 -0.04014726164284699 -0.8943176112233502
Ni 3.602878249747267 2.143556339633417 3.7077821870960097 0.25929112582999214 0.06822525082598573 0.654213342734454
Ni 2.030781566168574 5.715822171455969 7.6946916876951885 -2.157695741093052 1.1279455279592834 1.4111890508398146
Ni 2.9124879108907 8.386140508700198 0.569154207655966 -1.523159822182867 0.7192193152921936 0.7594658215170662
Ni 1.9933261540034848 8.564559745230778 4.106360139544115 0.5365082400107857 1.1307560008248847 1.5855921204761594
Ni 5.404517000640124 4.893093709250612 -0.13200015185577843 -1.0556756747502787 0.6325939646924653 -0.13250694362319115
Ni 6.452451467323478 2.7609206951785237 13.34183600908633 0.4394992321838882 -0.17117324984513746 -0.9537499463480542
Ni 6.842400004782434 1.0384824067963787 11.244551123722799 -0.6463722494234804 1.6154706532031469 -2.2700534634618776
Ni 9.080235535076316 4.761999766672799 7.752881279559301 0.08579899804369094 0.027273491003972382 -0.9807773827794916
Ni 0.46730779812724366 4.217345706780844 10.156499255120332 -1.704910847543851 0.9393679665947694 1.793643474294569
Ni 4.636950314258465 6.050701782402494 9.48883657067569 1.7204763060822756 0.12615606170449886 -0.7817547148222536
Ni 6.331496669536017 0.3862410644600658 -0.0504524587562377 -0.9970802337045731 -1.063612155988536 0.9184384155309538
Ni 4.789770995672745 8.353243997718316 9.31717490701912 -0.5468638722134969 0.7038693151986846 0.6399025825387367
Ni 0.3020378810582901 3.97926150283012 3.821308111489002 2.6383272245408755 2.3302668997269804 -0.16706385566245424
Ni 2.656223811793906 4.965246909036162 9.798607870869404 0.17857211341236987 -0.5855186084712174 0.5174028866399024
Ni 8.530716171273973 1.5965439072352814 0.7369310561291272 0.40484153290070274 0.0822264502010842 0.27675045895702016
P 3.99670788841718 0.5323598825870973 5.43446925996173 0.11964962804454876 0.20254687906041247 -1.5549096037906383
Ni 8.89309774821777 0.4128943877523577 9.885824942914905 -0.14384396590256518 -0.42148916875971276 -0.1036105723038151
P 1.3219420691632637 1.0421220997980432 8.697441965543591 0.30188042125542847 0.9649895238176155 -0.26159123471807855
Ni 6.12721889981759 5.622044367076344 11.436814192563281 0.5461958996121948 -1.4769810096339595 0.0018082568533323697
P 6.88837898372183 1.1003479028935503 9.066001735659091 2.386620081705728 -0.5964437400241535 -0.23087735057398948
P 4.14840509316513 3.4682838881346894 12.237218894860723 -1.9335690789793347 2.9867384423679915 0.8387794689467296
P 8.803943839539238 8.086515781241737 4.002944576654982 0.6853095499186261 -0.9838578214770282 0.1474440245489977
Ni 3.704325407237541 8.899736473973356 12.12252399763888 0.9679005268168235 -0.3853985936847427 -0.6953741332434799
