# total energy = -340869.3195047406 ev
CRYSTAL
PRIMVEC
9.20744700730077 0.00000000000000 0.00000000000000

0.00000000000000 9.20744700730077 0.00000000000000

0.00000000000000 0.00000000000000 13.47602939818982

PRIMCOORD
 96 1
Ni 0.47819888206742067 5.383354798952696 10.548860483905623 1.3753532720881283 -1.6503085868179381 -0.17476225274797644
Ni 7.49494462989749 2.3988069290174474 10.428667393037808 -1.6605945421249788 0.057600167011971765 -1.1543893239731087
Ni 4.235278247094033 3.589311396113616 5.904656502114157 0.4092229497978501 0.5923723981682573 0.7367920340686342
Ni 7.654859567363856 6.8974734016505685 1.1509851843290464 0.861470225676026 0.16543531892009572 0.1873179779258
Ni 7.386886033276965 2.2671312311416694 7.814223899506612 0.8549663631192373 -0.3534007006219075 1.9127529135649315
Ni 0.2127224075752365 5.931520149140406 -0.31111686794721827 0.9062099917855619 0.3991527100460416 -0.16223660947713994
Ni 1.6171683482139698 1.162173153036749 2.6027739753515067 0.5409606193551845 -0.921900148827309 -1.5177846739138827
Ni 7.378313900228762 9.042550716909341 2.159290851012275 -0.3058939132901958 0.11432924427289987 1.0000421445463743
Ni 2.231737805322881 5.755998589207117 8.70043421679597 1.268283537591119 -0.46357092842111136 -0.609989082808756
Ni 3.885947712347721 4.16051377840294 12.820905729448823 -0.2567501045756933 -1.356394214487122 -0.5731053224085291
Ni 6.244343156995069 3.809811334071041 9.105335376460781 -2.7750844587999888 1.0983619007648953 0.11924545062759463
Ni 8.529741962752887 1.7990522539435074 1.8509592357472062 0.08844646296886702 0.49360552710998856 0.06260301954320185
Ni 6.284358721149193 3.6411861518532245 12.073444270730873 0.9377489429341076 -1.2163161433848924 1.4264840293256724
Ni 2.3861098597655976 5.872297850788052 0.8363031929486763 -1.1328697047337781 -0.9381919440087971 1.117561870732114
Ni 5.637682896758775 1.0054531996388318 11.923685147176608 0.656488511921876 -0.08881747315504059 -0.7957505148807135
Ni 0.6506856675080259 3.104263094309828 0.35867148960925715 2.0667900179504146 0.5252987444482115 0.03268360627595016
Ni 2.2685307630679064 4.400515088858855 4.773451675924159 1.12536362616472 2.5009688663626544 0.3164349220308357
Ni 2.494868222349241 1.5090176771246135 6.945208489271517 -0.6553137748874843 1.0861350196814006 -0.18713542960134869
Ni 5.911493952169577 7.716752025312321 10.57860237882754 -0.5941127778981317 0.045456075450270104 0.5096371266515546
Ni 3.2683121754267246 8.456294158966083 9.997583016671411 0.5786727891939776 -0.41408104922109973 0.7434334506445519
Ni 4.366152897090978 6.1144905336021536 6.684771250458475 0.48071761540372693 -1.0842735409926294 0.3130539213737447
Ni 0.5439253208980236 3.6224582048929186 6.4179182626572615 1.0718489420760315 0.12962473697938967 -1.1301561624573568
Ni 9.011006003887704 0.45006460737129966 3.8926590203808416 -0.6163661899796933 -0.6431920519232859 0.7548892578899774
Ni 3.5355306988691986 1.970402840438733 1.364447870633687 0.22511499416891553 -0.32536410619966544 -0.23375055835672645
P 8.792421214881974 8.254024965837276 12.7850187844771 0.9501095213819896 -0.8310856998468976 -0.9643081814798748
P 2.262905013022308 3.614687119723549 2.29581703190609 0.2753504932857 0.4224751868220659 -0.5889191495123342
P 0.29623947527344147 1.4437921234044535 7.349139184034846 -0.19244244363655888 0.6282585705419051 0.33795634104237926
P 8.296950083206472 3.5548479224300253 3.051619516755478 -1.4994365104239984 -0.3713207754354379 0.22828233615330362
P 6.043924660689772 2.299725593107983 6.2050779997619205 -0.23658160004761833 -0.08195519881756853 -0.35525857976625275
P 5.997795351805243 5.504395895678448 0.457963676052345 3.213076767421047 -2.235657245370195 1.4978917916446977
P 0.27753822990909693 1.8817259195072167 10.232996256345459 1.6592084604107296 -0.049113212586883156 -0.19062801613563943
P 7.346474548906866 8.523803159513262 4.909196144577597 2.24602059088239 0.9953411395262795 -0.24145049810414546
Ni 0.17002011042061216 6.806641938148397 8.432894353457273 0.7862009235190653 -1.4958883880614238 -1.445838522592884
Ni 1.2578293187056853 0.7995295708421055 0.25640713931229175 -0.5497535350564661 -0.9866261282507848 0.3419240674408756
Ni 5.257765223466674 5.182540382431424 4.361894452907526 -0.05975912233650353 0.09815212029240517 0.22175661921964387
Ni 6.852117518304223 8.74809656558654 13.353127464613689 -0.29691742082319833 0.949714599936416 -1.4214755203674874
Ni 4.387330024922199 6.3616276153925 13.43333721739147 -2.894290057328583 2.9790307893110892 -2.526974032177164
Ni 4.393489806887019 4.277687747437774 1.5614273855281315 0.12439794136281158 0.7717086434401612 1.5203436928903105
Ni 2.7908692247484095 1.5877965926567548 10.213846608317905 -0.2808904492673227 0.1733165214403854 -0.6986157801092291
Ni 8.387321174364486 7.228775755399694 10.40765876148455 -0.5237301144095109 0.28149337295864424 2.6800695985849843
Ni 0.9751699068401861 2.866987188131324 3.9741080955090937 -2.5853699556175536 0.11310668471970844 -0.0013058632956171059
Ni 2.1198028735645544 7.40502470363675 12.346037180919033 0.09425998432685057 1.1374640089726797 0.8890306517927978
Ni 7.706062179480995 4.699867601923485 4.947090312969845 0.08770084305209412 -2.226351137477921 -0.5994447316340064
Ni 8.151702608624946 4.3888584611048 7.926075043498302 0.5766842980090391 1.332526663840905 -0.670473256236742
Ni 4.4798372437571015 1.1232532750617186 5.503502773330783 -0.11812753497306752 -0.9099059525799102 0.5036950501355067
Ni 1.971986521302633 6.44409871712478 6.4928447824134965 0.04301892676368721 -0.7676624983952457 -0.6413310874551471
Ni 3.3846666816889583 1.1484908869684038 12.630395366734474 -0.5292363889397208 -0.5072092339363523 -0.31902170892140547
Ni 4.6944352082624325 2.5242307704595732 8.137419096275133 -0.9655204566204211 -1.2792336088447196 -1.1860583729416154
Ni -0.02989842151893054 8.502441882744378 7.008829184999946 -1.1485688606365896 1.1427507112929158 -1.6477953334777815
Ni 8.418755398023524 6.823169305303632 3.6491736120243474 1.2909141305064413 0.7096311573831262 -0.025352105611543437
Ni 5.215880547595272 7.813909004823208 8.13630131222352 -0.6468561310384343 0.21699982126094886 -0.4189160087158979
Ni 4.0049355484185325 6.6131842716867535 2.801262590790097 -0.48107499874314563 -0.7942528472892644 0.34400588967056883
Ni 7.028099450581669 6.318334200147978 8.579891242946594 -1.2241644357847175 -0.8144995133534424 -0.1675960740168404
Ni 3.5231282679176097 2.4381319346553356 3.8608684685274257 -0.3855762569131876 0.6108362613003997 -0.9345155235984745
Ni 7.666635891927392 6.611674250397919 6.106245264918302 -0.5322826319652123 1.7872882215005028 1.0111894194124456
Ni 8.860095949473049 3.6915600937508803 11.658679173220152 0.6827533591556758 -0.8615077637821809 1.954915148755278
P 1.479084267307527 7.113599802338501 10.263693884253845 0.24874497488302968 3.172159460381395 -0.8155814335637115
P 6.2878575509647865 4.848024629720083 6.7270177789923835 -0.4463545645428248 0.39181683850626065 -0.4637205666250982
P 3.5066377305499072 7.213647920170695 4.972412633387855 -0.3895414122085226 -0.41533600467412346 -1.1374372694998023
P 4.872829491623261 5.889856451994199 9.192202113335071 -1.3587760844557375 0.182861227706027 -0.5583947556712319
P 1.8799857120463035 4.591845835090493 12.436919285379064 -1.7036903448731884 0.5229477277175316 -0.0537432551597268
P 8.029041001247762 2.1171971660966262 13.083903559240067 -0.24566864995055107 -0.1261259797975118 -0.5203840807554134
P 4.444572722194677 2.7116851815534098 11.332437232278002 -0.7327476887959316 -0.45911752063544803 -0.7858355697598466
P 1.95250356369791 1.1655154562553287 4.7650968386224 0.9724164124093059 0.44421952047769303 0.34293476809357715
Ni 7.728749328601051 4.197398810616797 0.6517399201761453 0.2371045624306239 -0.5692931477512905 -0.9830186134051845
Ni 5.320145676099943 7.906370186423695 1.3753909212542985 -0.18734651717089026 0.6638243834616567 -0.11772644287990693
Ni 2.2221160233300004 8.358667599664155 7.726751312627409 1.2617943303223496 0.005353036781797232 -0.016237030684152682
Ni 1.5515837040653673 8.440374483305135 5.159553991287666 0.3601681012527281 -1.128816617710327 0.8232921719444081
Ni 3.7422378813956803 9.041427408389598 3.3325543738197654 -0.5454783047198799 -0.3512651423361434 1.2310681048830863
Ni 3.182342243878851 5.973957271824795 10.88731057867013 -0.52240059696481 -0.7032648488454663 0.48581739852413747
Ni 0.3502890299668469 5.014789907667506 2.078408033867336 1.0791747863134833 0.401462846236457 0.3321960415198344
Ni 0.9783556834617524 3.512714645492779 8.698116702415483 0.03084089664025656 -1.2257865447691727 1.8395322664068834
Ni 5.410176091723281 8.065171022817202 5.434329987131821 -1.277513026609187 -0.03669169899407875 1.6728610181971577
Ni 6.228220917502692 2.187514437943162 0.7644077647063701 -1.0241524073310166 -0.8667718403945976 -0.26750477198903605
Ni 7.27712405898306 6.163759581873832 12.324839796704671 -0.33464398883969465 -0.14241546098615473 -1.083236872197999
Ni 1.0337016466763038 0.21538151823508717 11.464475703560975 0.7517286007738085 0.010050956478098819 0.8785359229090612
Ni 6.974981689512837 5.19819304213276 2.538237138658205 -1.7049098191025862 -0.5572886670912467 1.6587528609305495
Ni 3.3939201658065135 3.8561892440214147 9.615551313574944 0.8380078808880278 0.7512961412220803 0.9095549969983949
Ni 0.6550684122244003 9.049180078665202 9.279431623616558 -0.577064049945961 0.9828041834015332 -0.5848555209659217
Ni 1.7135795245273233 6.968554891588406 3.3778071337610194 0.01070298823980092 -1.0214388650545958 0.16305370606179662
Ni 5.760768046692584 2.864427517897811 2.9808842268204474 0.9114499000282624 -0.2754363681312869 0.8136145396453277
Ni 6.186373071418823 7.342506139300232 3.424232001690497 -0.27082278061867554 -0.49938048192055284 -0.3549916992581112
Ni 7.823899084691415 0.28129763047148276 10.956564390401663 0.05248881392733541 -1.1194511173350268 0.7175694383935965
Ni 5.2735007501899585 5.354093532758078 11.181075092221382 1.2829187710057905 0.6761939607706031 -0.5324322701691991
Ni 5.948793319493175 0.6536486239150201 9.261414491555632 0.1685728361078129 0.6336108359927539 0.7256306181351762
Ni 8.124430150957087 1.9642154361332633 5.623209711003168 0.33133446485048745 -0.07866444388143871 -1.2100223399563808
Ni 6.852016236388509 0.21351885173062804 7.016901353682394 -0.41105640346216304 -1.2749707198033076 -1.364235822018728
Ni 2.8812126935657743 8.282236583087215 1.1413864209533733 -0.7156007447029998 0.5201799351644074 -0.10141947818976728
P 7.597929923285405 8.344239530398276 8.822230324166139 -0.41933946940656175 1.6730181126003125 -0.5797889050762918
P 7.601732598848141 4.819389469913519 10.20363186674575 1.238865746550634 1.262647165240948 1.9446119670570576
P 0.37883856051739756 5.86302595177673 5.314635939885073 -0.20317140001828882 -0.6751086981262244 -0.9264875110876754
P 5.317374234588119 0.7044672854971319 2.2735681572576723 0.5347354643810791 1.4160911161271226 -0.6144265497548193
P 4.386989349387523 8.319250519557436 12.119276179081076 -0.43410248664834916 0.10930453736479885 0.5682608498320342
P 4.016619798513237 0.4274953135713481 8.12733970417216 -0.16504579679116094 -0.15291173253178827 0.3682069123968046
P 0.5325633314442295 7.593519556228381 1.7711002866956724 0.2710729489562686 -0.038343889885521065 -0.5746094177578814
P 2.6955445271672662 3.9224920690269016 7.492631719240445 0.7575125544454373 0.007683484687186767 -1.0090579748917397
