# total energy = -381171.07859077264 ev
CRYSTAL
PRIMVEC
9.20617863161770 0.00000000000000 0.00000000000000

0.00000000000000 9.20617863161770 0.00000000000000

0.00000000000000 0.00000000000000 13.47417300217094

PRIMCOORD
 96 1
Ni 3.649237073960635 1.7817545701386697 7.043340562811167 0.7165718503670175 -0.4220422130497054 -0.24674311396165244
Ni 1.0805015455978653 0.2279735174605681 -0.14089043431011417 -0.8627568056979334 -0.8907558620140207 0.7909536077127023
Ni 8.535268984986198 1.5821554152645798 0.612347118058167 -0.5310467026755822 0.61734732294604 1.590348147103906
Ni 7.539611579940873 5.451309679928238 12.832290519694768 -0.30548485077723514 -0.5791258175709961 -0.2812899986985865
Ni 4.15872540148436 8.147274594406035 1.918951485656501 0.4638804892417301 -0.692265412411169 -0.8454399116860408
Ni 8.236537700612354 4.462418816040261 4.467645163543698 -0.4874688180846315 0.8351981793533745 0.5547185923712253
Ni 2.839885102114283 7.32355177800646 3.6947128336272343 2.1856899123131326 -1.6603376889191663 1.135844985312018
Ni 6.996152453953729 4.312772385410754 8.257512136964442 -0.6951447908414932 0.24194260724921554 0.9679902583171524
Ni 4.509075728401401 5.484046850479977 2.36328860894018 1.4574581091096837 0.2744670622394822 1.8549347170048829
Ni 1.6328630461416835 7.690160216058026 1.9226836703982544 0.05767550033459745 1.8460240447788143 -1.3396043966232931
Ni 3.6092638471508334 5.979992889510562 11.758546309075804 -0.15453152752339838 0.5965614965489403 -0.034636616237262934
Ni 8.825788358186774 8.679244409693357 9.914713557062152 -0.008896274048365325 0.41251087652050245 0.1227804603640466
Ni 6.539839013130467 7.558962967033043 2.5325920717862425 -0.014484052548787959 -0.6802886996652671 -0.21452487735789508
Ni 4.484660943164277 1.5253625004350857 11.225441371986168 -0.9251443667962197 -0.35852413789140186 -0.44152911812972345
Ni 5.9574285461409575 4.654100657451331 6.230942266517243 -0.4940855520702007 -1.7596966850354792 -1.9723891371703255
Ni 4.153220106774028 8.398244225005296 10.770646950606395 -1.3277451832918616 -0.11455884378520272 -0.022587141271896583
Ni 1.1769915018837993 6.749785912577154 7.380289455765282 1.106089094205824 -0.11306991794450204 1.5650590335198142
Ni 1.161202905849988 2.320223947408423 10.24423858771792 -0.1826084882652726 -0.6245867781172728 -0.008114658687334412
Ni 6.288317011824485 0.12244677641265779 10.579920710517952 1.95647375149165 -0.6517908493358904 0.33784141273106977
Ni 8.778873672829162 7.417068138654539 12.64419080231679 2.165228559134987 2.27066230069047 -1.2095559418429234
Ni 8.497928725211773 2.0440017693335095 4.346040752458792 1.9356979523968791 -0.9483442019514507 0.09493952689237843
Ni 3.2398383184949835 3.8115235875956355 11.125018536268373 0.8640518703602732 0.19664131220925488 2.479514810253936
Ni 3.2086017550298394 3.602313182424578 2.519926211481101 -2.234953277324635 -0.021173805864137727 -1.0236461571185598
Ni 3.1113753044682757 4.5244868711189525 4.516784982231554 0.5063792818358892 1.5368249783747856 0.5791317311082671
P 8.354643763888019 1.541399663286922 10.73329656403568 -0.9548660622303683 -0.16940587353206954 0.8188580474324543
Ni 0.8621475639948654 3.485901055982861 3.131276300413634 -0.3525820613753541 0.9726735227254345 0.4112029563423563
P 2.312435520443639 8.56257451025517 7.156645604027572 0.6164368953166287 0.7547738153580357 -0.8391023995037872
Ni 8.44374115888232 7.635834557051892 6.269707642715011 1.761426266132076 0.483715007469154 0.7537564298371148
P 5.888023166841305 7.502869721765397 9.10416202016437 -0.9575340959808347 0.20107209428709885 0.7208285687608426
P 1.436476847545028 6.4306445305899205 12.054628055293072 0.17179082882447835 -0.5855407199584045 0.012575008451533181
P 8.945569945939496 3.833434292295619 1.090634786212685 -0.04285000528599072 -0.5995432048850836 -0.635276396620635
Ni 6.084759200218884 4.227357461794601 0.6484942571060719 -0.7673542231262075 -1.0583125981524935 0.9336310641109921
Ni 5.572886472477809 1.976502068972049 13.082842189792608 1.4759829073867483 0.25900110539339916 1.1700427142396495
Ni 7.232401405218842 3.0033223880549555 2.516813602548721 1.8984323831772012 0.46270420954544184 -0.9943412375068553
Ni 5.836542216974791 6.935999283991675 11.455054509827857 1.330042721076787 0.12666462590980118 0.3836882958618553
Ni 0.504110998693784 0.8733487213093484 6.676816821601299 -0.9026428432595939 -1.267459756138243 0.02059582187348066
Ni 2.265916700759179 4.5735281836974435 9.170535804901963 1.8007505176529957 0.6271334557985264 -1.1836811309586905
Ni 0.22316328922286174 6.077035216503218 0.9165293806895168 1.18448408647596 -1.456785251412375 -0.5568230403087377
Ni 7.357596225897442 0.3311425562086189 12.682322793437518 0.3462687175628166 -0.5809708411995349 -0.602655268151504
Ni 5.0941651933185135 6.452895863892382 13.841209424790652 0.2048279617851053 0.03356806576343251 -0.8724799465229683
Ni 4.977633386557007 0.43626882849415555 8.790994527370339 -1.5863025162796227 -0.559772609855365 -0.8999398425061339
Ni 1.5812808283122695 2.611599495204417 7.499239725604388 0.09591294654924126 0.21383402193845757 1.7533797416785157
Ni 8.415855644371291 3.1368948311188443 12.38373512544742 1.0928062610539888 -0.511049690728365 0.7341057454857228
Ni 7.345094235568628 8.852698017782593 7.773155755978736 -0.6667495275282518 0.4832552942239161 2.108599754897349
Ni 2.864520835634096 7.90037409467963 13.122348663355227 0.15790712886385064 -0.08185029780858806 0.4571742808661481
Ni 4.054106389631163 2.3852379795896335 4.667507615121325 -1.2341202614458489 -0.4061322266876683 1.0101316675718925
Ni 5.409651722462934 5.176680170724374 9.944814998724983 -0.7914644859108498 -0.46434020248696806 -0.6538040231111771
Ni 7.856386974067646 6.676311402404648 8.603124964453496 0.49116477887897986 -0.5527514413425255 -1.1240343658303351
Ni 6.238566823505699 1.9530447262932435 7.365211576707453 -0.7338499207211748 0.15613435323414399 -0.6168215323495571
Ni 3.5387261079024004 6.915598392556733 6.116129253271486 -0.31178611040491466 -0.1470897265333725 0.1759657861377744
Ni 1.30515071202181 6.685489962314682 9.717762099108953 -0.7251176830544995 0.4932278320555957 1.1492743713440465
Ni 9.076942112354942 6.828121284968817 3.266422079373837 -0.29264579003103797 -0.17635787936987046 0.9758627190866934
Ni 1.4253834025183558 2.1609478541250584 1.3343057585404556 1.2354672623920466 -0.3951533590786614 -0.3024746031960016
Ni 5.334630574311606 -0.2921258513392918 6.489066939004246 -0.0019116152004160626 0.9181756487878704 -0.8202654693029421
Ni 7.0323603537793735 0.7605767178249311 2.3953712202044537 0.5530103514308669 -0.16919607151410862 -0.8267585332264535
Ni 7.142254505881768 6.706700997452818 4.884347180370061 -2.1010196285572458 -1.4712477066946081 -1.6364490552270268
P 4.828778687273801 3.6715160257984327 7.904839091225634 -0.626057192015212 0.009832926930021775 0.23671375475010845
Ni 6.362279449454595 2.2327652521773977 4.730485240630419 -0.813471072088928 -1.5398056582696642 1.5180276431626243
P 3.8812143584270946 0.9710400838824034 0.893200003891102 0.11336122393267574 0.13945200748245662 -1.1673703096138088
Ni 1.184476124959886 3.80926807387652 5.633592013146585 -1.077432606811396 -2.3870836516057086 -0.4115199733621428
P 5.007028714333077 7.209873886563018 4.436183048706642 0.15857124481041077 0.7851753104680285 -0.14170583651363983
P 6.954126249350611 7.501184991109895 0.10434466773552467 -1.755289299996403 0.597552656817616 1.150814719247973
P 8.70885147957367 5.524480386212047 6.6533171305016445 -1.527812747573846 -0.30144076261484865 -1.5594627703789594
Ni 5.035770403439525 8.8430407365934 13.015754005607654 0.5145631031982623 -0.06022989132533498 0.019453480738921336
Ni 8.372522162428929 1.7324831030990437 8.602625989581757 0.4947722937245801 0.5704830542943337 0.029932268783058123
Ni 5.0389097102893965 2.4701097386775093 2.601094324980404 1.0999719255644929 -1.2645515813525126 -1.6541179332616998
Ni 7.460337177347784 3.9735247096988306 10.586455255978477 -0.07822838478528463 0.7884856057881839 -0.19274891913338416
Ni 2.8971383258660457 4.698345551059784 6.933108543959828 1.3502783313973712 -0.08129931040112451 0.3467772817681189
Ni 2.405694108095248 1.7300710843463567 12.37424907917731 0.3086203110824233 -0.383949519943042 -0.6742206390943163
Ni 3.4784440514421107 2.626062401542095 9.453075262626088 1.0373470516444199 -2.2518443966530186 -3.316323014406908
Ni 1.7610130501012489 8.684178921340076 11.197819154178678 -0.5301833262340224 -0.410504387613435 0.4473624369820489
Ni 0.7654550717831332 4.518806659018158 10.710606096021372 -1.5422001266437697 1.031966761169113 1.8821637279241648
Ni 8.632974156826922 8.301634588399573 1.3757261966018688 -0.9421427011264291 1.3233853636612694 0.6979202967041013
Ni 2.755519682840903 5.822778980198961 0.8635579505326961 -0.3378786937269084 -0.7503795429450818 0.15329225579965858
Ni 8.1341189654076 3.2703015629707166 6.600875976223278 0.5892953019048303 -1.0122104044777922 -1.210170692608787
Ni 5.7866263174439885 6.711764395597771 7.00221748431354 0.3277740011927387 0.6742221817562131 0.9021296510686012
Ni 5.407166054282684 0.18326187060493448 3.8040684242905742 -0.7196389193281155 -0.7304732909394581 1.0458419764893085
Ni 1.873659849558809 0.1859141706150459 9.089932950759204 0.4986299769077735 0.5153853419892414 -1.3789808415383864
Ni 3.3605129055569076 -0.012350088384465278 5.201192541453019 1.4938502745854725 0.8457165623861952 0.8021476766563088
Ni 3.446572261664236 6.94272900043524 8.941083775183067 1.0632012937033624 0.11177819571627201 -1.0192976503418767
Ni 0.19853952373502776 4.400590121601148 8.218854473054485 0.24573781262558972 -0.06326764971039427 1.7273498932736575
Ni 3.6766806919062858 3.0881481162506046 0.3078242268243385 1.0177652728577504 0.7230883113292967 0.47348973019672
Ni 7.70614214183919 5.2672229357345985 2.244379766904078 -1.5636845217697908 0.29699326836645623 0.04209050141214687
Ni 3.293519545009942 0.8393659548139502 2.9024447671219575 -1.8587854582095409 0.6392446372397637 0.5001762383489708
Ni 8.208799484956451 8.807145846834898 4.224625068032015 -0.306600195328601 0.986764967821494 -0.5253241983695082
Ni 1.2397684327027847 5.92783068243909 5.263928044469 -0.04520462156109634 1.499090182828173 -1.522987558271061
Ni 1.5847607637646197 1.5376435424812107 4.667089654619906 0.9159308186177516 0.7773902672059708 -0.4700513939391324
Ni 6.054535316382732 2.3286568068643825 9.65336856335496 0.1692552068868182 0.9685895824640481 0.1465456811044444
P 1.6238133727298838 5.583593258009775 2.9919131711076075 0.9105482141495996 -0.5885244851770768 -0.6703146191716908
Ni 8.309441427721246 6.385276483211133 10.744884380844868 -0.2615765794300592 -0.8387249615597103 -0.15820074884486948
P 5.412634524279234 4.444512798964014 12.123036405467092 -0.1294506732953706 0.45026161290671485 -0.9691251432525438
Ni 1.332124814866747 8.36371184965671 5.000723402715841 -2.1543216824144964 -0.15918599557627425 0.5624614695414378
P 7.539740466439109 0.7939445116001783 6.046858284177136 0.4320941979690687 0.3559437787587354 -1.097772861030645
P 0.6700799837069334 0.5821839949997533 2.8081661348986016 -0.18155767840325507 -0.1751630877308209 0.10396692720196933
P 5.944503071603656 4.053931472240701 3.9367892958482664 -0.9406974840394702 2.653789838952849 -0.5792983385931185
Ni 1.8058011082379788 3.9321061128731056 12.901089211834869 -2.5341147569870035 1.4094545846472115 0.47157220145903306
