# total energy = -340894.3075374526 ev
CRYSTAL
PRIMVEC
9.05222516237939 0.00000000000000 0.00000000000000

0.00000000000000 9.05222516237939 0.00000000000000

0.00000000000000 0.00000000000000 13.24884653808736

PRIMCOORD
 96 1
Ni 6.5119805108288205 2.0262500261252043 11.577517769560105 0.24882159375723598 0.4484189032710213 -0.5290584686009598
Ni 4.727126166649117 0.39496667771575633 6.050191213975048 -0.1458360566319295 -0.6019530998781568 -0.9498665521332479
Ni 2.6890448825532838 1.7038369311444082 4.567778040934825 -0.4386762220619606 -1.0670602624381362 2.228807312327897
Ni 3.554084548147238 4.344995543870126 5.10287225519193 -0.3197660432865977 0.29847499511830533 -0.5790322294159254
Ni 5.264837379130636 4.423722744000624 3.006454812820716 -0.14308189092556 -0.8032205980055134 -0.8477063391227142
Ni 7.230546124989912 6.05920632477302 2.6342544807791235 0.33809569483372093 -1.039872646279751 -0.13366728247987947
Ni 5.249140821119105 4.60664105296199 11.593999155472215 -0.5802725295809297 -0.10401140728665959 -0.44285837846410825
Ni 5.659496281199107 7.565270245862106 12.495847883258952 0.07262106590083622 -0.20549464883482674 -0.2816535526855924
Ni 1.8005237455164742 6.546007824303644 0.3497535299071093 -0.17072793477760273 0.3165670767333258 -1.4314866247465863
Ni 2.865409380672464 1.6685513584056837 0.5787893039466442 0.4652796835821019 -0.44051173260880266 -1.4430956697404245
Ni 0.59254234926782 9.11260326036213 4.249925456868797 -0.21635396014683383 0.4942765850350842 1.0289066341865505
Ni 8.532925933150821 2.273185669721833 1.2754892688131259 0.3588707225975432 0.6421566686802359 0.8759892452278074
Ni 6.8496556570249805 0.7876205119644157 4.715449701724622 -0.07269511367188125 -0.5348815030406401 0.06641030910443402
Ni 0.7371027603525638 7.385040447702023 2.404082652512111 -0.29119543073775656 -0.10904151351139929 0.13534878394736044
Ni 7.706828939163328 3.761769744490119 3.8094804011542336 -0.797321458912259 -0.17681039352625677 -0.18220842461337652
Ni 7.651728046074408 3.9794304926949997 12.758175024887302 0.049869116916301214 -0.003588745792522851 -0.40110366312482537
Ni 7.964020753594482 8.860951407582107 6.811973960349894 0.5272121594208404 0.16739527085994396 0.11682835654566977
Ni 6.794545711711139 0.5144841085589197 0.2880933946410512 -0.5888553861539343 -0.05046869817351308 -0.009149270599435856
Ni 1.6348408728030648 6.758110506407557 9.07083538935809 1.1695004685829342 -0.2917189073413944 0.5336440310891133
Ni 0.40488701100574304 4.975374382859167 1.3587217612863811 -1.897337864561442 -1.2798851263857893 -0.21008921018404464
Ni 6.545899197604603 1.7290111686473306 7.143526181610068 0.30213676024060865 2.2744299952630183 -1.9320251315309824
Ni 3.183296363193188 4.292212020360762 0.5676876553045785 0.39405575513910845 0.39811218459666925 -0.5364051387740182
Ni 5.953458233255889 5.599461925528708 4.894137000758311 0.11008435295361686 0.5576396226727622 0.7096877216526745
Ni 5.187947780658926 2.718582292467716 9.586878291048258 0.0629064097162336 0.033996925770734994 -0.36890393846382913
P 0.26723254231257765 5.4359153778964515 12.374078258855656 0.6483694823591672 0.4847851006048812 -0.33648335604127855
P 3.932358923110247 6.09608508909769 12.747615604517954 0.03754761923647082 0.012279845808617561 -1.0318960558321777
P 2.3819028910127718 8.494100940468318 1.2440961527900638 -0.7843954948792105 1.0709557408378008 0.37588885442209463
P 6.381637524203657 7.702067468855333 5.766507158092599 -0.3563381859836766 0.592393995434812 -0.03421958330450236
P 4.770631159615333 1.264622978018984 12.795006717642387 0.3772847063283567 -1.5018572040503488 -0.6029072362613099
P 4.1808424971682205 6.302756436249515 8.052012905930749 -0.6747528574487024 0.1651362996224382 0.0642410693672571
P 4.717829531656128 0.9421917785883477 3.7660242902025867 -0.5661443177096637 -0.16145396567484452 0.6473405268740207
P 9.159041174202473 5.55334989178549 3.6131457896387222 0.6170143650866535 0.5616330601028714 -0.9595292720339926
Ni 1.570198934648311 1.1501123327791527 2.403525940679522 -1.3559023624523678 -0.23965355410472272 0.5825237875089516
Ni 1.7017006060632538 6.799805054389744 4.717609562590568 -0.1009934463959422 -1.2059263155101358 -0.34441238108036815
Ni 5.949719664363869 5.768466964787811 9.278723355539181 0.9090559458747893 -0.4364948981399257 -0.43820802417629046
Ni 8.836075893501548 2.2558687634495964 10.067255426553057 0.003152172475736507 1.215857201470603 2.0119738414414834
Ni 2.406570203920166 5.278062679738968 7.062827406891961 -0.7197170808642186 0.18642966178357567 0.26319123221534674
Ni 0.5281638308582425 9.205931699288822 9.246144398051582 0.5082952679116794 -0.7833860797780895 0.09741807033985804
Ni 1.5986953386969265 0.9249110812157914 11.637547599118047 -0.5219696800749785 0.5121550079774018 -0.5557046104335784
Ni 3.762901272605137 6.816497357142491 1.6006198417149493 2.3669287739243883 0.3737679514243498 0.20400855120760347
Ni 5.942450727752993 7.952488219046217 8.029105345547832 -1.5473996685668383 0.31300892706842226 -0.33029959582806984
Ni 5.252019428643711 2.7493960660958887 5.084469987151768 0.5017232711211165 -0.2084478179258797 -0.09994443630613754
Ni 0.8799695001547486 7.585683013057031 6.864332934510503 -0.07689835311995143 0.2800640967112854 0.12410997780874755
Ni 4.948914729417584 4.359334268143635 7.41022554787485 0.5325230301107925 -0.3537701681461842 -0.7940476732569938
Ni 8.109308963562805 7.27922899061045 9.100685101032267 0.7304936026544323 0.03564757400028054 -0.4752290814853299
Ni 4.6959865129238185 0.28703066343542627 10.69686663686887 0.3272114438210494 -0.10476808294702601 -0.49879812705452153
Ni 8.239353226765605 7.256163921513922 4.606689934976559 -0.6296402813807801 0.2749895104018555 0.5470867868575804
Ni 7.263152239152274 6.138404240599367 6.984685885713796 0.290868386415641 -0.7539839724668885 0.023396524547069385
Ni 2.2857320534611536 5.39636620722034 2.6064985487289754 0.2992815501800007 -0.5496465771649567 1.275553331779655
Ni 2.3425438170599824 5.302539895923038 11.387237286071187 -0.3480669471138199 -0.407317248134705 0.5851455414025148
Ni 1.2072952375997072 3.6346040888119253 3.8145813298967357 -0.1998618760290816 -0.9105379297369545 0.11717108459706918
Ni 3.6213606837537538 2.679322792989048 2.78323780895985 0.580567178003213 0.9594212857012187 -1.1300972841949635
Ni 1.1949932639332304 3.30599927198575 8.140250373562353 -0.13949185958145655 0.6124066911113131 0.3976581277783861
Ni 3.4254162231323 2.417061732602614 6.998782915581938 1.1225647232633442 -0.008564344630243316 0.5908829581069243
Ni 3.8099909466397297 7.026273617441926 5.936238185790297 0.8428032453941422 -0.3002233452679797 -0.7465550269926691
Ni 0.8275788432069188 7.498799758273482 11.316925939448947 0.2691875590080977 -0.558001119777239 0.16142568354007036
P 0.21937433438226428 5.792274316327791 7.774316896832976 -0.15286519556456898 -1.6086261194774878 0.7753493255165421
P 8.631314565807873 1.8207283115382376 8.026866730325079 -1.4592851350160934 -1.2977388667377585 -0.9516354711082127
P 1.9105173305211531 3.289922520527573 10.328601307000064 -0.16989515446366224 0.23463013274820238 0.4956431263653077
P 4.02135134630019 6.031696613240699 3.7918855915769485 -0.4989986731011018 1.0683684397265987 0.18992404809007937
P 6.921584636240451 4.044561250995441 10.37012386270877 0.36720032550916115 -0.4708677191928407 0.7308957231888573
P 6.3517108686176575 7.758435673433074 10.286390782197431 -1.1107283927500484 0.12760590677714798 0.15441094278513406
P 2.291615999659248 8.747699021606174 5.658118532566261 0.8171734606411797 -0.04267465605039102 -0.35362798614136515
P 6.906585099547771 3.795380655618616 1.628163951701966 0.3991779068570222 1.1725436262846325 0.3617426448286996
Ni 5.240975714241134 3.1112316006039156 0.502870103986374 -0.49527802971640505 -0.9563925261772239 -0.3290014458419366
Ni 1.3839584591412524 0.9979987452210402 7.109290666962081 0.07707653056902855 0.5333157012154169 -0.4615839798980696
Ni 6.916243823537566 0.8250143478870418 9.193348201427328 -0.001215617574655971 -0.5361274596325992 1.2395604586248137
Ni 2.860629805914628 1.5283414466175615 9.503529930096025 0.19340583599109273 -0.10387179638500177 -1.353784801888733
Ni 6.112297623929669 1.8777573285351494 2.5072915949391414 1.587762131544285 0.6152683289298242 -0.014869975133296973
Ni 4.086445895700951 6.686208683866847 10.331291628246332 -0.44938409539776797 1.7785984070359886 0.8386074621452397
Ni 7.967913210310144 6.905679877055756 13.416311606371474 0.1404107718513001 0.016313135337726742 0.6845541598098405
Ni 7.507725252044745 3.929851456807367 8.321573680492788 0.7838447645820629 -0.24668680680242033 -0.7999043891480869
Ni 3.3332826778950664 8.37530859284126 12.504989725205807 -0.33113083348011363 -0.30408462799559893 0.03875115262626875
Ni 0.2758611231064596 4.807265513867158 10.127749635249401 -0.5613556380717688 -0.1438362525930813 -0.4136249355202877
Ni 8.796409043901473 2.3401178207813835 5.75441066993181 -0.2936860583700942 -0.023632294706959298 -0.1534267244949938
Ni 3.564666599078887 2.7495861628192118 11.706044879866289 -0.14788188341736466 0.410504387613435 -0.5184588387082426
Ni 0.9853075258829972 3.1985946233082325 12.663658028828594 0.35517090514845284 0.21424514133394712 -0.5597343004182619
Ni 3.218998338278239 8.4528861604069 7.8265835382994 0.1382693000282651 -0.1295442614504414 1.0778254713744404
Ni 5.604395388110186 7.773770142447799 3.682198876997062 -0.5946761066007694 0.5040917713532932 -0.3157762054009142
Ni 3.025669970658707 8.379065266183119 3.4401025528427427 0.597386563553397 0.12058011027861813 0.2965330409005861
Ni 3.5696362705600464 4.527397876011043 9.38741704104533 -0.6172887017939627 -0.45065370613881095 -0.036049694534705655
Ni 7.522453221989821 6.080995030155808 11.225032278172097 -0.524457993714471 -0.1562384829121761 0.11990956657415479
Ni 0.3129833922814813 -0.2566631644958166 0.2409168192472248 0.9244231723594789 0.20494597542020832 0.4057720151347721
Ni 4.639446316072594 0.18010035134372418 1.5842570399492957 -0.1549141076737977 -0.6857985737399027 -0.2267612715230869
Ni 5.853675557961133 5.369761718180034 0.5177754975398844 -0.05547360758727221 1.9877879882238991 0.7491346147943873
Ni 7.926635064674284 8.883581969882467 11.182874256274 0.523714173569911 0.1170345590192049 0.8014053991736456
Ni 9.05258700914157 4.853459017634657 5.619272719766444 0.08122089175470527 0.1629691167677903 1.934560496358326
Ni 7.948025472160586 -0.13597618619297056 2.2834119682141205 -0.24804743459537282 -0.44235341380323173 0.6621644792607305
P 8.321773734663523 1.6841121330434126 3.377090920396107 0.792042469901507 -0.3580430844899253 1.2436397709005096
P 1.724847145184064 3.1861206573682725 1.6654192885833137 -0.31905719014503114 0.2515433635637732 0.08726452684562391
P 4.832077662373276 1.025128263306714 8.148848176791505 -0.5084266512832212 -0.026923049643089118 1.568151813512525
P 8.507452972225533 1.4953822956833145 12.53570030346989 0.2625291731513156 0.45190763315057014 -1.4894104936465637
P 6.288426764200926 7.5860088931541565 1.4838443298000978 -0.41580780210421936 0.6299853234250247 -0.7439870091551767
P 1.8092953514640946 3.337663954756416 6.031656783451051 -0.7041302821695551 0.09134512467290075 -1.2700102904742385
P 6.771679791562853 4.01823738092766 6.1676954299959705 0.5556447037299205 -0.7546874262918164 -0.5446437246337266
P 2.531762474565768 8.494064731568638 10.117945170438391 -0.16310075724964815 -0.044651063050471486 0.9724963737176219
