# total energy = -381166.1781032647 ev
CRYSTAL
PRIMVEC
9.27040206067475 0.00000000000000 0.00000000000000

0.00000000000000 9.27040206067475 0.00000000000000

0.00000000000000 0.00000000000000 13.56817048239482

PRIMCOORD
 96 1
Ni 4.365033692059492 8.026749792757961 3.243118513027492 -1.0548472653117125 0.2712326144625845 1.4330593685503448
Ni 2.8217713241122646 8.157175079020211 7.6657992731155 1.0275544910340304 1.4886160227697265 0.8738493160666693
Ni 3.5870244714842414 6.132194810010692 10.199248115306036 -0.43093565888459334 1.6860849730865992 0.044136585307898185
Ni 8.985578205070023 5.085992858497427 13.202603439323187 -0.681438239888678 2.5376052866387653 -0.3302276049395539
Ni 7.628966111741047 0.5176527604793336 10.393177509603946 0.6408114675062513 -0.4066706156896415 0.5515126838394179
Ni 9.185290476158778 7.527269801392273 11.516459145896238 0.5020253757425677 -0.7217886186812666 -1.1963728674937462
Ni 4.93641492162619 1.1726131536933826 4.10187478942771 0.5189920855038933 -0.1092546579634699 0.4137241801023133
Ni 8.489342854417378 7.423042671287327 8.948072939547869 -0.5485520585491973 -0.768109099014361 1.2463142324088794
Ni 8.017840936400152 8.872303162576708 12.939584519762168 0.24500839065873287 2.042792883704869 0.07066419928478151
Ni 1.9490649467263732 4.919969228412086 0.8858471722737112 -0.2784784973917204 -0.4657039156037141 -0.290780454687525
Ni 5.430416105387854 5.91104009900975 12.111464140974494 0.9465302886711633 -0.19427409752865896 -0.5867835912265701
Ni 1.9539689894040853 3.7016715334790713 11.358878997986437 0.251750851588889 -1.1554725297349584 -0.8485866848451387
Ni 6.787065280324981 6.4200778748758545 7.4380301302609695 0.5647440949280274 0.16641722321739083 -1.686434643116534
Ni 3.852269214574407 2.873073728986477 5.481188243265536 0.8043829937447307 0.6008614094758749 -0.18574909077678334
Ni 5.69732025044269 2.187165952651433 1.8797881593421115 -0.981760058407735 2.680408984202274 -0.590468753387641
Ni 7.4099528636107115 4.091899836835616 11.49080238121791 -0.165051967438748 2.180566217933322 -0.09009299743335451
Ni 8.133850747494458 1.393999624745258 1.5609234108684171 0.6325733958671751 0.05101094383022828 -3.1451680193942155
Ni 5.528432066127835 4.190685240944688 3.9797613456320686 0.9823861220275081 0.8108740007857133 -0.7638588083784393
Ni 3.534303695098327 5.746991064558345 4.470657871751454 -0.6597630689080896 -2.015290564519542 -1.0179781601995048
Ni 7.736984836279235 1.9491761915508203 12.603554694876278 -1.246301376893073 -0.0941784803566378 -0.05082633862324796
Ni 2.2460051943819406 8.013372602618189 12.07677058839024 0.1895728353982477 2.1434248329963346 -0.7629416958808086
Ni 1.0321851036329246 8.586589371788266 5.660708651676929 0.26591711578694205 -1.396979592108652 1.078026788751969
Ni 8.643009038587047 5.934410782545689 2.5230687730294132 1.4949843881899156 -0.6040223237023598 0.3438331115381304
Ni 1.936420118347547 9.130632185747077 3.1844090569255066 -0.8902534684563055 1.1274485337182065 1.1905048387487431
P 0.8284587484620353 0.6156084636060719 13.479325867175687 0.14416561090804203 0.3110626019753288 -0.6007644788866945
Ni 3.1363346060406685 3.9283328632901493 7.43733855826899 -0.18114013124986225 -0.8406656302258491 -0.13182225885134072
P 8.488972038335888 7.1242483432243064 5.8694002341789755 0.6074107805586184 0.07611853753113342 -0.11546104388449792
Ni 4.613962527564075 8.217136039397229 10.635763536034634 -0.46304565204526055 -0.5664415372351084 0.9891563508718062
P 8.707827689631591 9.285141976502137 3.0306677824993353 3.4028234093929974 1.693703923084438 1.417911714275629
P 7.653198942666452 6.858920166515805 13.188899003991503 -0.27786066130206344 -1.6661427256367176 -0.7744203859443695
P 3.6129259747763536 4.773589580243705 12.18229001253918 -0.567526542769171 0.2100141339717351 -0.3477874682001882
Ni 0.9285049272481763 6.982707844919376 0.2460086588628453 -0.6808695118694015 1.6274802760695133 1.6945343894055334
Ni 2.7175163828012057 -0.02477514944458507 9.81311176740874 -0.04144644007024475 0.7979719480120644 0.26908702887449143
Ni 7.265223347004963 1.5777389931238084 3.5592568362620276 -0.8618528058264254 1.8361363533514572 2.573042287290136
Ni 9.046799940124107 5.271827337736399 10.24198744981843 0.6564730853029082 2.9294540068242254 1.380316015410042
Ni 1.5443562753876245 4.4023563306615126 3.136215017854388 0.47818867833428613 0.8161835859240847 -0.034480807385689004
Ni 1.4404999613641685 7.086156261253193 9.208229158959782 0.3189214358981153 -0.5288196131172763 1.0437436991993831
Ni 4.875146834561919 5.133605643360809 6.492396281168542 -0.24731312753250956 1.0167599715216875 -0.6780176442429033
Ni 8.038643718571768 8.04216647134593 1.687269720234273 -0.5251470493616957 -2.1207340762670377 -2.2419402501654293
Ni 3.6321435181996 7.495898760898175 5.7252927615499285 -2.201277225228428 0.7075966434516008 -0.16459559662761977
Ni 9.130659996953188 1.0583090965739312 4.854569323159808 0.6462205543369645 -0.3102845861587237 -0.39583084476166025
Ni 7.342992749695561 5.632473788192037 4.874148412262506 1.6648605164901844 -0.7987023984201858 -0.1729668514104505
Ni 8.93749262970274 4.649913146664581 6.736786327835681 0.14822178325528665 0.523546280533479 -0.4632266577078151
Ni 1.0577528724516956 6.273253247409685 4.513885756451211 -0.5020117488958128 0.46877998342587657 0.5975734827532225
Ni 9.021046763264591 3.406817126281888 4.187869819845972 -1.7474538631123837 0.6261332966687863 0.32711297056997213
Ni 3.154903221321306 0.433645304257861 5.574265860840267 -0.41089622373521495 0.6482010751021029 -0.7759185677564508
Ni 7.1962793670538385 8.455580050197668 4.1366091317809275 -0.5342744655842605 -0.670085276769704 2.1798452806068975
Ni 5.211578994896227 8.887172887444478 6.6520122093657275 0.3134593843422795 0.11282977690923794 0.257647419578982
Ni 6.107127642901934 9.313509406736161 2.1307323802495954 -0.537860640273622 -1.692182601343905 -0.8045496012295821
Ni 6.202918707152971 5.472383215410544 9.36567395899984 -0.9293530055609284 -0.693492857060367 1.0907316379131473
Ni 8.423587892767072 2.1642866004234684 6.707791291383734 0.38743130784405533 0.7308034205853672 0.962119144248356
Ni 1.1385444262064417 2.2850984797730782 2.041955302179951 2.487858040012309 -2.2422043024600935 0.7955129449486106
Ni 1.8037977468024637 2.4510572170441587 4.515079784233611 0.6733397791512596 -0.34515311590113457 -0.2555722822175082
Ni 5.56868415177363 6.937959614285509 5.153910604943026 1.164809490865168 0.20109909087029237 -0.34295816513234484
Ni 6.393230790575942 6.567959328174272 2.8955563080072473 -0.5783380315623782 -0.3500240708401907 -0.4996165091907589
Ni 8.045355489646747 3.9291764698755403 8.869391329296803 -1.6781731744386905 -0.47727747937392634 -2.8932850131028363
P 1.6422146392929717 4.40595324665197 5.754424072911823 0.0815736471084337 -0.9971416830701278 -0.9821904610769342
Ni 5.667784749551971 3.458304939196846 7.7485923066700915 -0.8732019122906576 0.039437122949699824 1.4097636312471977
P 4.904617442638378 7.264398281223646 8.331006241701335 -2.3906659696403283 -2.0616784077554624 -0.2916230051934784
Ni 3.6206296788693195 6.62669659548237 -0.10575674644109503 0.10360928675223446 -0.6955247998887312 -0.5948763955370335
P 8.932254852551688 1.6399526611958795 9.03615751858533 0.18489985540261059 -0.07730741563291202 -1.3096261050936477
P 5.1093450012292925 7.4326931598081165 1.3580109969963996 0.35893500017657537 1.0459394212991213 -1.5426636965437497
P 3.44281409739258 1.434418577627724 2.5653612741636103 -0.9104134883439483 -0.3400847002392917 -0.4221242312405504
Ni 5.595429261651135 1.0365236517863636 11.433720807713666 0.4466093608661083 -0.48234332393260804 -1.1190009171714856
Ni 0.6187186834895737 0.7288139780841077 11.097203359680616 0.8452727899805572 -0.31954081464966905 0.9979757489356491
Ni 1.4237854264909835 1.6805662925211282 6.7729455309820255 0.47223914561907054 0.10961589795763056 -0.041569595911670344
Ni 6.127466904971689 3.0237363028960735 10.150497852112682 -0.5993076918355098 -0.9653726181886471 -2.7944055277261035
Ni 6.748945387147756 4.37625087852458 -0.05446083084830829 -0.5033379239064041 0.045819629437275924 3.2777446399130774
Ni 3.6580264806876377 1.5126422300181483 7.528828155974737 0.8965979226170945 0.1436508760551526 1.5621356892254321
Ni 8.928324202087888 3.653270764442522 1.545644861270804 -2.1953076379085545 1.9884425910887629 0.08839966889133163
Ni 4.218700395901297 5.729173351842726 2.1285473464894125 -1.2937235749307785 0.11765830864613286 0.7721241337110251
Ni 3.8097551508315197 4.031512437964885 9.744592371870922 0.8527593281655894 -1.9788660031439211 -0.35011971587779056
Ni 6.664028504486427 3.4611973046324724 5.758942466864785 0.6496753456547844 -0.7040102116519229 -0.19270906703438423
Ni 5.170093945779475 3.282334167725522 12.120433254945546 -0.5956544113536386 -0.378291036105684 0.5928022866168242
Ni 1.8100923497857655 2.2809731508664965 9.173236172389725 0.3986359183106231 -0.25309476721129315 0.16047746069418814
Ni 1.49292408488489 4.59487476976935 8.861060018985917 -0.46118494468743804 0.5209492092302641 0.49653555627258994
Ni 0.35745557807441225 3.128232274660101 12.898066097198083 1.4612270892338124 -2.3525128556093744 0.3506483346877509
Ni 2.20147018299493 6.088290185962216 6.984473856507475 -0.6059712198986145 -0.5705375616813528 -0.16819231283994257
Ni 4.1751387767281996 4.03955914693323 0.565237734136604 0.6767320926622604 -0.49913854111307593 -0.2936498058155201
Ni 5.46081375366804 8.404583568590683 12.940560693096693 1.2771543577181874 -2.190101154006951 0.6641989931922561
Ni 0.6708665490295849 9.198371013433356 8.233600273415407 0.15607290386858927 0.08930906807947846 0.4299277864453692
Ni 6.157651334005017 8.613547700912626 9.035763526498746 1.6684348641050042 1.2841228186162208 -0.18379222416072863
Ni 6.89490786722446 7.241667255428278 10.82277350225193 0.5675303994239129 0.27106806386026217 0.8906378483789177
Ni 7.789140118140875 8.683326017047104 7.2076699100370245 -0.15082708208861767 1.304102089951625 -1.6850210505984593
Ni 1.703056287863528 5.893982559261186 11.953381537274272 -0.1403351814183583 -1.0283618174266742 -0.7460042966955217
Ni 6.832768362368687 1.5824112757505888 8.338549567839056 -0.3880357741972737 -0.8139341277682756 0.6767498332740732
Ni 3.7789403344596577 3.5586755820542915 2.8011085250114087 -1.7391003489413663 -1.318997776116535 0.5300275173824485
Ni 9.020490539142354 3.0194533771548584 10.586890903534387 2.2777217786404127 -1.9455126244944558 1.1843015381515087
P 4.060056005837617 1.8718981201681968 10.156942635608987 -0.7896523724027755 -0.44566628022654864 -0.6681893452985718
Ni 2.902201332187557 8.42959511328722 1.0606007399575428 -0.3405053327164781 1.311666275452128 0.30935127571117693
P 7.027205774698238 4.515538669134455 2.251257804176254 -0.8060274713266893 -0.5742754314572303 0.28113624672954163
Ni 3.6910013007341815 0.48303244407117535 12.706130766378388 -0.7002443168515875 0.3491424395661858 -0.7861690418398655
P 6.534558069634014 1.2228680031373849 6.186746490798965 -0.030189121988870592 0.45362513006230903 -1.1967778162416485
P 2.1947584119199517 7.076570665546663 2.6595921297517764 -0.20581012319271652 -1.8092703821985485 0.15124925722770077
P 5.802446609545251 1.1354110303178468 0.0030879709186122685 0.7343384303218191 1.0440185501273247 0.4749699142866723
Ni 2.5381804553903553 2.1485176465580844 13.608196507016292 -0.6487201808303665 0.7957332884895328 0.48307197456851647
