# total energy = -340870.2884442959 ev
CRYSTAL
PRIMVEC
9.24640274079199 0.00000000000000 0.00000000000000

0.00000000000000 9.24640274079199 0.00000000000000

0.00000000000000 0.00000000000000 13.53304505186139

PRIMCOORD
 96 1
Ni 4.833307406909016 2.7785810247603164 10.211440605561076 0.3138813023710465 -0.0004005778725283424 -0.02538373018042725
Ni 6.926526563882932 2.836343303005124 5.770937032802897 -0.06743772192768385 1.6280610882736477 1.0429759677954231
Ni 4.613270759655664 6.142070997369207 1.7958076865125652 2.2988035390113764 -0.6499771931659194 -0.06817717119686968
Ni 4.478430467732496 0.30086685118491263 12.539043128361204 0.15187403529589327 0.6619760173990082 -0.8848603224651923
Ni 0.6115543067757496 5.750042011772384 0.37683159796705484 -1.5554099404658244 1.488347085379056 1.3950600064884362
Ni 7.801097572012457 3.663628207253754 2.8659475108259023 -1.1661230674702692 -0.0457322119297922 -0.7086965613839988
Ni 8.025674203036932 8.28154990751405 9.605999095671455 1.0505702352029134 -0.5346917556273373 0.758115735247075
Ni 5.6542400324391915 7.265499690256337 13.365830576139597 -0.6336424605616378 1.5048983048695177 0.4513952122905258
Ni 1.6385642852634255 6.6605168019452226 12.067186248895528 -0.3622288404364987 0.06462442084860484 -1.2856143155600828
Ni 7.244843226417869 5.6258258366578096 13.653488940935409 1.8932220426208555 -0.6279554374791895 -2.3492020460685867
Ni 9.00950995296554 3.6559814321443485 0.7929224975508263 -0.7843517861254686 -1.1254268753024876 -0.8179152239032108
Ni 6.028497431868812 1.5826420411743274 4.0489248869773515 -0.009392239848177374 -1.4540747944597474 -0.20558797987958144
Ni 3.1304528830292706 7.879636517332034 -0.03729998886498388 1.3627659223414208 0.14055938161402246 1.1668679160560935
Ni 1.7757254242875133 4.150774938377124 12.881225681143887 0.5144507459901141 -0.4829200223716844 -0.7892649071563697
Ni 3.555315844942296 2.53977417983817 12.552643662228705 0.4084436484296643 0.9298096334823729 0.16275288699192617
Ni 3.572902503053649 8.080061544262472 5.515270297028889 1.3320720928019896 1.87815075011003 0.9864042420479658
Ni 4.169970470574374 9.071618040522829 9.586646374626731 0.7551180860713317 -1.1940804719151437 -0.18674153659703968
Ni 2.1477451942413466 0.6640091498176568 8.58598679481715 -1.1407023134043193 0.527205217442305 -0.9517403721171931
Ni 0.622723036708822 4.845031845649918 10.403203602355491 0.5251280231983021 0.5686346882316852 -0.4335988075390532
Ni 3.3197544874003206 3.561399977979767 1.296679466650661 -2.6801349046052807 2.7646936024839674 -0.6541871174822088
Ni 7.921337793926251 0.6323522405769417 6.133135273710526 -0.008123143327766657 -0.06057776158305696 0.4680284499718327
Ni 2.915316829255949 1.3524620900575923 10.656529148942436 -1.086892466672715 1.2363190688693806 0.6014620191743513
Ni 3.882203922865889 8.137130342297842 3.0936808637637387 0.682018023651548 -1.0382495088540313 -0.18471679285752704
Ni 0.30646369879521873 2.2722110222313185 6.317252420035816 0.3977380890867021 1.5137246449118964 1.4644898191454843
P 8.676417538768174 1.08898584248503 8.608383431661167 -0.37654320017664183 -0.027415415898475362 -0.7146360667968854
P 2.343214149275 8.78936234887868 11.662155896332155 -0.07994613880733974 0.3711500541855286 0.5576401368933944
P 8.42804066695578 2.177204233538282 12.630120195867423 -0.6564134357095662 -0.5828307772264092 -0.014598980860097437
P 2.5651555555036087 0.7956612820579676 6.4784042757453495 -0.027511832267023584 -0.2720412264068089 -0.7116692708590776
P 3.765199941929472 6.501959486859268 9.463170836375838 -0.21457552809017238 -0.9310003113563644 -0.9635278516704244
P -0.00682014669975511 6.6028007557143775 8.703818328803496 0.5788311691487128 -0.11072661452330607 -0.030146441676393243
P 6.803882277243084 4.920223593158607 6.826460143581834 -0.36819919908732074 -0.20864039355266004 -1.0935053440035425
P 5.59550688190117 2.3392289496714285 7.971003921885938 -0.4908806719796578 1.0217322279252985 0.40149035704028274
Ni 2.693680554319493 0.9830035736772846 0.9642888544252451 0.9768155699182661 0.2626926953123734 -1.3391392840614162
Ni 0.913462302915099 0.6036079482158669 4.930832915722732 -0.45813381656594 -2.417666409488572 -0.5382090247519763
Ni 0.023898252657520408 3.8604193978867367 8.15635268906319 1.1108345793106094 -0.10251322547457829 -0.19493487104110943
Ni 7.219591300391526 7.507200659252538 7.361881419044618 0.5450520158157387 -0.7377325436050327 -1.1159634158967426
Ni 1.5042325454938454 7.022837095369713 6.127478324482069 -0.11091019128902188 -0.6208787331380662 -1.4936312165961307
Ni 7.081579492310527 0.11571503238714112 13.219132697275313 -0.9511855280549876 0.13563751883237285 -0.9250960300567874
Ni 5.2588268634203095 5.174610626786131 12.251560445218448 -1.9389977061940735 -0.844744428280913 0.816985770110406
Ni 2.1440281403187575 2.382714782004601 4.693273410537295 1.948182200906819 2.3554469985370337 0.866918650385107
Ni 7.964222610077911 7.704629851678204 1.0277210268624197 0.33979982200902126 -0.0256935481113622 0.8058878604250315
Ni 5.010866079733578 4.607279090646117 8.493717865990977 -0.035802097300273825 -0.23897529709077553 0.5487780585170743
Ni 7.35147274342109 5.4558584605258975 4.72453457373849 -1.9639595183457337 -0.9899325669161985 -0.502987739655837
Ni 3.103102023569027 4.368231839251366 3.410340570918258 -0.2838472179028015 0.6073192492860766 1.5913943289802335
Ni 3.502010332843478 1.0996746841131713 3.2690287216806126 0.12838135149059182 1.095889785075319 -0.11009489447657814
Ni 2.9166298184524853 7.654791740626576 7.823981494283639 0.32756677027793907 0.5059979872370706 1.0133923406010354
Ni 1.234801614522907 8.201106203219217 1.052503235626904 -2.021707266679164 -0.7699903751974739 -1.0183795094029817
Ni 6.68124723700603 8.232174116602048 5.049369025601868 -1.614019522578917 -1.0084650785027471 -1.1474085217799015
Ni 6.416374782611798 0.6419093225032796 9.08381312116587 -1.3839582401483197 0.07099998535764546 -2.4835187892070065
Ni 6.045557045020991 2.3282719623623045 12.58081930081804 0.5976092210871643 -0.16330027485496393 -0.3431918784097057
Ni 4.748647342940798 5.135711010238044 6.185142590857275 -0.7235302839627216 -0.8323995335623148 -0.023981964736894183
Ni 5.9343135730243075 7.14665567516421 9.225963619136795 -2.2488842855834306 0.36607341099356955 -0.2608366159402411
Ni 5.639612223221442 0.7365767682138311 6.5589802036001155 -1.2631950673246182 -0.1959193464415658 -0.15756465792276736
Ni 1.2353563986904577 1.5754390933989622 12.666361471612666 0.929332179625322 0.48560168296890566 -0.34522947766502476
Ni 1.2990548675280567 8.086654229453533 9.855602965134414 0.49197544770573337 -0.5447380841197458 -0.4895490976524279
Ni 8.404554803862807 9.131728905076933 3.2567411770096464 -0.7526847940394908 0.35494516229089196 -0.7212844253513384
P 8.613264607695333 6.79937003268034 12.24873197060422 0.5000039744371647 0.13334949412914454 0.5379061487995768
P 8.780273134933642 7.974671045233447 5.150054030249784 1.4184079371857572 -1.1867937084457432 1.0819181533865754
P 3.3144655450030047 5.731086886047739 13.598950883344349 -0.10168250204316683 -1.217481367337587 -1.6577647859856677
P 1.2628089685814188 0.45912088425927355 2.398854378078927 -0.4104730201548673 0.6770956466492661 2.1230326424932273
P 6.215450449930564 4.575360508206374 10.503050882910408 0.414539476914757 -0.8211062200366825 -0.67782326884391
P 3.0485482470932204 6.320091990333395 4.508317615478725 -1.0731866870508484 -0.18870611652257824 -0.9469735468561692
P 6.861062032111965 5.678669028617001 2.0733976433076142 -0.5036423425207003 -0.3377228848753345 2.841666774705913
P 6.121830621656404 8.457203821363356 2.883634954727694 0.562295890497851 0.4685514123548382 0.5608696995742857
Ni 3.2450250600312573 4.837329592123758 10.943767727051469 -0.27282052777499466 -0.05138375378861474 -0.43347102371193735
Ni 5.659686163683979 4.006013256257593 0.6214941897776975 0.7123033048986507 0.7185472289258334 0.02918587753533683
Ni 6.734192139395939 1.5775010412216919 1.727208624194936 -0.10983778416044954 0.642048682347462 0.06320465768294276
Ni 0.49561921000214687 2.0932468961822943 10.178487350648853 0.1263967169603952 0.4347547755203674 0.5088251722732204
Ni 1.5716850538652032 7.993996027069793 3.5950670551875743 -0.2658824058942647 -0.9277828328603313 1.2039532509441653
Ni 8.952894228667006 5.596015434054759 6.255690794883566 0.014340584992388206 0.34163558966617935 1.7945562159168256
Ni 2.3971761559720863 6.418529194462454 1.9501791550543512 -1.0611400402989597 -0.7961788606673836 1.026310077103968
Ni 4.9779951178062065 0.03027827058435206 1.298968875982086 -0.11050935630617742 -0.3800393862553584 -0.38880839069724005
Ni 3.2304064972162996 2.6587661373749767 7.4921234748590715 0.405105842305683 0.7198335518374247 0.42942693554955075
Ni 5.154213062225855 6.242126321986954 4.269986960300392 0.5231300189316668 0.7381986846081737 -1.5959590655327804
Ni 0.1395383891820422 3.979688747507318 4.387454186016714 1.8523361030397711 0.5687192775256914 0.7371504458493175
Ni 7.400450939013013 2.9806519113878216 9.553152205151145 -0.32850008072548587 0.010169484333834099 -0.5308297015687696
Ni 8.766949068509636 6.56187617695473 3.330888081002781 0.47940763834305183 -0.37676560060009306 -0.8804534516467482
Ni 2.417129893198322 5.111799812616613 7.982209637430181 0.32772823555646785 -0.10700699957987377 0.8305977044668856
Ni 6.639675410050906 6.641561676220578 11.233212496866795 2.2766827958529374 0.4619189946399851 0.953963347910441
Ni 1.3289762269646177 2.5663113558526724 2.2246835872375397 -0.06674223852255604 -0.08958803277247797 0.4794330922643485
Ni 7.466562718979457 5.302664059059597 8.748910261301729 0.3896943928466192 0.80820442437335 1.1940370202717179
Ni 0.0849531749367408 8.943259476957211 11.792573633799666 -0.2260858427226171 -1.1485511200247769 0.6760222110794293
Ni 0.14287634059013818 8.520033128338458 7.455651963684296 1.1652504350573287 0.05728366421281748 0.43083461453035476
Ni 7.491444788894101 1.0714824019988094 10.9117344892171 1.6919172634976605 1.102757972950062 2.0954331356084044
Ni 8.18089356671479 4.174122105428211 11.864650268207557 -0.8961585210868308 0.1593464324135385 -0.015364141160896119
Ni 8.870721447049972 0.8943971449972233 0.8955834584755022 0.8370650573587841 0.2746861202288237 0.2611508047465502
Ni 4.143627469018514 7.314228232972862 11.382779534517592 0.07557706320536661 -0.21809793942113406 -0.2905853079575834
Ni 5.363006083683516 3.6309606661878173 2.81186899945363 0.07173017865545066 0.20832363364318962 1.0872866167873405
P 1.6404413050303048 4.486798462259717 6.111455233082928 -0.6551209421503879 -0.9444019294742511 -0.5506513642803872
P 1.0635952204167987 4.661148633315278 2.3932649275908546 -0.9381166106861715 1.194959274975671 0.16743023786293748
P 4.638494946473631 2.2007640678535965 1.0320418708873595 2.6715121959332766 -3.6580784174804033 -0.6096797790984533
P 2.1818736669484995 3.423055299398238 9.614646331563009 0.5498838899867433 -0.6619947864520858 -0.5797004591275435
P 4.630506054460901 3.11519631842163 4.789168778538691 -0.6710476406829734 -0.059771977852309956 0.3000531382387026
P 5.111476188518876 7.9894190576875 7.3800025192373795 -0.40952505441930115 0.980278588766202 -0.8747101214050677
P 6.017540444559687 8.856472740346714 11.16105449411433 -0.4908675593535353 -1.0816427882380018 -0.4186164751976081
P 8.438738754986714 1.9832147029514298 4.307067809419194 -0.675111783450018 -0.1483678219148477 0.22187566129601144
