# total energy = -340862.74718001264 ev
CRYSTAL
PRIMVEC
9.35671399950668 0.00000000000000 0.00000000000000

0.00000000000000 9.35671399950668 0.00000000000000

0.00000000000000 0.00000000000000 13.69449672942342

PRIMCOORD
 96 1
Ni 3.750170977215447 4.207143532994452 10.392808221018344 -0.9551763943819357 1.306521498026395 1.2516490143582315
Ni 4.256537626279682 8.860695891644966 9.383044743918235 -0.9656312711666725 0.49235931340771333 0.49815432282293565
Ni 7.04914249119915 6.7926001063356445 3.302948117440081 0.6622830071164659 1.1736702836899078 -1.4104586004316935
Ni 5.683034174865849 0.733295034070239 6.027427683287672 0.1492643655871881 0.46602864593298454 0.4798565529550124
Ni 1.4386696335196925 9.308676645255547 1.4972464059392523 0.13744654701665363 0.1534416368933293 0.8117168084019828
Ni 8.94292269440886 3.140721409847862 5.736638789457833 1.5971307172433784 0.5707185673439074 1.7270645008227548
Ni 1.7712727466112033 3.6104097399732638 9.15661975012624 -0.8043179448347502 0.04995499176188816 -1.4106763728694542
Ni 4.341992495378756 1.6271887074940858 8.033493133034494 -1.4845179414409528 -0.6061632813047625 0.18412235380663775
Ni 3.2990744378378674 3.9293894774589218 4.1851889392296355 0.4995303772348558 -1.8550293336012182 0.29856189840515673
Ni 5.160920176114354 5.332017048592801 2.188928390099142 -0.13683076780952566 0.838174488372879 0.2315270683428464
Ni 2.6538541527909048 8.769028164439925 12.914499724018654 -0.8220415873667585 1.8136870232090054 -0.8238711843763294
Ni 9.279960889943485 0.8078979862547055 5.908381275203316 -1.2659296926469619 -0.9262334860953404 4.498952564172632
Ni 7.642938276019626 7.886437401546209 6.291430176235345 0.7812541210367513 0.4980663910948196 -0.9225028154083145
Ni 2.1332091581397656 2.0566805942110107 5.7795571009732765 -0.038977152594145775 -0.21728829903564512 0.3859642363802256
Ni 7.045876998007911 -0.09108199690769973 1.3611717140189823 0.023181066102153626 1.7196345269072706 0.6084230238732167
Ni 4.8783567695751096 9.032924926519229 13.59009003141553 1.0411743958103101 -3.057846156948095 -0.20697251893193386
Ni 6.964061890660676 4.3778193533422245 9.736226078142955 -0.05948915650456852 -2.8174174152402442 0.8359039471711475
Ni 8.036191609356422 5.088284005215843 4.433237299110317 0.6106367436950838 -0.3446905744424193 1.8178969475252948
Ni 1.8791369457762224 8.29130241697563 3.6661261649184356 0.7319565603532039 -0.6787668637041019 0.46384372246652367
Ni 7.383738584375857 0.9407240270689647 9.741470516348366 -1.0130910073105328 -0.08428487539200968 0.007649803235773922
Ni 3.2554815072419427 1.2386979415909287 0.5731941719022299 -3.01440402660406 -0.2094862864927231 0.6184955776178703
Ni 7.390905827311355 9.572573407334849 4.276435614304 1.1491108491829887 -0.8034252578171519 -0.6618484906822085
Ni 6.917465454865933 2.182163485866291 13.435862378634743 -0.5566245511446866 -1.5065782636751022 -0.2920971166164195
Ni 6.1014664256170335 3.0175776966963337 7.856259191833602 1.2625276089439483 0.012270332726920803 1.0139456420013442
P 5.276260389777365 1.3426603910116892 0.9751539276299919 2.1209631615587083 0.702278573672797 2.3031602733181753
P 4.386755015226558 7.994591658845694 11.546926146270602 -0.5037433868749389 0.353661667592778 -0.5739314178542503
P 8.846660820622452 8.62763885895913 2.459764091291975 1.007785278826903 -0.28726267134225364 0.004996681883643008
P 0.7770264440335862 7.1397061261504176 9.656208395558005 -0.21414821074476664 0.03463198825157261 -1.0275082111771272
P 2.0405964028192107 2.0568115882072204 2.6306579230762965 0.8844684863434124 -0.34653225563684836 -1.3387855002664233
P 5.887132177675231 5.357916432986345 8.224188578688779 -0.4259785719896341 -0.13282910284930027 -1.7449195267263045
P 4.268093168088218 2.529269505681065 5.870063659969053 0.9159974101896289 0.6842289152599378 0.571599427286964
P 9.165256932833495 7.039776420470126 4.99632715554774 0.9001900108437271 -0.6829258801777981 0.009511539034861039
Ni 9.166164534092951 6.523370017267786 7.7497563945577665 0.554346296633471 0.6743391669500516 -0.4497836448290318
Ni 5.401500006868255 5.83067376530867 11.007622928202133 1.0215998161124922 1.9153674683696431 0.25781916927015597
Ni 4.23811425638413 2.882719377598015 2.3373764006328597 -1.3600395245491932 -0.8510947959789729 1.2452495385897908
Ni 8.050806796647866 5.903038591500747 11.299534627713776 -0.26773308594975825 0.22680883693157067 2.507132571971205
Ni 4.11192025446371 6.3876228103380415 9.128655338949583 0.2920048140129293 -0.22349185674319572 0.3933918963028644
Ni 6.259463898474469 8.291611188538127 10.331580691518333 -0.2870466986767057 0.23068657471942206 1.4924384818396104
Ni 2.0882501472976496 8.743119423332367 8.298783109830632 -0.2976111044561133 0.49157692671573394 1.3699249019837052
Ni 4.356261484251644 3.11135068455475 13.884849914673339 0.9567373111111522 3.383955368843901 -2.9411422417954314
Ni 6.079683995390093 8.345131592703975 7.864119767277611 -0.8362770142398501 0.5318815398720517 0.2840909584824914
Ni 9.218562132576999 2.227936530827713 12.63315924000117 -0.1666103130648034 -0.3857374650814002 0.1892290789055838
Ni 4.485122149666343 0.9986608002498979 11.687458376747621 0.47155780328132985 0.42488816713893274 -0.564665419171292
Ni 5.502281173523913 8.131115473038683 4.551941251461724 -0.7556541610804598 0.03827909808585665 1.8004949499987637
Ni 1.9574994256519194 5.974467746291322 10.89610867489986 0.9942612761985392 -0.30951556920318307 0.10890961591922534
Ni 7.2201645099654765 7.963808069736316 12.660768096045254 -0.5906947533555182 -1.3972068776281097 0.7542423683345978
Ni 1.031259591878188 3.3992380613685347 3.868366859995839 -1.2550624109151547 0.5713567151485386 -1.0700915930652926
Ni 0.3906980147392976 7.141455831671225 12.571643523709495 -0.7279664653572043 0.002355901826686265 -0.3311092362135588
Ni 6.1730078609757895 3.475906976007515 3.4285404826493373 1.0923288071969381 -0.14564245256388467 -0.4412848633294013
Ni 1.0371075381375683 3.35082642305488 0.9522758261918944 0.3970621460656001 -0.9580334042147565 0.055192586011743656
Ni 9.048429001642097 9.199371512132215 13.702987207049222 -0.1281833765471728 0.6595738357154189 -0.6492416005514754
Ni 9.253247471430635 8.990089889758519 8.602855730547576 -1.619308538891998 0.27532838179851293 -1.9126505836591123
Ni 2.937680715722175 2.06170514963707 10.197552312953142 -0.0865441037398316 -2.1871240736564976 0.6199515933381065
Ni 2.188628975250662 5.928984759464365 7.742444122555037 0.2061677636424514 0.9711581145221726 0.5222918393010876
Ni 6.373307037895078 5.795707725034583 13.308393992265477 -1.729568755301847 -0.07360939795603452 0.4798614380510187
Ni 5.990804568961527 3.597768819338987 11.9803291394458 -0.48406339194750825 0.7007310266800191 -1.3031029592631493
P 7.553207388615693 0.8121234783038835 7.4698409380847695 -0.7751217828867684 -0.43538392446393404 -0.49776968579000724
P 3.512604008374379 9.467684643226603 4.767082048151619 -0.131762866368315 -0.5464044160785752 0.21191083677381567
P 6.236633516277848 7.410807558021277 1.042864724271003 -0.5533744196385051 -2.3309911794875147 -0.6127933850267705
P 6.6158049950220565 3.9832092964732513 1.3249284822818463 0.25564967242266295 0.0829342749013862 -1.1000351747022603
P 5.40673976671666 5.990196382550551 4.472814328051 0.5770488804373094 -0.7195147350454253 -1.2650724868529892
P 1.9395251780290879 1.6708845619441761 12.490900695788381 0.5974261585420807 -0.7361274039014419 -0.9802593054924923
P 3.5840705900210144 7.666760469901837 7.524358767964618 2.4356551327565086 -0.07679936564824193 -1.7103965532487704
P 0.915431893414995 5.353602987825426 0.20731858377334855 -0.9796862065978419 0.3429748773028932 0.22326508544437032
Ni 1.5734063153358162 5.380952662891296 5.186119678299574 -1.1003501348395177 0.6463413961855449 0.9948516014843705
Ni 2.4854333005207496 6.664572188468282 13.242893251474813 2.1224047791012417 -2.5431082187348655 1.0495165971274183
Ni 8.127915476845551 4.447283598189648 13.24246845665853 1.8040695547238996 -1.2113965945960878 0.47693963641853343
Ni 2.765311330137687 5.058015035377289 1.5917389251054226 -0.3237278561478231 -0.23469466743755063 -0.46544551973600484
Ni 1.7772423301527787 8.169880339202864 6.14133819104919 -0.15385661294356084 -0.5781182022420882 -1.72674337003791
Ni -0.0044959010842116325 4.934936819223866 9.723489719025727 0.4683758060089224 0.2610615874668536 -1.1703998404687521
Ni 4.784471501148514 8.248046328084246 2.363478825720529 0.6002633708805598 0.3833717930627011 -0.27915855417788055
Ni 8.640850539148323 2.556563040462845 8.556896486977257 0.6082240204885332 0.8861900970202093 -0.9068710224083285
Ni 3.167837167063357 6.1338219426809335 3.642024205287175 1.2413399191227397 0.8577727222197807 0.927492298203106
Ni 7.264440480684497 6.541793387163338 9.364379035129696 0.3976226465547603 1.680369924979693 -2.7131054459940307
Ni 3.935031576009972 4.1565985638853755 8.085162779168174 0.3026054723469111 -0.19084681701466485 -1.0674706105026777
Ni 7.89323973263512 4.71614877541092 6.93928905463454 -0.7477809289799702 0.993657066955637 1.6460305282678749
Ni 0.40106151118232114 1.2078582121974604 10.32230912360086 0.35899387843896885 1.65060400657117 0.539334139495355
Ni 0.7112992707637568 0.8623465764508438 4.013432418413131 0.5149708801596422 0.8746679553132227 -3.70217257958614
Ni 8.717818868635783 8.323199455052796 10.716313801073062 -0.7164936888309145 -0.019074500132947796 0.9321750483907558
Ni 4.0742594805533 5.296658026330083 5.851973389092436 -0.41707509885241717 0.1283684959747854 1.831281596362317
Ni 8.502558306006495 4.818296022312769 2.2159066036186164 -0.9666815668080578 -2.0517292669625506 -1.1403747548615715
Ni 1.9391883363245475 8.846052634211476 10.579423203690682 0.7669937544629951 -0.8547694166170827 1.0573026688307403
Ni 6.456853137335091 3.360370271350189 5.6669471764598445 -0.6440106911698392 -0.4698451914655973 -0.7266325770371292
Ni 2.021518062942608 3.8872000539652483 12.245783794408602 0.1312447890813159 0.06634063220876317 0.36101579396500405
Ni 0.6485756026927453 6.1994686482102335 2.9518486520837017 0.8359342861884507 1.4809757326156494 1.0111151145310844
Ni 8.449168895836856 6.747182616506793 0.9357397055131695 -0.13798750712178817 1.180839290634521 0.13870587334505144
Ni 8.212818299817739 2.4743081675569045 1.5614053939401664 0.6893333263660386 -0.5833935917084146 1.823753920526704
Ni 5.241032361510857 0.9104765776726464 3.5316598921373457 -0.4307551674426711 1.194517559452562 -0.38706878229831404
P 5.156569304097375 2.7516505276757743 9.974003573049362 0.6112378676141924 -1.9137227336773688 -0.2811604150992577
P 1.3748381305093038 1.3846533235110479 8.047433701245454 -0.2384991287853054 1.1139921511029847 0.16729474072633768
P 7.5127396005007805 0.4697416633952873 11.90114794709379 0.4261680622926209 1.9605921445353978 0.09507425269802981
P 4.1321588268781735 4.957243225435647 12.45810260615157 -0.8713106088052156 -0.3124196302238555 1.0374920618627166
P 1.2243166721498604 4.224659301630548 7.07249591370921 -1.3451384390676446 -1.084606755962332 -0.4263480395139109
P 8.05542901337128 2.2349634230529842 4.160716453723381 -0.7668235474337181 0.2517043146216697 -1.835764828944651
P 2.9973952645659603 7.345095355493872 1.9547934639587787 -2.0966479818521115 -0.21007995421266404 -2.2871348444241963
P 8.464803964955935 3.488884738346332 11.077465184295766 0.04382033961906001 0.18635021469589197 0.13105349900611624
