# total energy = -340860.37052726944 ev
CRYSTAL
PRIMVEC
9.32542533683938 0.00000000000000 0.00000000000000

0.00000000000000 9.32542533683938 0.00000000000000

0.00000000000000 0.00000000000000 13.64870260890219

PRIMCOORD
 96 1
Ni 1.1801885311274365 8.703689920419727 7.952048513817418 0.5081037207261636 -1.228482346433781 -1.0901166300369676
Ni 8.791143759391511 5.47768957508564 10.322499833082444 0.021897828514355837 1.3765591194707711 1.5051806119966271
Ni 0.5928238175648954 0.7913527979306783 11.626224138962176 -0.0765258002718811 0.4753026150357427 -0.9229841259201071
Ni 4.925344631355766 4.995947426712491 13.158222734460013 2.076087898312573 -0.7679664027889096 0.23669112904228912
Ni 2.2898861720023973 5.644838499134505 10.347641179837396 0.4981016152081292 0.044518137017033006 -0.19715964660657015
Ni 5.069142690317688 5.974678793912923 7.175205145195357 -0.2333612933381078 2.1369772775987776 3.2629615680666317
Ni 7.12237754310629 9.017387903910008 9.830219021516504 0.5088228582803753 -0.6809150203953565 -1.8081627509566667
Ni 4.045276264402879 6.838287785115629 11.94489443925132 -0.01321521313869337 0.5650796238905752 0.12105036504681732
Ni 3.066349063270008 6.647051287376838 5.414330770144065 -2.9908074702310428 0.8903773956286796 -0.8913227902610843
Ni 1.1813542092967126 9.056116395406043 5.246779920262433 -0.6960765586271431 -2.81972420899655 0.7222560452359884
Ni 0.2536851411657948 6.030258329024016 0.6614365671510332 -0.06408140386094124 1.545519935045622 0.721581387766467
Ni 5.078803830984649 0.2421803639063056 10.820377764945984 -2.225141947661168 -1.0073523050545428 -0.6543508967535827
Ni 7.7913462563159195 8.479599949158054 7.522290949081315 0.6459883837215004 -0.293707655636649 -0.03487881415505606
Ni 1.7586260149983917 3.977387167824227 3.088468972210195 0.40014155632187215 -1.0679987150920058 0.6451286068243665
Ni 5.957286875627321 6.882210538533959 2.4398968293352947 1.3452582524749606 1.602788429749788 1.1288497849411077
Ni 7.032368537587453 2.3460718597615147 5.939355947756245 0.6578874491519314 -0.6537505441654224 0.6562758816904375
Ni 7.421499886767939 0.19878449702048803 11.930904436134934 -0.13161734192938623 1.713021392466127 1.2481703117810117
Ni 0.2779070009808206 8.497029169145074 2.9453899035430817 -0.6540547056694026 -0.18583445140173802 0.7480246695596601
Ni 6.525596947563604 0.24130284138047442 3.1558806070107104 0.1681740580074975 0.8825517289366736 -0.22356024808728597
Ni 3.999563029316539 1.6461986869280325 9.31443440788781 0.2423005048092666 1.4100045436134103 -0.686136930915928
Ni 4.666965071066661 0.6940960718265483 13.031603974085616 0.790259152748839 -1.118401335914274 0.5207556051622192
Ni 8.33347053385758 2.59422142843705 10.369397397188768 -1.240911316225753 0.051130757237544205 1.082403063442794
Ni 5.960634703329482 0.7473181394080973 8.015828827985004 -0.20682236650731478 -0.10368539140580853 -0.007180319798523117
Ni 1.2899487875464914 6.149054922611301 2.854612482975057 0.2668784512589468 1.2966967986264895 -0.43402792465667184
P 6.041308958068755 2.066281122859143 10.928570417362996 2.486674561227169 0.773623601074687 -1.4464051937296316
P 5.0547815352722045 2.18906899849803 6.696668145516449 -1.4672768949723183 0.11420685976242266 -0.0008692899788307611
P 1.2654881968423977 1.2914128793271025 3.578648765443833 1.0326126222832281 -1.4619495692221338 -3.2630291880797735
P 8.162610090517738 3.280348924298426 8.367077501749083 1.8184157961432423 -0.973374148336885 0.6829446492308754
P 3.622340248313379 8.385263946274863 6.4400725390976055 -0.2945851731455959 1.4471713824716947 1.0982806539049987
P 6.027525979395232 7.740886379724288 11.210525585490078 -0.14004001877544267 -1.8702165828646178 1.209247409463569
P 5.322878188780395 1.8884079596529362 2.3017583710208425 0.4601163942136076 0.7587209729312417 -0.9500097625793317
P 2.720618243688016 5.201601032048891 1.3539836858262473 -0.20064477694169316 -0.0962091376334214 0.4338754582392076
Ni 1.1768686797013377 6.058365161041606 12.32166680220987 -1.169689701775605 2.02067214054643 -0.7582813142906618
Ni 4.954262775379171 1.9651375594673783 4.345883215780917 0.5589274882462503 -0.302541194767879 1.9188356294239017
Ni 4.180672115120657 6.856080696691462 0.9125441607489242 -0.5072195183489975 0.3722098629086106 -1.3228199780761023
Ni 3.8875460199617655 6.150705522898996 3.0829688363362817 -2.8844419608899097 0.019111009797838054 -0.6036487424130249
Ni 7.812169931131871 5.334907987487326 12.59420422327174 -0.13330887069919622 0.2564711398826938 0.38126888778708534
Ni 7.963614838884245 4.43889314317874 6.679115829914755 0.6970214390389157 -0.4164696040579343 0.7555281770255569
Ni 3.0997527368887896 2.1650000756588135 2.172709404799139 -0.9858103172177087 -1.4444784090205638 0.1202911182832896
Ni 0.8398356843472176 4.0895533839846685 9.459847630521082 -0.04474696519838745 -0.28622908787141677 -1.13733648225588
Ni 8.411869384810425 0.6011598152890241 4.432252507784007 0.24772296137641853 0.9583869308994334 -0.5673175120821584
Ni 2.2972252817561607 8.067304243397711 11.085667465422558 -1.3696837325071765 0.3062569530565693 0.42471307501364913
Ni 4.3293193952667695 2.811503839190149 11.7907050588172 -0.28739636870664054 0.5178091209393857 0.0445819003754329
Ni 2.300796919666823 8.774544502261017 2.0139748120473775 1.6111758824825348 0.057596567467545975 -0.8858535396163969
Ni 0.4873933561378004 1.2399738330732786 1.4355018915600763 1.900096915363818 -0.6082942116048362 -0.4786825872515691
Ni 6.876158337479077 2.470202596651407 12.990548788963707 -0.37377875005762723 0.44631959753983136 -2.170138594842095
Ni 2.9784662547319303 0.8083698341170411 5.048873878310311 3.0502030385805408 0.21293722115580102 -1.1745516578535966
Ni 7.480184788521984 6.539836872079483 6.174440595510532 -0.5547401896377802 1.0723168828513856 -0.8217775350720944
Ni 0.6554589694989843 2.4770101571599805 5.0515623984399305 -1.1718471144382399 1.2321340842537554 1.306581147619737
Ni 6.6946296075340195 4.8732434799017925 3.5515155078332232 -0.20673752010299234 -1.0309766293417018 -0.25409621189261405
Ni 7.089841134045451 6.14912020058878 9.072320254501518 0.034879328375688315 -0.5832735211907826 -1.0928769663909241
Ni 0.9323765428497232 8.69700359044076 13.372848331529699 -0.39711768189388386 -1.1910046612032974 0.4994401315138947
Ni 7.545033796435162 0.7510688254855606 0.7259694431447037 -0.1564958503386208 -0.5715001827049383 0.7679746303190258
Ni 6.640840554090935 3.8775678148327604 1.150565384947252 0.3742883427041941 0.8575102125870135 0.8553193755832817
Ni 0.7583864867610094 4.986109102963799 5.961684746224366 0.9655775351106017 1.274127912187038 -0.9391453090610019
Ni 4.778907477018601 2.7609600337703295 0.4731282529734649 -1.714898297773866 -0.04163541615259927 0.15334624896604557
P 9.089566696151595 6.420639285201967 7.891366105952502 -0.27781952365148277 0.3913499261721712 -0.08527397877815637
P 8.675956105416306 2.968301541095841 0.4079826965340227 -0.0027760200832403804 0.18973661466962163 0.6700428535675428
P 3.081167164157848 8.355114846104701 13.319933070442303 0.7525305278498138 0.7693753673212943 0.021258395158144035
P 3.9046675009120952 8.403532454543761 3.5820338948474113 0.296053015940374 -0.18657364356060768 -0.637497829751986
P 0.7579090249828738 6.87339801157423 4.841413005540266 0.2647282376851634 0.7152716434983551 -0.05938965481222675
P 3.6946402710845714 4.858639863797099 6.088522654094586 -0.02035825194137784 -1.4418702819737554 -0.27175249152179654
P 8.129812569546981 3.4967267687921666 4.572110574533776 0.0376733461810577 1.4216927785846158 -1.3682601126867726
P 8.795983655150348 7.868616730800905 11.647011444619245 1.2189643796410168 -0.7670354063342081 1.7167505204912563
Ni 8.34951026546682 6.467704706964666 3.611036900241541 0.45800449007692734 0.22883100956792202 -0.09689922172191054
Ni 2.9016247498132373 4.131965418495617 8.023416926595726 2.444413338565113 0.2390190058445174 0.9629647800781028
Ni 8.14961044757397 2.2267157406529767 2.569122978638728 -1.4674602146277178 1.1959000416223855 1.3511278238818603
Ni 2.871401046240242 3.0328987625244554 5.5978243672112535 0.999733355056704 0.18919796855733223 -0.07728710391793786
Ni 9.266124974382858 7.992355799825922 9.655993032166327 -0.0794350034988761 -0.823278287987337 -0.07595321559786274
Ni 6.957569300821333 7.8980850749202105 13.53031373389075 -1.2425254547904085 -0.4341719064337039 -1.0792462629813673
Ni 2.2272379644728124 1.2281025665973688 7.355053433491585 1.4258327688949186 0.22287402065353873 -0.5111201389549843
Ni 6.082200948246967 3.275937998105884 8.745351258189663 -0.6202693816888414 -0.09312818471525251 0.1750975246002081
Ni 0.6194628276317325 3.8266416669734182 11.901067737714138 -1.6859754440919288 0.33265215522064645 0.5075316502727776
Ni 6.516495332417894 0.1151876539752054 5.642387777351418 -1.4350645719058317 -0.44305558207657886 1.3231218255872372
Ni 1.9317991638260767 6.310422082940556 7.964386051561039 -0.26538464032223974 -0.15384427164838665 -0.35834930287643446
Ni 5.686504499617117 5.472896306453576 10.96135488273826 0.39790983877787606 -0.3724044954179199 -0.7059074286746359
Ni 4.930566869554124 9.132650161288046 1.6233495297251466 -1.1052925664464577 -0.32036202499938377 -0.6254552967651551
Ni 1.4693699713614974 3.533776683724444 0.6386377672450598 -0.9769358975462142 -0.6253316267030973 0.41796032967084795
Ni 5.259437320095702 6.416284311561551 4.783187847256183 1.2654275561995627 2.1158386958479496 -0.2073478999934816
Ni 1.1403782902903128 3.2127768921818176 7.275904818340261 -3.319600656716915 -1.3050924788893523 0.7321727901290681
Ni 2.8363840740351822 4.627052250550641 12.765017106942272 -0.42349180101203837 -0.4411689065768273 -0.7110858875517817
Ni 5.927529443322035 4.57770209957616 5.743715051622661 -0.37540085904208254 -3.4778088617609524 -0.4860359422928468
Ni 3.6585881766651944 7.913947623447722 8.851142613577965 0.7179517614336797 -0.48150463008139655 -0.5648258560085563
Ni 1.4452077942687385 1.9355573102438233 9.6133814335528 -0.35639963534923136 1.7455427621326 0.4825400133244464
Ni 8.827149226684117 1.037640079162978 8.605138825276434 -0.4027882499160999 0.8045452303542079 -0.7368146597764536
Ni 4.307134208349103 3.8765793197452143 3.2685503961402786 0.0975751647430126 0.3272260991090687 -0.10274771008288755
Ni 8.634607169395737 4.668000193280978 2.137264395570321 0.8956337589316125 -1.4351782146655607 0.2547024780180452
Ni 2.4734478446746726 1.453218334648005 13.328394961408714 -0.04241985972710759 -0.6255568553400259 0.817769699464282
P 6.438991722299052 6.024290056797321 0.6354969639857618 -0.04154774153479941 -1.9205071035890537 -0.4079785358677877
P 4.124561030764374 5.455168672855222 9.295203515722356 0.7213903548015833 0.2976033911466294 0.258367071353826
P 6.984519780095 7.888125520641913 4.332835080625306 0.056602836095708965 -1.1995610354137407 0.6316457418465832
P 2.215823643839259 2.6152036354840233 11.59663363177073 0.3249051642853759 -0.4447370835440599 -0.6252138701783104
P 9.083411915417816 0.7577439649541043 6.431732811203336 -0.45062953776909487 -0.05829050821077703 1.9866201931680434
P 2.4556642585241937 0.23973430483589625 9.609505786775589 0.44337774130268803 -2.0317962754840493 -0.342116643067656
P 5.877069566730404 7.699257680943093 8.459370303937167 -0.6326708406769879 1.9796154797154357 -0.9873889745587382
P 8.57465400979352 8.131397891857198 1.1442427465570975 1.6309993449663651 0.03384754467706429 0.379438776556882
