# total energy = -340873.75214420457 ev
CRYSTAL
PRIMVEC
9.21756099232105 0.00000000000000 0.00000000000000
0.00000000000000 9.21756099232105 0.00000000000000
0.00000000000000 0.00000000000000 13.49083223760288
PRIMCOORD
 96 1
Ni 4.587810572179169 8.456688252926952 10.720692692735776 0.3076774875531798 2.0691644317198623 1.5849136063518965
Ni 7.477091952643982 0.4626579633943367 4.795262844617923 -2.157327559120356 1.46428155978942 0.21396154865525735
Ni 4.677460570923484 6.068657842204673 6.984446497895041 -0.4657674218517979 0.5660481584514316 0.5213726699209279
Ni 8.887590796757847 2.2920663826606833 9.24915239409955 1.5871952032972214 -1.4951088295829218 1.768873980659373
Ni 7.792231147284062 3.650310873198409 7.970586344765364 -1.5024968945168768 1.8706737250066945 -0.10935724497960521
Ni 6.113021963524476 7.878166468926387 12.519695143375976 -0.47424897696024776 -0.2515665034922248 1.314509401327878
Ni 3.792252095763052 8.870335522477633 13.176630719204416 -0.06723486188825839 1.330723034973263 0.22897679111716693
Ni 6.431921923071782 5.472595039531434 0.4051643481190133 0.9025793370115099 0.2638064972018424 0.044067422632859586
Ni 2.8398660356911885 2.3978563307985112 2.72536364885162 -1.4326294801017778 -0.4372739423977953 0.2871929944465828
Ni 3.1544337415463466 7.634325108985802 3.1086519593374966 -0.7148350701815689 -0.6900162113656763 -0.5278384801509296
Ni 0.36504767892972567 9.174745476058861 4.344277078777558 2.0032128074194016 -0.3241333191163579 -1.3382926197904048
Ni 0.5614508609412936 4.108405222118314 13.082276077301648 1.2232565792584675 -1.3803288709258486 0.6133610846047823
Ni 4.196414494996243 6.670214311261999 0.126907380496786 0.08079254596803505 -1.1594862788800417 0.8492068349276407
Ni 7.833120248089099 7.242541894238897 4.686499311286293 1.002590364889525 0.8376651528366285 -1.0605466296893347
Ni 3.7862238108382336 8.034920312093757 5.989241179734874 0.5934070100803587 -0.9158868527536935 1.0288117604798992
Ni 1.8177030384926054 7.643727021253867 7.419579902246564 0.25062265152171675 -0.5586433813469283 0.7215291943722929
Ni 2.2643307414698914 2.6862738159629824 8.80860920316947 0.9612048599642027 -1.2676456468968038 -1.6059066636637955
Ni 3.1162453861281167 3.176417624643734 6.395369684739416 -0.8325697405915918 -0.9651126796590411 0.5647222405511564
Ni 6.677385573756659 2.6032143733673587 10.195386653928566 -1.1611186722771423 0.5354245200283038 -0.3087046432661135
Ni 8.972106613998914 6.187278635320096 6.378708021390637 1.2075723357539914 -0.3533053126946238 0.916131621774648
Ni 6.370293309910719 8.185277167894423 6.259193124853644 -1.069458073246352 0.2048585579127246 -1.422462052650473
Ni 5.158064203920464 1.28470678850378 6.536659225738028 -0.31016528697204 -1.3118909898684243 0.34403725712913646
Ni 9.031320226165631 5.999240389958793 1.193919342726249 -2.140890753720571 -0.3988230946207647 -0.24838167800633998
Ni 1.4127202763262208 4.1441509238590575 10.292479833218431 0.43539369465594696 1.0107070804593883 0.04735817756898941
P 7.113164207381482 2.2052830454020227 6.351902432109499 0.6149687954115344 0.23335589402146906 -0.977789246685445
P 2.5639199106234747 0.5204953936967178 1.5036072717630602 -2.2105529941033994 -1.1035442162967832 -0.07732258514156361
P 5.10211360836443 8.872372603469048 4.4279605502560715 0.5546802829341222 0.36488273311957803 -0.36389980038101843
P 8.071523247011882 8.511440565546861 2.6474540576130243 -0.3992257293758221 0.17224977073876788 -0.060281056278244566
P 4.496602805617889 4.485855129436944 5.290942720463577 -0.6363205216144331 1.879728379009795 -1.71319057105414
P 1.8962458761751384 6.084198650130123 1.2530794930388924 1.6432951316145825 0.4638054130294206 -0.04017040157129856
P 1.2861078577829428 6.670804235169014 9.667072003195573 1.4971693116563762 0.297766656197371 0.7556253647250535
P 7.258451404606231 0.4152870736609635 10.266914927654238 -0.18223567830688614 -0.528638864565038 0.09175418718586134
Ni 8.69891653968429 5.595824613170419 9.569951171222563 -1.862535412170276 -1.0266373785363998 -1.9718232373645266
Ni 1.5808301547036452 1.8310685020109336 10.853604392498656 -0.8450786716918801 -0.9343635714016424 1.2074100991445142
Ni 5.970066809244649 1.1294277551039502 12.227065232812972 -0.251686831120173 -0.9002943976320753 -0.8342707824430986
Ni 0.7453734652950574 0.6346115647284115 13.109001473801676 2.1073525127538093 0.3217208530201233 1.2629065895499219
Ni 1.1057847110180803 6.01597026325932 3.4486481508533524 0.658852384168362 1.832764608665747 0.4256576983151056
Ni 6.593173936030147 1.3000171574030508 2.701053253345939 0.5201459966026784 -0.05863606447565385 -0.7753482970752775
Ni 3.067825537947581 4.900931120949929 8.249994585762376 -1.4283323953883207 0.27215204095306034 -1.257772096536834
Ni 7.855362222895805 0.05928274387456994 0.39391062783658115 -0.7949894683449729 -0.6039598458955405 0.45456795359155255
Ni 3.0995708181938717 2.1433502527264054 0.21622278177509127 0.7248297195004355 -0.8326353037222047 -0.9246597138503173
Ni 8.805508415633218 8.635343021142285 6.424711946820722 0.529262871302282 0.22522503738421853 1.5597949569073974
Ni 5.086876979953536 6.598197506800829 4.081934230303188 -0.15841183641441106 0.3487614020776832 0.8831230280591112
Ni 3.8766573022715547 1.6434819171409387 10.85330758703294 0.7616425174534108 0.6201670517830222 -0.16726645859156353
Ni 3.270381441958103 4.944548619824913 3.5367698779760555 1.7603754562700586 -0.2295311209587402 -1.2012726187882083
Ni 0.3784103771797395 5.690959060737772 11.696349407427205 -1.220108777658105 3.107726586718306 -0.7984905395196958
Ni 4.4038741414838345 2.412125115299457 4.516798481872136 0.3672288647542514 -0.2998057981145869 -0.42086696179468164
Ni 6.470211671661529 3.595964133264573 4.003944446283482 0.19623919167482975 0.3371636699377548 1.1750998170475826
Ni 5.93181393089909 8.09331356132728 8.45707907751535 -1.2770062621760974 0.30035164331572795 2.101677573856219
Ni 4.953775398433083 3.1236747403320977 2.206426022971866 0.47334909085379767 0.8764857252482519 -0.715953242946412
Ni 3.9785021342812144 6.752656177267464 9.522908426662466 -1.2334589737127661 -2.116313064381207 -1.4162649227008255
Ni 1.5065734829080244 3.8133050051946804 4.441182219822064 -1.1982166055707042 -1.032144167287242 -0.6725777041742546
Ni 5.459017572109023 3.6673357084524443 6.886544016745237 1.1759261696036198 -0.8347582636024784 1.7366896826173448
Ni 5.913129934656572 5.126982588069567 8.960530279079833 0.5194104039882346 0.07938975208323747 -0.49938048192055284
Ni 3.141731942423411 4.315763475434388 0.8388653434838139 1.2824325753979915 1.5702135811375604 -0.5509593824391092
Ni 7.218032399414598 0.8302625937585343 8.02962205800387 0.7802462485975271 0.03938004445951927 0.3608299032064431
P 5.882951639788292 2.2215428230891474 0.5081318790642121 -0.5489274396107451 -0.42728726349872864 1.5883149187239616
P 9.11766112049403 2.433970734981138 0.5789411830282091 -1.3879167105754355 0.47963646652440617 -0.21222862512455062
P 8.631056855255373 3.7709687473052456 10.991898226156954 -0.9191356987082945 -0.49277171835478356 -0.09173336125025491
P 1.7286153109721643 7.509565420212996 5.144553102937592 -0.011783880008805512 0.033907451380722244 -0.07445323401356856
P 7.994713310806207 6.855431982942883 12.871036309028632 0.567058601993817 0.2964258258987605 -0.3542283387295254
P 0.7799669719049089 0.48379936141201746 8.286945944488082 0.016125444806952875 1.3880375524240158 -0.45161709849334475
P 1.5378302324188178 1.8838943443719942 5.2401631766549785 0.2319674983143747 -0.9657238308804788 -0.9520987838978765
P 2.2430197403289434 9.113319649240836 11.70634585238281 0.417582634616455 -0.32742613093501677 -0.6015442944755124
Ni 8.829732166065057 2.404391581580921 3.961002594633251 -0.21834039444924336 -0.6296055714881028 -0.32342729418826877
Ni 8.485400955588739 1.617377784255487 11.69258495549556 -0.5472245979870254 0.1529145607452657 -0.5211816369560444
Ni 1.0048155473078977 8.043861346309466 1.8499571281086975 0.150737864808921 0.6038354045025343 0.5987747021501753
Ni 4.330566878476067 0.4527979383422295 2.4725056706947397 1.9830859547625395 0.3291030044168074 0.4797164278327222
Ni 7.112085752738969 6.166769561990248 2.867854238054672 0.42504474732145503 -1.4985967881315223 -1.068555358926424
Ni 7.149011302293743 7.397876233005009 10.502869742362904 -0.22961905268685615 -0.4825340997871755 -0.5142052056382111
Ni 0.2969216069865462 2.3687196203285565 6.97743193393818 1.2677382066106102 -1.4264292648283368 0.2181208222392695
Ni 0.3988917978264463 1.0803811127722098 2.017243878284614 0.023637694023598 0.04286260369148102 1.5538518519500852
Ni 7.6356708728986815 3.5599142520092757 1.9413713680374325 0.3440110318768914 -0.09625078950463424 -1.1132215914855472
Ni 9.11564247462471 8.505108101107488 11.32765802661555 0.05466910940810584 -0.05617783274314841 -1.0064259365855315
Ni 3.917675448931251 4.334456689237953 10.253747641698421 0.43688262049664767 -0.7034967623506143 1.4805396735194956
Ni 6.682999068434358 4.966495632678113 11.289992306908694 1.0050141438396691 0.9544778256530142 -0.6238427008623966
Ni 7.183236106461709 3.2824840996129754 12.74677252504016 1.7971918537674596 0.0510479677157508 1.1693904253676313
Ni 8.93697848884833 7.969254407194055 8.799584289148232 -0.830368619175215 -0.6232683164161653 0.21612204664168586
Ni 8.372292263979498 3.919786270411042 5.7234316065506805 -0.07725265113557664 1.1658338183646244 -1.2807577587987298
Ni 6.545758802003747 5.579657011093765 5.719735364570784 0.8520049664980682 -0.48796581232570796 -0.19517758317953482
Ni 2.9487623019018963 0.31183654251689547 4.540190808297524 -1.0804497963711652 1.6918355024171314 -0.4514330075069967
Ni 1.267875522031734 4.058058903678931 2.004804779651522 -2.378927083936845 -0.9810481199423751 0.3736136852346727
Ni 5.935012424582442 7.9010813256895345 1.8025502898872405 -0.003578461379877708 0.6596432555007737 -0.45835313166559766
Ni 4.934510695844597 3.9935636290322125 12.608774575091477 -1.1625497482967138 -0.6646139692424876 0.19451578122581986
Ni 1.0839759615805877 7.437345829408789 13.040886462931754 0.028785299662808492 0.3378696948658439 1.1389837880513158
Ni 2.715788446435869 6.407126683855021 11.823999723344388 0.3849162547316855 -0.18532485875517116 -1.9172091495640724
Ni 2.286996724084766 5.362767799654966 5.770366505646525 0.47074816289584087 2.286158596553856 1.4700444304151263
Ni 2.55944939351562 0.7380362867015476 6.992594821860697 -0.004960943549701133 0.5113492242466549 0.8555230069536557
P 5.032991118072056 5.829194823761472 2.0248253222458725 -0.7896824543097626 -0.36335266962829676 0.40704522542024096
P 4.717510873673233 2.7757486810474026 8.836859184266691 -0.39223901364534386 0.2673415069382944 0.2711146008274815
P 3.848884790836574 8.749649995687655 8.656392243549496 -0.2423735241390471 0.3830951423625467 -1.5548062454435545
P 7.215340871588838 6.684639794300746 7.5752101247222905 0.4892264242056865 -1.5958526218619031 0.6908057971465071
P 0.7755222639679864 4.556019204127643 7.727117374291082 0.3846894834328601 -0.5456194582834344 -0.35150296937856235
P 2.74362548079818 3.563149615936816 12.079853408841585 -0.17493143133598904 -0.06802341922782479 -0.44160316590076854
P 4.8855562291233285 6.033087274123828 11.500812676154066 -0.31101400812558044 1.259783727650224 -0.02512764830556317
P 8.6391406562937 4.787379986410423 3.544055438227701 -0.7158519414818574 -1.7599501958071821 0.8751425809567961
