# total energy = -340858.12120094517 ev
CRYSTAL
PRIMVEC
9.34993854761827 0.00000000000000 0.00000000000000

0.00000000000000 9.34993854761827 0.00000000000000

0.00000000000000 0.00000000000000 13.68458017071399

PRIMCOORD
 96 1
Ni 6.6874219128814 7.183922343393005 3.874911813447685 0.025907721004697314 -1.1641178641147822 1.8901557449907058
Ni 3.252273233564194 -0.23524912586884134 8.026143292311975 1.1433999148411405 0.7757954119150252 -0.30767800177381205
Ni 1.426856704053592 4.482379183234605 10.598871415725968 -1.0284826592752545 -0.8366788776639591 -0.23773268293292607
Ni 0.3520298568599516 0.7097669161375952 3.618025060064062 3.619537323982412 -0.8288886921955789 3.077725155260209
Ni 4.220982954546177 4.972241157460886 13.565811643227008 -0.8011089509791494 -1.3306032215659471 -0.7034885348204981
Ni 8.14770464682236 2.6419840523590903 9.696373283736262 0.06233408215253136 2.362911682345195 -0.45935303368502184
Ni 6.386914891740145 5.497071901415489 10.15766652108958 1.4158532890847035 -0.5711430564758357 -1.2933438229938563
Ni 4.522892466451937 6.217101309973889 3.2391122602300797 -0.4916358049781275 -0.22454472348774232 1.9610099487991066
Ni 1.9151198388083372 7.2436030003919045 7.7896870893918155 -1.1026250469166234 0.1799096012768708 -1.7061172091471262
Ni 5.315608296365411 7.389134792055365 11.238762502000556 1.5232048164881897 0.6816308155154583 0.6068772766526516
Ni 4.140592183924754 8.629722022705844 2.836868559031637 2.3469055367249263 -1.169877649416695 -2.046731556637643
Ni 2.2722968367740215 8.649730890946113 10.47501184634948 0.054405571334074046 1.9814144805973875 -1.7575747535964696
Ni 8.303811218850187 6.585657183008923 11.24864258193957 0.1028279285015197 0.9991108909813569 -0.036218358902086016
Ni 5.159258625938402 7.551215974739984 7.892800080385904 1.1823770674352863 1.6345456675567271 0.9128992308802794
Ni 1.3971332497845177 4.388776949611546 6.532772061260971 -0.7653089105614045 0.1883289356888176 -0.26599296333019995
Ni 8.863638782348405 5.121559674188511 4.259941343002595 -0.7144105810496406 0.2071905484800109 0.6932205772355867
Ni 6.995315385382383 8.551463038046467 10.02425598960681 -1.2191281589123908 -1.0092898883968875 -0.5155846024842411
Ni 6.956372891821296 0.9202349651914774 12.036696532551831 0.6466244746436025 -0.5514466064881728 0.0021946936584736395
Ni 0.380623838566678 2.3725468766208335 0.6602402922737112 0.4152079637366914 -1.7090181848440051 -0.5398864124543993
Ni 1.8605348982538055 2.2738676264302673 4.7639170492890095 -1.644591481828503 2.0966675222361375 -1.194716819947562
Ni 6.019200513163813 0.3962027059787987 0.5998050952435079 0.766973442748021 -0.05438783072226117 0.14698174020059848
Ni -0.26901362352737596 5.349146525513939 8.172568003095503 0.23076576469678967 -1.455929588280299 1.8199201486029108
Ni 0.0893040669267727 8.693348353722216 1.899720490214073 3.085154872065377 -1.6822414309707934 -1.5739154554691797
Ni 2.183004924767208 2.6942969578751237 12.085262917738952 -0.6255604548844517 1.5740524952676762 0.6314487953444287
P 3.154557027031921 0.6186022114632459 0.2167979573710145 0.11721736445397234 0.2059636180514453 0.6429097447961766
P 1.5326419074509836 1.7622857452310203 10.287095848788837 -1.0676966104705548 0.10493469043187735 -0.45470499339004916
P 4.273464158953951 8.53785887763077 9.922675453521405 0.89420139736046 0.8842802815920061 -2.0713784086520457
P 3.4920804544176764 4.0001374088288015 2.6588868710529034 0.6643789704135461 0.9814718377433549 0.18102700271076563
P 5.508291827531529 6.440069291714882 5.517225693701425 -0.40079307386294205 0.37747419663134346 0.2333602648968433
P 8.721014821536684 2.9547675426589795 7.379286501907012 1.151528714595862 0.507338560425365 0.6623408569375948
P 7.696981514864198 2.184669213807754 0.34302493115798693 -1.3254628150155883 -0.7712589574972524 -0.11666714837745713
P 0.3792643575189512 8.376563089774274 11.228868397153894 -2.8721348613877824 -0.7661830856362417 0.9180578922630834
Ni 0.5273739272075725 8.16206615225089 4.8660585816802175 -1.948918050631579 -1.0618272961739712 -1.6029987459883814
Ni 7.0415508309188946 3.70940107334693 6.18961810095265 0.16352267527841516 -0.28451544761441966 0.2570537518590411
Ni 8.43529940299174 6.7011476224966895 6.571075019033444 0.262277976372458 -0.8828733739421504 -2.28957327866236
Ni 5.621772030256837 1.2590066093576424 5.272723868762223 0.7897145930992787 -0.8315104460891422 2.5617088645551878
Ni 9.047711020220461 8.418983760431333 8.0237478380862 -0.5368779646453786 -1.62135128035364 1.0834096503304373
Ni 4.237251847414434 2.251007026968837 12.77113419623091 0.5721316456413501 -1.1020900003487601 0.4338345776989431
Ni 2.8572102850800167 7.607455854396632 4.595103910934767 -1.417675429895107 -4.084263449053888 -0.1727516500758509
Ni 1.8408532778585862 8.076729264199981 13.667282785032782 0.26448835376021546 -1.183538177622923 1.1444576666816935
Ni 8.632685953188163 0.5541297110189545 9.94697874848259 2.2395110718986464 -0.1342594075379236 0.8384197716144657
Ni 7.6571040274601065 0.11596074139079633 4.572483604890988 -0.07467383466480688 0.5249470175357476 0.004424354319940767
Ni 8.675415171813412 2.6256497099218232 4.530539781093861 -0.12538781607990662 0.43442747408793575 1.1872187117983037
Ni 1.1102303890589598 0.8224822938993271 8.287888273703842 0.13380997870533082 1.227444134977254 0.8957134631296122
Ni 5.548244114443059 4.582975170803328 2.0245515181934417 0.3482127286630648 -1.898041832607002 -0.13166465022755391
Ni 1.2730595668179818 6.7740490924356545 9.937426851382467 -1.5690696973411042 -1.1699082455443142 0.8857332119884488
Ni 3.706792440524951 6.178149466474372 6.666456545939738 -0.5860788518500616 -0.7483254886295305 -0.5754082595100929
Ni 3.2729646473098564 1.8593942057653412 6.36762690375283 1.5829333426970738 -0.19343077569175718 1.1446972934963253
Ni 2.3612615009357842 3.3272784396499175 0.8829399307817624 1.8700774861835923 2.0785075634976593 -0.265173295642382
Ni 4.491401873819586 8.482245443848935 5.749192991181324 1.5876497743361366 0.8109146242156615 0.6883390807735693
Ni 0.9700748119927675 5.676319571057649 0.474288716777218 -0.5139630077204181 0.7934308656086012 2.188579832266418
Ni 8.630180169688915 4.205424656998602 13.41732059605044 -1.2798421889629958 1.544901584735333 -1.2095446289890135
Ni 8.077542708843394 3.881168792245063 2.1386534918243476 -0.31787911067652996 1.4050037479647093 0.16175375630345046
Ni 5.96700915684737 5.2279993732760035 7.802577849505301 -0.3073337310605158 -0.28160675860805695 -1.0369500733163175
Ni 1.2016166872741008 5.979201476560133 2.9070978165673 0.33701994527103896 1.1091787888747413 0.20384271505370055
Ni 4.009842644919175 3.910162951316595 9.13775466727705 1.2002374926554749 -0.1330633303472934 0.3778683467459686
P 6.769261923959478 8.167498466478738 12.931750243563544 -1.1977139549026727 -1.2504308256804142 -0.40330889830626027
P 4.658139325842362 5.081439088385239 11.200185591032083 -1.8980929975599121 -0.6248204913946337 0.1313563749585157
P 4.964312409672218 3.3792360475056102 6.9295021037672235 -1.0665668677414857 -0.162346652692443 0.18777923383293468
P 8.152071068069185 4.471196656872286 11.123839603775494 0.8563267338018736 -0.9787274422289983 0.5837319488844398
P 6.837133127023087 3.8067619822188616 4.08952749518913 -0.2770006272946132 0.08984334331639365 -1.6184988985065092
P 1.1874608804910312 9.256672794193266 6.380230620756515 1.1200422139518065 1.617388696161466 1.4736002660871848
P 2.0669815387889305 8.299182999327323 2.621473092425127 -0.664132915841011 -0.6630967612670128 -0.34547681778914047
P 0.7357186052439944 3.0028168762509178 2.6603099316819545 0.33854023857030724 0.5642869527859509 1.9550393330379687
Ni 7.003870579045862 8.46102108361276 6.614113720620728 -1.1045150648504847 -1.3262120344767867 -0.7236495831494053
Ni 3.199081433835737 6.277632811369921 1.350575231372169 -1.7334218104993502 0.13741980754377625 1.3353353369342937
Ni 8.545600626650836 9.320785322008001 13.508076708415398 0.78068770701032 0.6735891761579045 0.07789337004336908
Ni 2.959620160704166 0.3946973658915634 4.328049099508482 -0.38772647048697095 2.1238391975549233 0.9273017794588547
Ni 3.878242261516463 6.221598630358734 9.189250388174298 0.24262600646948537 1.166209199426172 1.6262636300535926
Ni 3.2914214257707415 6.642869456262294 11.86058950722832 -2.1563574818976026 -0.7843705551785458 0.4731169202383335
Ni 8.329663798609229 0.8714105217036889 6.761249961718782 1.0161647611398499 2.2181724583218703 -0.3024229240224598
Ni 4.613801917807146 2.7899935777065106 4.162000737948 0.7596177737138983 -0.6098353308397111 -2.761553514193089
Ni 4.428299139355295 1.6344720868924714 1.7385714963909278 -0.0966660226651819 1.1427406839905867 0.35600368546239336
Ni 2.1483634028839367 2.9696900443933116 8.155462290737757 -0.5925009533263215 -0.17372609817397822 1.3444869215265747
Ni 2.094937854694729 1.3665589511183103 2.121547779466602 0.2811485880247158 -1.8318009592008968 0.17689909658532116
Ni 3.690112150365772 1.760462507237164 10.337441527259191 0.41991616784563807 -0.7104258853702797 -0.8513989574829531
Ni 3.7623965243683557 9.110954003761202 12.025393391983766 1.3321330279469124 0.9853837712032513 1.0275110393906046
Ni 9.138985119174443 2.3288078646451402 12.087069325843634 -0.9665116168890966 -0.2113904454939714 -1.824945112621328
Ni 3.478597843201569 4.213643252878601 5.211498601934681 -1.2064904155437222 1.587164864279918 0.9859445288027279
Ni 8.433317216044573 6.883639720774069 -0.014594318895438265 -0.6741946709523873 -0.08084371092094464 0.9012927569896027
Ni 8.293573036269303 1.5853475103810788 2.460829930271047 -4.005045960882458 -0.015773460784172834 -2.8849289278286574
Ni 6.067474245278072 3.3668941287779663 13.328206332873798 1.409066090959541 0.21958866503404764 0.1966755078813
Ni 5.903625924230177 2.217085450344678 8.978904823313849 -0.3894082290647681 -0.10480253572938725 -1.1820973314113383
Ni 4.429860579073111 7.7038537196102705 13.859058437177342 0.7852930669928153 1.1633131088252997 -1.0629529251379821
Ni 1.3962637055105245 0.5677030166378332 12.449396269896582 -0.39515515885087427 0.5057835572334193 -0.5335483860515133
Ni 6.111568554914108 5.732905398436208 12.577880318820563 2.6230150196638378 0.2417924548245965 1.630503122056237
Ni 7.446524714138907 8.595239449775882 2.4408229320184627 -2.3306289110520892 1.0108430918166205 -1.343423256148751
Ni 6.067792143184694 6.7635584615171584 1.5363407430939047 0.9970156990152249 0.10181414252502467 -0.7790563420544842
P 2.101632410610632 5.257769577237229 8.655715786535177 -0.7355530194552106 -2.0504120908130234 -1.275333502459365
P 5.839980893336944 2.302291439257567 11.085426316729546 -1.4803049318008699 1.089384894077266 -0.11233432533005815
P 8.311870865776877 6.38848568139639 2.3470009748422984 0.09781196334416704 0.00503807664453971 -0.4467782823438047
P 1.9897790971721494 4.884445235602877 12.687166139166159 1.6144936340018583 -0.9899533928518048 -1.352936852066141
P 5.795811784193469 0.6346308109138512 3.2478572576436893 0.4820314491191441 0.06646995869777585 -0.5886026467131799
P 5.784423559185688 0.5210486938596552 7.53635798758082 -1.3078615569940573 0.1967189595247257 -0.11343964257909496
P 7.228530899642691 6.850989735776396 8.600854087803116 1.1569727684295688 0.812007600169524 -0.6543213290672281
P 1.2451219507890439 6.28309317541306 5.532087420835961 0.289192798485431 -1.0853847717789373 -0.10176117779990218
