# total energy = -340890.2864622783 ev
CRYSTAL
PRIMVEC
9.08466961056367 0.00000000000000 0.00000000000000
0.00000000000000 9.08466961056367 0.00000000000000
0.00000000000000 0.00000000000000 13.29633226753518
PRIMCOORD
 96 1
Ni 6.1751313506542 2.2014424890835924 11.371781133053052 -0.04018814218311143 -0.4568348952488584 0.719753847639425
Ni 4.525455336416295 0.2555771845946183 6.081755485680315 0.3463491930917648 1.704874852099593 0.13753293608287284
Ni 2.9801985111581764 1.7181744207898098 4.5844157486659665 -0.5397270040583995 -0.42770429643148916 1.2547803608983616
Ni 3.2878780911449015 4.237235118078666 4.813551094784461 0.3892107683419813 -0.06416059383830887 0.47879005936371094
Ni 5.5125955029852545 4.777009829443117 2.6476451066171927 0.23390302477419073 -0.592237929472922 -0.9848078440951232
Ni 7.4349478663817035 6.4728632177530825 2.4012379872179976 0.05001412713459774 -0.6189984853962178 0.6131775078390665
Ni 4.866539245433704 4.545950350366043 11.395793730957296 1.3305044912045538 -1.6228800582933405 -0.4780099866645768
Ni 5.550042509856203 7.714119754092582 12.31659128300018 -0.17721482805352706 0.6172051409412209 1.0786546521439553
Ni 1.8575241632433466 6.322130384661676 0.467865919955838 -0.2938230981685907 0.5055894389447422 -0.2962587041932769
Ni 2.807380846988829 1.5844026652889087 0.2938845096486523 -0.23648081280369593 -0.04894891909487699 0.6707923301390576
Ni 0.7799797270298287 9.017415497108868 5.086365530916424 -0.03652020641322098 0.5670858556873266 -0.4467302027146887
Ni 8.776571829191422 2.139185250343512 1.629465350437372 0.4726407519328634 0.8080532435074664 -1.0586558404245252
Ni 6.871144204708262 0.8601891807814761 4.898129366004385 -0.09240441917535054 -0.26659254458741183 -0.5820473620931654
Ni 0.7902390440747976 7.44671251313034 2.6437759459606336 0.038161084450753634 0.08500067051211167 -0.43503991086095395
Ni 7.873455769014845 3.836791979829143 3.4950339883493804 -0.33032890640410856 0.08433115524891283 0.6491960920255208
Ni 7.43560196257159 3.867316468690469 12.484205248592216 1.385574435595504 -0.01117015768420657 0.9005941882606813
Ni 7.966646306734929 -0.12768230166645275 7.084883761757324 0.23344151175673988 -1.313477617629254 -0.6192985331351399
Ni 6.516869355861494 0.5772780431850845 0.2229632217933799 1.5895989276427076 0.9334785976935278 -0.915123749335424
Ni 2.0527809605934904 6.541525148352458 9.2519734823349 -0.3694508121062347 -0.5187640286534873 0.4264339143594978
Ni 9.053790513001948 4.84557182868015 1.4328258664191642 -0.026324239716825633 -0.902127337075756 0.1354436576540119
Ni 6.501189216642849 1.9543576533543214 7.020357172625114 -1.2917111724864399 0.09676886679163334 -0.10960638487593381
Ni 3.47918305734782 4.485491876148148 0.5145084290962609 0.31195220366913373 -1.8361926605106893 0.04521130642931569
Ni 6.377792153487077 5.806348284928999 4.701822380882702 -0.3682328805387336 -0.5804561063466456 -0.13943966618728243
Ni 5.08202760132378 3.0464984277385216 9.231231365380083 -0.08820657904391907 0.5327017217805019 -0.3999294403110661
P -0.06214277190684991 5.533181363628042 12.70655979754223 0.22568783595325004 -0.08564858850875572 -0.30667527154091057
P 3.985108290885694 6.062517789962237 12.46568342481529 -0.8013686323984393 1.5947336777661116 1.160880588124407
P 2.389159010911444 8.424840687749764 1.2678437295244873 -0.25042467657829776 -0.05633929802167716 2.151136342707979
P 6.355779999763567 8.06040009395186 5.843086687594239 0.7427608500575594 -1.2741430816956896 0.05451921409380288
P 4.615638848596767 1.0299743823371599 12.366147245586387 0.211503574033068 -0.9530228383740426 1.6879762765720412
P 4.177176369310146 6.164574964922991 8.184810097735024 0.29786975743413857 0.14230567488116783 0.6532628058957266
P 4.907465680648071 1.3024872074482319 3.895373561368838 -0.4471873448567653 -1.3419716113038889 0.13423369650631076
P 0.2128029276438242 5.536633537963549 3.626149386545802 -0.03626643853120206 0.5792911395042668 0.6121254124254685
Ni 1.4123571980103982 0.9450781476915964 2.7955008249400324 0.5677720831210737 0.3525517223580509 -0.682348153297457
Ni 1.9943847063075961 6.510464664002199 4.755220250117555 -0.2626343312706122 0.37328072737528617 0.3336574565567092
Ni 6.437105959372672 5.7574000867192305 9.252771116299787 -0.83935591027549 0.8048653326977879 -0.48937117731366686
Ni 8.551771687264779 2.3332701253534447 10.393809214745655 -0.39656643737610414 -0.7714155376797747 0.07835642572271666
Ni 2.5578522352167914 5.418223958255655 6.941722092063844 -0.46284896265342224 -0.09757979272870292 0.480695761026856
Ni 0.689487336093022 9.203315085075927 9.449929334935252 -0.7572942677870442 -0.6390227510369446 -1.3532921785230305
Ni 1.5259246489792788 1.0083528693937205 11.452196808797899 -0.43180751996658534 1.5727481746339558 0.5142501999435336
Ni 4.091489768435137 6.562801443862347 1.581984326320193 0.11528980841395628 1.5632078392436886 0.17934421569170403
Ni 5.463974352870428 8.015476404243747 8.207333718340347 0.41703987473910753 -0.13467798313258095 -0.14032489700571316
Ni 5.555893036887958 3.3227723059414354 4.50155266301063 0.020368793464339112 -0.4715526610750072 1.0219973086612268
Ni 0.9262728822323865 7.508906159185292 7.150515046676897 -0.8320573197315477 0.020716149501428843 -0.008307491424430853
Ni 5.03158951734816 4.549302593339206 6.978938348334472 0.7001165330244716 1.08868529690708 0.23126635848229204
Ni 8.637412864793268 6.995967560944757 9.461177972467423 -0.7199024574021473 0.7328821574912668 -0.15747801174623202
Ni 4.53648412495131 0.016308798334479995 10.44561181605073 -0.23530633287962055 0.7708028437964402 -0.3586681196684339
Ni 8.202802285291527 7.422947018231164 4.626258827013103 -0.12942753336691903 -0.1850708337628361 0.29898998708151087
Ni 7.130566021352318 6.218319868525255 6.9744441624297995 0.8460711175121365 0.11319641622003732 0.12418916778611513
Ni 2.171417657033984 5.104312295126409 2.6503714158753127 0.5591596588617144 0.39483711338982325 -0.08494642023540855
Ni 2.2114992180030826 5.071498469600483 11.40290793548923 0.17569941985026516 0.7718053169190255 2.1166030848177995
Ni 1.2224512708802902 3.2531746544037508 3.9985526929886333 -0.8133769697132252 0.0645244049356308 -0.2329208633665795
Ni 3.925094965463694 2.634554098150177 2.4345850828320663 -0.39742338605976074 0.7632769677330403 -0.014928082064742032
Ni 0.8787237230954278 3.391279797162644 8.39869410102602 -0.049404261464740716 0.7700322841790028 -0.2685365556876601
Ni 4.0190304460667035 2.5599053704794876 6.837014010600191 -1.1296709952908222 -0.4711268863914983 -0.4704766544020091
Ni 4.423161960053636 7.130238973257375 5.6185645365482975 -1.3196050706832305 -2.305583023827055 0.6908433352526618
Ni 0.9269814864380959 7.002199644087277 11.564497856865806 -0.0630763596351946 1.4136881631125846 -0.845106439606022
P 0.19406761413825482 5.6408437795493445 7.924733276434151 -0.10080241343105865 -0.5607300886726279 1.2397113823803811
P 8.200194985201291 1.5206646254522824 8.282138702323065 2.031023658984083 1.280368236669795 0.5207679464573934
P 1.5289589285268035 3.1669157193625925 10.555133863778556 0.37276007898512575 -0.8055186500110708 -0.11779072045893907
P 4.044367588755465 5.969726977691526 3.691194710295269 -0.07122084311919992 0.9028408182030129 0.7206426780022815
P 6.859252372589371 4.001860421082207 10.346620716980064 -0.5564124351338804 -0.017656793849814754 0.1395653931318693
P 6.6609976343689175 7.968935643399528 10.374848601441347 -0.6753624660082433 -0.3172880140597504 -1.3695536346872155
P 2.533496236812858 8.509219096245001 6.187262109575786 0.40872261312266384 -0.16320437270704793 -1.839753124168438
P 7.124370276887014 3.5967477628104456 1.3962473539336748 -1.020675761636326 0.9386280031049513 0.4495028803638194
Ni 5.420377024880695 2.6870725713964054 0.41257753103883055 -1.0777249412408343 1.0666792249496337 -0.13685185085544818
Ni 1.2747698814018311 1.295219472005059 7.248268813788365 -0.05506994439095032 -0.4212323155539004 -0.7208702206320553
Ni 6.409052500562025 1.0670761717745574 9.393313675832935 1.063372272063588 -1.5795356298694345 -0.1964464225896294
Ni 2.61181517088235 1.6330601540809513 9.295160183272094 0.6713713425709792 0.7642997525705998 0.047913792962143285
Ni 6.4641146812133625 1.7842744746454675 2.548933815361088 0.12305016908566549 0.5382691885659504 -0.25668736965855793
Ni 4.4863094963855055 6.686761756514964 10.383637110526003 -0.9263476430757014 0.17931079135060732 -0.7982663393240317
Ni 8.020045992903642 7.469078968956704 0.12501050042415632 0.01032606451635641 -0.4275024648333283 1.0429849666564879
Ni 7.543791289312521 3.820494083097828 8.220244850355144 0.49407655320913624 0.08785382369019064 -0.052089007385755455
Ni 3.060325294419158 8.30872044470647 12.543373699768948 1.2555609478181282 -0.3280632502983834 -0.017260586852660596
Ni -0.09967426620232517 4.7007167766284095 10.39448693107573 0.17728141962540434 0.8018453149245416 0.020007553470178446
Ni 8.590445124491763 2.5551177497562976 5.820043423904728 0.6562681683809536 -0.4575396346253668 0.9848088725363878
Ni 3.505673953038185 2.5606593980317167 11.42874200958892 0.06873921434792676 0.9601892742154947 -0.29909823052460105
Ni 1.113344392539657 3.371357117379046 12.820588749711753 -0.8460688035192913 -0.27723356924102577 -0.08262419986013513
Ni 2.9047594172580418 8.522718914830696 8.324833014183984 1.3702935981770334 0.40874883837490894 -0.3709284250930257
Ni 5.294263645603037 8.007736265996767 3.507825202729365 1.5142710043336696 0.13173021335816668 0.1278229078839605
Ni 2.965281484161064 8.394516061613126 3.482296373518289 0.19644950791342294 -0.1676274414754081 0.25189843291034686
Ni 3.075878248267548 4.342362911264162 9.551087127634915 1.2167082366169883 -0.27862736426475887 -2.593002789572463
Ni 7.236865736878026 6.1889763866734455 11.569032015315416 0.1674729181754148 -0.7877929505965335 -0.8777782188074302
Ni 0.6905111783235791 9.153440250597153 0.11162424020476222 -0.006402046871601877 -0.5464028734166783 1.5628358006162504
Ni 4.492051007385611 0.2509812503937418 1.5300754343842606 -0.5077928743539643 -0.2496024377873185 0.023749022790481678
Ni 5.9121937669895095 5.548697978799216 0.3265166417884986 0.47986555181607676 -0.06690344669076864 0.03560437946717094
Ni 8.36034862036091 8.806932794005276 11.474721337870154 -0.9801222656939959 0.36869465066650053 -1.010846691361046
Ni 0.1974343925823047 4.891285884617707 5.88919774358038 -0.0631753471069041 0.21848000535090115 -0.30595510554543437
Ni 8.001277066121649 9.078800607595767 2.445328612750936 0.4941117773224459 -1.1000367173641572 0.06786683904530248
P 8.737571343869496 1.5844480886354286 3.942455768503573 -0.004012977814135025 -0.4314766189897279 -1.369384456099203
P 1.903974077394525 3.197903526358421 1.603630367870753 -0.24626617432523396 -0.6396277316107952 0.45471373514079755
P 4.5121644652245925 1.0794404066972554 8.298041415939657 0.6201909630424222 -0.1441985210285065 -0.12655638246671108
P 8.434670299936656 1.5830853882398335 12.560898026856298 -0.46988324379238433 0.7071001634311563 0.3911789478119456
P 6.280168297146657 7.97819292142027 1.440059080118982 -0.552886167148177 -1.0753122180342833 0.3507138978183637
P 1.9951296491905213 3.323671688202528 6.479049877549083 -0.4124993065562767 -0.596894711518643 -1.3870456208243918
P 6.982413234343238 3.9736070995468724 6.078046215203506 -0.540343811706792 1.3521917463700002 -1.078961898971729
P 2.4835123863024364 8.433225837517325 10.498956085736689 -1.273918110169077 -1.0420429144581924 -1.180899197338179
