# total energy = -340891.75947339955 ev
CRYSTAL
PRIMVEC
9.11656403182888 0.00000000000000 0.00000000000000
0.00000000000000 9.11656403182888 0.00000000000000
0.00000000000000 0.00000000000000 13.34301297699268
PRIMCOORD
 96 1
Ni 6.415480978782318 1.8884870896593067 11.574570000703991 0.4495237062994258 0.29335464317260446 0.39666311085496847
Ni 4.771026070866589 0.7729715710102266 6.10700380702285 -0.7722845705482893 -1.7395652043929266 0.04497785026227093
Ni 2.7263813586323513 1.5296135528117303 4.726268300533725 0.30394681686615393 0.09278751354638215 0.2551783892131993
Ni 3.5751790379971067 4.428808496214376 5.0690638653354645 0.07022454064420164 -0.5447859066385456 -0.38416215017448035
Ni 5.212978854285789 4.63004752713965 2.6985576056929683 -0.16865871095339985 -1.0892866779365047 -0.3085879151825911
Ni 7.229745114197407 5.9083538802374145 2.535332822803946 1.1070673989586932 0.943086295986621 0.527191333485234
Ni 5.270577304833305 4.483033818129006 11.601829438339655 -0.20871084177927923 -0.023276196919121205 0.09927440682230645
Ni 5.575681347959885 7.951084114058391 12.215180915816113 0.4165919885684116 0.3462494342891069 1.422990157239801
Ni 1.8212980139177435 6.368320993869006 0.5414418449616261 0.9246846535509816 1.0787047886556005 -1.2309503483582993
Ni 2.5286886710535454 1.5369341536014827 0.3464084590644775 1.3522956189377162 -0.5552567242628824 0.7990358705002045
Ni 0.678554965606553 9.058673692076574 4.593638706001376 0.8204675580114192 -0.05283282753031546 0.808883966938878
Ni 8.791421622149311 2.3116688680646833 1.3286708102123181 -0.39573031462805397 0.63348690882038 0.14306929252006972
Ni 7.020255592967369 0.7477533320256523 4.8478768810004045 -0.6596967344465283 0.16133929447385115 -0.1894262825180544
Ni 1.1057571486797761 7.568507511141878 2.6284129399438863 -1.0630377715423047 -0.6617286772748926 0.5635765569824874
Ni 7.786858332456149 4.002663834550383 3.852808492580628 -0.3055362728404609 -1.1368042639014937 0.11754389455545564
Ni 7.766036100570975 3.847645782459536 12.546728464111755 0.4533847319167289 -0.30006367976166387 0.061943788692648154
Ni 8.40386737535832 8.931762006405162 6.672187007621678 -0.5877395273819362 0.282008879142482 0.9011983975035833
Ni 7.11108391883076 0.5393322720814907 0.2747340338975615 -1.3331154464648394 -0.40192847301896584 1.2246408612005037
Ni 1.7501796991470604 6.745518824100645 9.303602032048834 0.7136531340583258 -0.16835506367005199 -0.0532863701279663
Ni 0.2054672932494172 4.968746108137012 1.3247461294651346 -1.4661911181073073 -1.080443882833894 0.39025180801198595
Ni 6.552056222158757 1.9683846554393691 7.058707436069508 -0.16124287810530294 0.35509094384013684 0.3294511317848455
Ni 3.574622927600874 4.473698456723394 0.7286286043335694 -1.3515705678462335 0.3937333388026832 0.40560592187055305
Ni 5.995298549891048 5.565115250431463 4.831211802241168 0.4513666730454356 0.14568744686920715 0.8021965276163733
Ni 5.061908274351807 2.8793481838518478 9.620125483082319 0.48286037277834265 0.5452114242117385 -0.39602522016065345
P 0.22968179855161072 5.497069217685869 12.443320191760469 -0.11812213565642883 0.42390651995195383 0.6372826284173864
P 4.1341429187220005 6.061712717703435 12.801739723727184 0.20690078515373397 1.3749241549705096 -0.9663306112265423
P 2.4368757562919057 8.44503777780729 1.25049627500419 0.15897850755115847 1.058911922299389 -0.09008399857229002
P 6.2567707183230405 8.094378265008986 6.092993471663334 1.279208669144055 -0.08443502781662877 -1.1053992672276511
P 4.645299538498624 1.0327517051874506 12.802567507726824 0.5581569286288129 -0.2895933763579593 -0.4076594619654721
P 4.056725058315304 6.345164921632429 8.29069435144302 -1.5059450009664774 -1.083719211151056 -0.31817735864323915
P 4.714886270538699 1.1420046066375042 3.71478827383037 0.28039911145320096 -0.6172051409412209 0.5391431065304715
P 0.14017446279336887 5.743654037313794 3.63383592161024 0.34397863597705924 0.058077620869022566 0.10772973667851124
Ni 1.4502447477362825 0.978152604154042 2.5391490164410446 -0.15038999455119906 0.9244162303809433 -0.01317484681906118
Ni 2.1392655286686586 6.2672912330321 4.899380908599044 -0.8884215574538892 1.2684750847766346 0.19972303645837214
Ni 5.924098186045511 5.606668548563085 9.305897582831971 0.4722764266149092 -0.5272427555484598 0.07527881523865745
Ni 8.89963523531788 2.29860483203515 10.263271714607429 -1.2838919335523373 1.12127325814543 0.5436399659595605
Ni 2.205843794630753 5.0117671730521325 7.280107747999187 0.07774527450127901 0.9409016296304764 -1.089774930426833
Ni 0.2895302170629017 9.16807245854859 9.565125253238513 0.1754147987303108 -1.138712279557484 -0.9284667463012333
Ni 1.4348195216637283 1.082117898557948 11.516020692544554 0.5499142290040465 0.028105757097280627 0.18688834658754908
Ni 4.121753508419045 7.000855545046331 1.688878100354466 0.3980813313587338 -0.15058282728829553 -1.1144099553666935
Ni 5.566528317831727 7.87464172598607 8.132526526534166 -0.1214159759163522 1.0813903059075634 0.5213955527390634
Ni 5.366219176421465 2.7888571708517453 4.896178259710575 0.3962350221786144 1.3418759662662891 0.36258956621002714
Ni 0.8032531495696806 7.124348519265491 7.064004159679528 0.3114577805312184 1.0969339100691173 -0.9496300106424096
Ni 5.03290848467285 4.628461245025806 7.108543132479448 0.2502878938901173 0.44513868985785277 0.24282655251606566
Ni 8.206247620290496 6.961727252904839 9.412107375261328 1.1963854658992363 0.021523733004388736 -0.046546994521603706
Ni 4.547734071933331 0.48436850849317525 10.650913480411596 -0.46397536294838154 -0.42462745727837836 -0.9901374838381528
Ni 8.059306843790832 7.449445186964834 4.714820631278816 -0.0019494104168869654 -1.1806436296839473 -0.04346809848596384
Ni 7.436207936221719 6.403930292355647 7.040747805240351 -0.5076797458148675 -0.4213701266833453 -0.3478242349753945
Ni 2.2342692407857316 5.335159043307285 2.752810277299216 0.563497624115436 -0.8646283116890335 -0.5205002946183036
Ni 2.4893871641984737 5.666910802633674 11.50223735962547 -0.1624212146841203 -0.8658084480400636 0.3751350069752055
Ni 1.0944708426054133 3.280230847024679 3.835582745143222 0.009116360478971396 0.16151798614356055 -0.2287831870491221
Ni 3.7090375453394913 2.793807465034604 2.6847077218576114 -1.0045122645025861 -0.028301160937538358 -0.2628402766338312
Ni 0.8489061664748403 3.161232338794743 8.191555365953304 0.34023408133296246 0.7122009749928315 0.08471296406836379
Ni 3.599301466004187 2.749409798974711 7.172589728654103 -0.19765098442069184 -0.3602814869021408 -0.0037844067430967084
Ni 4.1704541926268375 7.060459639645834 6.000899766734416 1.6372550960680898 -0.5682737053478406 0.361153605094449
Ni 0.7221120844773863 7.446035592076456 11.527455598610043 0.5339597625573191 -0.5451360908891127 0.32521318244409797
P 0.06846448302734953 5.477578004126105 8.192956581820534 1.1205484641642638 -0.47889727436553653 -0.17533432320136252
P 8.555430249741427 1.496648057848163 8.178119374117767 -0.34664795527910625 -0.2320052935308456 -1.273367894092562
P 1.9360208536913976 3.0345394506562755 10.309652233309627 -0.3936112114025221 0.9816433303242127 1.101478077796374
P 4.209217822213422 6.22324911296324 3.692278565972366 -1.3999898396898858 0.05664500218755406 1.4492596324592912
P 7.047122106700121 3.7324762310561206 10.284980988157415 -0.7846019544630617 0.5834409000065822 0.8413711409333058
P 6.511934224555145 7.890294866155441 10.148375660120195 -1.9439442515660716 0.16824579178569735 0.5579134451594392
P 2.4935078510689195 8.269753604227501 5.834192456446034 -2.054068199508372 1.878702765958758 -0.30284381360996226
P 6.801184563107157 4.03275761189406 1.2682826911197653 1.609630649482602 -0.7449110636313429 1.0309678875909536
Ni 5.144449643654943 2.9754914664530046 0.3811061011638519 1.1354284665998897 -1.52482923946549 -0.08188937857663962
Ni 1.471076096185329 1.092529014500535 6.797103989117749 -0.08590544171456817 -0.38225747695259976 0.4126121779850571
Ni 6.7167378319546325 1.0044447743628167 9.32508430315839 0.011427268000335158 -1.0766597332011134 0.23958696253284548
Ni 2.427968873388309 1.33778281580305 9.140510350992352 0.6665854911465616 0.5043321694988735 0.5150143318030679
Ni 6.337051179785755 2.015571990044299 2.6173518129971782 1.3647590415120494 0.8319943277040962 -0.5382316504597955
Ni 4.245118850743989 6.9792128224126175 10.46695307299419 -0.2015914571256786 0.3818944371862262 -0.6705154223285872
Ni 8.239368096839899 7.223199421336831 0.23357457132523995 -0.09399901735598006 -0.41325058290000444 0.43625424288402936
Ni 7.5436192917694935 4.017478250843468 8.065918175911293 0.6502101351123318 -0.16727494323199577 2.012960373724469
Ni 3.0829575213840155 8.330087023936818 12.445668618614066 0.6437191280713495 -0.4490369964709944 1.07488078692382
Ni 0.4807063847855245 4.856129194617944 10.368535207706802 -0.32202655718600026 -0.9140377153600967 -0.4796974016693286
Ni 8.676151788543295 2.530794597308132 6.011507800456653 0.3813984713864141 -0.3273279147942556 -0.668101927791088
Ni 3.656872566860085 2.680798539269011 11.685317106972775 -0.4897717551861952 0.2213943507842187 -0.17432979319624817
Ni 1.3816881874138192 3.2741045161022457 12.625145499918895 -1.2531317695513453 1.6333169373559484 -0.2342825196007965
Ni 2.8843805271095606 8.567427647797857 8.001845141701407 1.143473191281237 -1.6178836335200135 -0.5203766245562458
Ni 5.765378809022362 7.855360193395377 3.862749193827385 -0.6787424382240698 0.5855260646703851 -0.5613085868839172
Ni 3.2917359506319857 8.692333689417282 3.3512178832755954 -0.2175667495080124 -1.1296090317046352 1.0680506513758636
Ni 3.24312643206292 4.363670647344163 9.200634089732599 0.48229601563444036 0.3859387824589289 1.1016266875590965
Ni 7.108996225703919 6.087074998397198 11.526574938539943 0.9702579713054065 -0.02460597147413827 -0.38323346771262384
Ni 0.48927048488750885 9.175365709646725 0.31758097244271394 0.49917299389543707 -0.7668351173979439 0.6135626590926272
Ni 4.768154353246698 0.3970427664696629 1.552926429946917 0.13596919114017875 -0.67556789715083 -0.6038827128007019
Ni 6.1176063708067625 5.906776714687442 0.40431231450172833 -0.8580455162651931 -0.029100002689749885 -0.7146838893156853
Ni 7.943581181991185 8.648938845383382 11.505253118954547 -0.6757471030411717 1.255966925007295 0.2297254963577334
Ni 9.270542636477378 4.933820551940822 5.73295848457838 -0.3062132443028275 0.2414965208507325 0.41983723497858666
Ni 8.178733830522784 8.895879211002342 2.7016535907841264 -0.7602114414338391 0.0010618656056110745 -0.9118113971327393
P 8.617039988392918 1.68153197318587 3.680242878347669 -0.1686160306409225 0.5569711358508279 -0.16092457553393577
P 1.730278240213026 3.339205898716968 1.5756230273643113 0.8397330911092507 -0.4296799321006213 0.09805159015879887
P 4.613300399305559 1.1661361512084565 8.379385754734658 0.2785232345867268 -0.5300812534385194 -0.6420270850809072
P 8.635965974992576 1.5448382144790858 12.457797295190264 -0.7521276359844401 0.999521239045898 -0.2096433808958777
P 6.480400030119586 7.767157437927314 1.6245917385499602 -0.02065778545966765 0.9367744948359802 -0.6867907624498429
P 1.8019070825605785 3.2305820401741285 6.0061837271550145 -0.10593022157592724 -0.24512717562478428 -0.43250454603360994
P 6.985959079678391 4.069570296811893 6.116570729150828 -0.7476567446972802 -0.16062041402995564 -2.4992218017645604
P 2.327367591053418 8.542074483667967 10.483151383683147 0.3220111305670325 -0.31069390578200046 -2.145105306022551
