# total energy = -381175.53542932024 ev
CRYSTAL
PRIMVEC
9.18034199814856 0.00000000000000 0.00000000000000
0.00000000000000 9.18034199814856 0.00000000000000
0.00000000000000 0.00000000000000 13.43635847748417
PRIMCOORD
 96 1
Ni 4.949305923699552 0.8800698038527378 0.6854291129793043 -1.417328330968333 -0.09589829126122193 0.07189935724346326
Ni 4.786217149893122 3.9586093278469825 10.182932544165183 -1.2084064016195124 -1.0385644689912887 1.4625807750482296
Ni 6.99005002577106 2.9493776217036625 9.44410689057413 -0.6152292481617727 -0.037640950281225494 -0.49165663091373396
Ni 5.451075870783033 3.066647309100417 7.723030555676071 -0.1665591481118938 0.49767738318651705 -0.8928783076736622
Ni 2.3911852933190656 0.46971311121212334 3.7158783339784685 -0.033171601655962224 -0.42616034898313704 -0.34664307018309976
Ni 6.308391279208998 7.816143091404138 0.31734422263922946 -0.4873885996659994 0.7636649472000784 1.058143933785113
Ni 5.64366108310565 7.7757771280814865 8.421667426543094 -1.3245963532502347 1.1349458705365163 -0.47436699059535076
Ni 8.989225539731367 4.873669086807282 10.372788440841719 -0.085275264329737 -0.03597024744702192 0.2261645184793524
Ni 3.1553936742221036 5.1024248462054596 12.816001485795638 -0.5997350091809155 -0.5318113487557488 0.43235773604310057
Ni 4.430451360345101 8.45604964301705 2.733411914636874 0.4352083181180182 0.04060954599124619 -0.18954609592537033
Ni 5.384674457839497 8.164702312562738 6.220926489816182 -0.6666968199134453 0.30849766946163 -0.4843246160286949
Ni 0.24378122498157087 0.9433535726879332 12.841248344047541 0.38121515173101445 0.2903469666945322 2.117801476001275
Ni 7.0238795856627965 0.6654352463610649 9.435118417822435 -0.39146973957948705 -1.0666005491928987 -0.5776572034452696
Ni 1.3614814247446547 1.5156560865687576 5.679494711633578 -0.43559758313663693 -1.4917537970677601 0.7264271458945425
Ni 6.924768614539001 4.165368988059108 12.790768398056581 0.46800710981559396 0.4207018969717271 0.7248531165392033
Ni 4.728436077991198 3.3002778300460873 12.703673576442227 -0.8962497952490563 -0.10873323824236111 0.4030669574987832
Ni 7.061124232740347 0.5833483012517163 2.053196317821075 -0.5075177663157067 -0.34879045554340576 0.30404837544102475
Ni 8.502346107205389 1.9362350899120717 4.770377387983434 -0.1703888062706291 0.9384678233780032 -1.0643436348379218
Ni 4.033107802343981 6.819231404087062 9.880009720612502 -0.3117814824192243 -0.31213860864832693 -0.6472834483838401
Ni 2.835550562518415 7.185352619295293 11.82994738884056 -0.6419882614231718 -1.7889229288904482 -1.2011762024196604
Ni 8.7136592169986 6.330598526258689 1.1133569800114476 -0.894559294920511 -0.2709271674070237 0.27172112406322885
Ni 3.7197460120198222 7.067945226770079 4.716887207884332 -0.6612838764279901 0.30300810710196846 0.1287086529230235
Ni 1.1536201235048469 3.11614771261093 1.7669486672907406 1.2871610912219122 -0.6786285383540248 2.1688540717027163
Ni 4.353419111484434 0.7311059040895713 5.007663521072629 0.4232758283464904 0.713117830380146 -0.13649601017792623
P 9.300053555691857 3.3914478054286743 13.475861510522442 -0.8258694457532809 -0.09767826597978016 -1.7471265616799525
Ni 1.7233062399449264 0.352485653388097 1.3158202402156134 1.107212666287306 0.7065856856885832 0.2591800541734246
P 6.251675126967167 8.92504576952699 4.0630338808609645 -0.15676864438403323 0.40530330302846973 -0.15119089318593962
Ni 5.9346687409097605 2.9728150345675983 1.4345597003501334 -1.0444921473296334 0.14008449886013294 0.30784615192056014
P 4.077760985332693 6.021799365857513 2.6967309405518205 0.1216147221907196 1.0486262241026651 -0.8718875643546081
P 1.961912506198961 8.30803499060607 5.5856688633400875 -0.597842677254209 -0.2388608830000983 -1.8367284784095013
P 6.825097642559468 4.640222172699558 10.656765792820838 -0.1755955472825492 1.5743258035337209 0.8396487589255605
Ni 2.638164031383484 0.054834182152873986 12.251284688424596 -0.6357178550334277 1.6362737059914272 0.9998464835958006
Ni 6.277784019323232 2.147043280900929 3.946460063380029 -0.41912092563785236 -0.5217778757791466 -0.5489678059303772
Ni 8.25675360076747 2.674839497263399 11.430511630921032 -0.4290788081815126 -0.6202938071688736 0.8475497589401919
Ni 6.757833277477582 3.7981277711394 5.7282019336041605 0.3657270833977443 -0.22926295489901807 0.9198293823412095
Ni 1.8108867016456494 7.955840354056118 9.41638776624927 1.626680662986353 -1.1325853407241397 1.9099424406993297
Ni 0.14198775795537008 0.816888854846793 2.8874332647512913 -0.08081260057269309 -0.15468450816149487 0.21104540344972683
Ni 4.997052881907671 8.485390015720983 11.867368298482539 0.5750974131378934 0.11235000905934198 0.39617948635033057
Ni 8.16534493649555 4.487433742501955 8.069487478540179 -0.9560945353208309 -1.0526885670974966 -0.9588312175257037
Ni 1.9859099199186347 7.484227830105433 2.6123103525321656 0.5334247159894554 -0.3954032703059384 0.005014165385139752
Ni 3.076185684331764 2.5722858979280976 6.788867423261575 1.6739470521724849 -0.031118832891991566 0.36030874059565043
Ni 3.635103259726251 4.614315247865235 8.159363025715239 -1.8272218244706466 0.14354083283984956 0.20436901987081577
Ni 5.694520177216972 1.6935527518556137 11.32044116764018 -0.07858833922786465 -0.3911455234708489 -0.6973238007706829
Ni 8.720985129832686 1.7835201024496479 7.356231831235815 0.18955432345548645 -0.5062301578525346 -0.19916202174857958
Ni 3.5480644381974726 4.067396379330584 1.5730479119742333 0.17397523807030682 0.5755028761064281 0.0358558333563447
Ni 5.124980946247249 6.0443646462412 11.873870734648433 0.21274078887427877 -0.7371584162691176 -0.46395248013024615
Ni 4.884749759477383 5.536508132479776 6.240503568912281 -0.8215628479581272 0.011722687753566908 1.2939698866136295
Ni 3.102478183525776 0.05125476684709706 7.122936392769398 1.5280228067021233 0.8788825076152025 0.46991255436842305
Ni 6.444783618777933 7.208202490277799 10.354635232773898 0.6736945913875172 0.22769612463253042 1.5222506801050364
Ni 2.350663264184161 5.165190843757644 3.672761022189183 0.33935553538275104 -0.3118742992433468 -0.028701481699750567
Ni 2.319872397460448 5.1826885754139935 10.619735047709495 -0.25371003219778887 -0.032012034130222286 -1.0333011637098204
Ni 0.8058054280741217 0.9205312427311201 10.74510914093323 -0.3382705298486884 -1.0096763252020289 -0.7447961353200334
Ni 0.6585316292542573 6.5739969309831405 4.435663958474417 0.17143524525727247 0.972186555786687 -0.8716841900945504
Ni 7.668458931301461 6.6114802669500214 12.400643342889348 -0.5097343143510512 -1.3194482333903923 -0.3334659093711934
Ni 1.648422191088239 0.9124057221177753 8.684684221902183 -0.5075398778028937 0.8656603524979736 -1.812006293072473
Ni 1.612600497004778 5.445227992994421 1.293397255131335 0.4293004372740155 -0.14997321872875463 -0.058754335221073005
P 5.018874554597673 1.0557852199047837 7.99838205840844 0.11667537590757324 -1.7671559695270016 -0.009076765490287594
Ni 6.81715664681826 1.2898104955520404 6.196244222590965 -2.057150437978122 -0.9683124175432613 0.6119582907199848
P 6.847277348583468 6.029621017154056 6.715572491587319 1.0155366406375477 -0.9255611426186641 2.78492869858392
Ni 1.4100087120140492 3.109638850205709 11.679634896852672 -0.011839930057721545 0.7815037751537122 -0.6333555254488383
P 8.364292125753032 8.416665976277416 0.2888117200222644 0.5992590979857615 0.5433301480286256 0.41580548811137424
P 8.823547909509884 8.604477410813411 9.398504460233232 0.15085305023054665 0.505453170477194 0.0593333476529946
P 3.445198707237661 2.112359949212739 2.271524126858052 -0.20601632566625167 -2.186476669880486 -0.9062992090652585
Ni 2.2925057982644463 5.333705199625408 6.147591164637577 -0.6747371737194185 -1.2051102473667439 -0.5103061276941212
Ni 5.138889164221736 5.624657775378135 0.6569948400206409 0.9243534954638081 -0.9090765147000796 1.3696893889341313
Ni 8.029999155902916 2.8377354838899844 2.3577853734281256 0.8163229397154264 0.014525190199368532 -0.017589945167621315
Ni 0.8481892305458091 8.075285782482544 7.4373337256595775 -0.34347521397807945 0.922132062332457 -0.759575350511737
Ni 3.952871614161139 7.639421509880141 0.38820728174487723 -1.1754715985647046 0.18578997131704778 1.056694088712464
Ni 8.694297875937087 8.852686314692074 5.469256619876545 1.2461738501762734 0.20933253452367817 -1.7938766733512976
Ni 3.216066553821692 6.956312269298298 7.429822369919165 0.5475444432202893 0.3661538865225178 0.6273468573609131
Ni 7.577637808910974 8.157963941610083 7.223910055264165 -0.05215405629573599 0.2634054051086818 1.270307252889367
Ni 3.9848467449896097 0.15840863550716075 10.03510517072891 -0.2821973410042043 0.7410127570182012 -1.555724643492766
Ni 5.703085436207199 5.4305853476681465 8.800357447842988 1.8811149749446763 0.7110079831259948 -1.3533034913769402
Ni 2.729728761467657 2.8060174026346387 4.344848344289068 -1.7235456890362186 -0.24774044487791524 -1.8322179921336572
Ni 7.110881685823986 1.4425530240401563 -0.17759738614100257 -0.1962962701650103 1.2107880144778114 1.0020131522298164
Ni 6.973516230013932 6.97598574198432 4.9153019373117655 1.1863260247807053 0.3485354021098062 -1.2353813875464594
Ni 7.439189072757032 9.037192826145024 11.721932404110524 0.5057444764653677 -0.7920121308842037 -0.9648049186106352
Ni 8.153768525362993 6.520438816353998 8.952819975903234 -0.24340839316146468 1.688687700816769 -0.257129342291983
Ni 7.966691518178786 4.877690076558321 3.6946093178706874 0.5605588532020862 0.495177756693115 0.44204642408577416
Ni 0.663400882596612 5.389980695456166 12.473656438067355 0.5904890651026152 -0.5904949786398862 1.2285165421058262
Ni 2.525842548269402 2.2521031135742073 0.07418083466735023 1.2641391764054422 -0.2203463691356786 0.2167877052501428
Ni 0.1298026901550169 2.7733353854800713 9.332074588229816 1.0447708549123167 -0.1534624628289357 0.40275276869247406
Ni 5.473384101593595 4.866756289358578 4.180037338342695 -1.0256719292993366 -0.20173441046144608 -1.9964541485393295
Ni 1.143980764512629 5.7887655671351705 8.32002176302144 1.4523531837829504 -1.2491391034521844 0.8496066414692206
Ni 0.1871339253039702 7.2081933099359015 11.046352879952888 0.8471221844844701 0.9277617498144086 -0.6721015358687843
Ni 8.269183783696482 7.811002099941621 2.8424752944115865 0.6629026429783358 0.6990304990491445 0.9168052508029049
Ni 2.6095030039799556 2.8131321676050853 9.589488620928952 0.949732597658545 0.6457983791978813 0.05208463651038127
Ni 9.122872957072994 3.8333711036833282 6.0613023770418115 1.6266302693643921 0.27668566715735576 -0.5640532395085899
P 4.554900075105583 3.022994783378516 5.009746540649138 3.519415995778777 0.7613558394509274 2.1010713077307877
Ni 9.082139780074451 6.245882331229939 6.445098504505013 -1.8704541527967207 -0.5005454487629314 0.09765564027196084
P 7.156838477362123 4.845558879917595 1.5859472103742005 -0.434893872201393 -0.12000803982523202 0.23817131313224144
Ni 6.284549931301579 6.569305776273594 2.716925856657612 -0.6785676032091024 0.07851249168460672 -1.1872943022312454
P 1.4598212471490724 3.491724679973433 7.786476816562849 -0.7804568219464365 1.077186552238861 -0.5219982193200688
P 3.326450984795433 1.8491779076994979 11.404511984633547 1.2062785566432321 1.070911774973743 0.024644023800925303
P 0.7417964122290358 3.6622128093491275 3.9511356115083496 -1.7229198825267618 0.23328390313295308 -0.031022673633759476
Ni 1.3658971691972803 7.59826603715432 0.22400585050048838 -0.7784477619362077 -0.26555099069677496 -0.781777340530073
