# total energy = -340863.35073354084 ev
CRYSTAL
PRIMVEC
9.34463509419693 0.00000000000000 0.00000000000000

0.00000000000000 9.34463509419693 0.00000000000000

0.00000000000000 0.00000000000000 13.67681803054885

PRIMCOORD
 96 1
Ni 6.284453940994433 5.173675865906516 13.083544966227826 -0.6926186819855298 -0.04339816447997688 1.2513857333945158
Ni 8.967887366108606 -0.022373859618930247 2.5184492215882903 0.694620800017223 0.39548837382057694 -0.7421769525296315
Ni 9.092395283062466 6.956576159158898 3.771819885776631 -0.17584340162729717 0.6531656181962299 0.8437414409376953
Ni 5.279036625712487 7.860286466926146 12.052216846973376 -0.06019158188823183 0.778943984846336 1.4970541262347508
Ni 3.239046733898518 5.5915679438243036 7.136372543648722 -0.8946701094667625 0.717724475914222 0.9118214244350684
Ni 2.1775522638852522 8.194179620684656 8.728394649745745 -1.190681987756556 1.3071982123784456 -0.39091540973791383
Ni 4.844436340385999 0.5317676691503856 1.9483451872845567 -0.20710441652410783 0.03390925115293515 1.0799985677663595
Ni 2.0146565862854557 2.474010809769461 12.412314226243893 -1.3451199271248835 -1.1929988088151906 -0.3869898494312626
Ni 3.9644053377494233 4.114956752493017 5.5239987569502444 0.4566510613728264 -1.3741237705564011 -0.053104593134463376
Ni 6.991497060213879 1.109254899580301 5.611010391438699 1.5406034715806112 0.9743043734606383 1.0188160827197679
Ni 2.250169422594982 4.172902834227547 1.165110586461741 -0.7881115102782169 -2.845590792350667 -2.767562953611963
Ni 8.371101595443543 4.302914741205861 4.241263511687466 1.0442584340522727 1.2927326717724186 0.05324394692580508
Ni 5.479105261406133 3.182343488621122 11.19253378708425 0.4275245763205153 0.9555276070737674 3.700723762954755
Ni 5.931609867423374 7.3111863687479905 9.385757016902357 0.5981658649215827 0.4627466327476031 -0.12140466306244253
Ni 7.778128435865028 4.886318994527939 1.7999103323720989 0.3309603693405203 -0.6556655017999482 0.04328940681625448
Ni 5.511960998122567 6.483532045376378 7.063844158971645 -0.2775305316561543 -0.5553014614578888 1.4763410620571156
Ni 2.48444876708239 1.8149897698975002 1.8587890086812313 1.2688026433193826 -0.5207566336034839 -1.1794038437395753
Ni 5.3717354050717105 0.8155847927848815 13.254888193882133 -1.126365585066673 0.6050201688392548 0.26768757742380345
Ni 1.4171232448191085 0.7981990993375192 3.633246424196611 1.0687420210159335 -0.3050588189834101 1.1759724494605233
Ni 3.8380565276974012 8.508720035324922 10.397458599232596 0.3246336557915442 1.4795066042692906 0.1019810071201921
Ni 9.22782707835009 3.391822171775931 13.598668905951126 -0.518653728327868 -0.3075592168077606 -0.22058908127410395
Ni 1.8078878472853015 7.725200423134117 4.829503613630351 0.5700109997539214 -1.2111461691481789 -1.7345718649433932
Ni 0.823207211567474 5.048597926216677 7.943810683626611 -0.14835239529587999 -0.15946701715180278 -2.3304872432679025
Ni 8.627210007328445 1.802813710471586 11.76121556793854 0.2396432696920776 -0.28827517176716805 -0.14213726762410359
P 3.6764410650948043 2.186018503209794 3.7558863486107628 0.48303443646236166 -0.9284518339028979 1.056752195643909
P 3.734218943399046 2.5858660909115887 0.2350549491937399 1.2274886150619442 -1.2972662979767142 0.49074003263673543
P 4.001456815588065 7.439777891203863 8.59869765696747 1.3607411786019081 -1.9102735987865036 -1.7319226002460042
P 6.969901608691785 0.5854479250000891 1.914015801626091 -0.6710880070026055 0.7362665005824675 0.0036946752427678303
P 3.4017835527030416 7.026025486598186 12.905281101880632 -0.12134167103499104 -0.9313219563618411 -1.8473725883869088
P 6.517826855885283 5.247657341328589 5.282014760892102 -0.712267823675025 0.5481419675949721 1.1971038321224996
P 1.7018168952181096 8.187068353437441 2.175694550444061 -0.31746619150882743 0.0452987239367994 1.5123457622864986
P 9.20056877800827 2.2253687612623834 4.295300732594782 -0.1280699908977601 -0.5639010302014417 2.057502936221534
Ni 7.2056200269716655 0.694736234903307 9.937671719147346 -0.5290396995478824 -0.0919562758943384 -0.19489090517705143
Ni 6.684208082346067 6.304900002409552 11.190249023822824 2.9374249408448443 -1.3771705278025248 -0.37213658646851394
Ni 6.850720133697075 6.494184929294676 3.607986006821223 0.8858381129974292 -1.1390053853178705 -2.2092623003164342
Ni 8.353019726687485 7.004215108470723 13.079031507515074 0.27728807662804505 0.16060061653561375 -1.3433211833532477
Ni 3.286564202955136 5.954055680731927 1.18371108246119 1.3733203008184993 2.2215038366879485 -0.6160905677208034
Ni 4.52751304381664 1.804682637474796 6.8273585461569475 1.439166252779031 0.40178731945541124 -0.7791018505804389
Ni 5.410188578162759 2.695217009869414 9.15009186304207 0.22069501072434894 -3.2593152295632963 -2.8599187789375646
Ni 0.329398384315788 8.918613105668971 9.767586279366203 -1.2623499457155034 0.5659180606314705 1.6742648405232199
Ni 5.281597055706885 7.222711364416021 4.9420223638586185 -1.9164239346586158 0.8145298523707456 -0.3240039926273452
Ni 7.966478899248547 4.167707217158623 6.688853300412545 1.4457310504807426 -0.23176412405431698 -0.3108312026908131
Ni 1.450408834746281 7.072982277553841 0.28895386950281887 -1.4725509988870638 0.4543941470178497 -0.5631309848046366
Ni 1.7252532398383649 7.533579337494982 11.34251331016486 1.2528250369442038 2.0002233857737743 2.375084313151987
Ni 9.37322959919984 6.39230971834969 10.611555401012337 -2.8188649463200486 -0.57055170274874 -0.9133975106729367
Ni 3.4559730911611197 8.299334798520274 6.565364883138937 0.6190535070038693 -0.05124337155600853 0.8682389118584273
Ni 7.515254508228505 7.849213074432126 1.3517397680753032 1.1613526426648193 1.0124667434629726 1.5302990043308098
Ni 0.301735461277773 2.422269565685588 6.695226341493492 -0.7298721670203495 -0.591006371058666 -0.4413630248655044
Ni 0.6377647986009506 3.1200147730640637 2.5286657110513384 -1.088179818025571 -0.38581074152149686 -0.23308644241016632
Ni 3.9115240481935922 0.18455186924949377 4.5173432775286715 -0.05602716609789706 0.3532690601400497 -0.2886610943516771
Ni 3.0091313339636057 4.122030641200167 3.3395510868866483 -1.7193488773460517 -1.8203677776632905 -1.5245014238124261
Ni 6.218686399751467 3.2157225248984553 4.92757929597781 -1.043569378405048 -0.40610137344973285 -1.0657446289505066
Ni 7.560445163166127 7.2892918889053835 6.194367921585697 0.7574315646958568 -0.14328449385466935 -0.04704296032141576
Ni 3.1035962493408626 1.1237110499501315 8.547710524929395 0.06579555833857055 0.8113856503148092 -0.29020015670402277
Ni 2.1603674800907346 6.07943264874228 9.769473895639445 1.9091695670890472 -0.856459659835312 -1.419371329540291
Ni 4.457876823677029 5.6534761508056395 11.012738337057925 -0.1226984421732016 1.3453680385799476 -0.05756031491297184
P 7.554660834091191 1.9578131714828193 8.105743863819754 -0.5890412769124953 0.7267850434545936 -0.7827127078601488
P 0.8446008189732206 4.390539383751368 9.85064606770637 -0.7398269642402161 -1.39600745800337 2.7644683738470395
P 9.427241589592612 5.408740159735271 0.4166324211176247 0.8541186704069613 0.2842699072625169 0.5682132844235505
P 0.473864572736929 1.5261564461863881 0.8275197606273814 0.1414906351790402 -0.8102898461474691 -0.10870752721074825
P 1.9241911746950688 1.1787602948296865 10.259828945789199 -0.42719367534365776 -0.6538387330038545 2.2525025990623075
P 5.691826532911512 4.73793553510807 9.242109418508623 0.09649530141527252 1.4296673121496606 0.8792429762784149
P 2.953484032443024 5.771536269598425 4.491180168410732 0.221512878639954 2.229623637581605 1.1674759819537377
P 5.138110185035425 0.9983808051148594 11.122863926258582 0.12598585467522175 -0.556705283783951 -0.7527711831057101
Ni 7.569462735956616 5.675903274844161 8.481418749662028 -0.36454463305386897 -0.6536898661308161 0.33398578643040544
Ni 2.4674415313531775 1.781311705299653 5.810418361436709 -0.3971853019070256 -0.26640845360106374 -0.17101666966261517
Ni 7.4366661277435195 2.5801938974568457 3.007737114419211 -0.0838326183459395 -1.416142023969716 -1.3210929680826666
Ni 3.8124055045783423 7.6970917610058365 3.125440268154383 -1.103721365304596 -0.16016892831483384 -0.8842725682825223
Ni 0.9754677600555028 5.45706126740327 2.581773140774558 -0.07205568031566946 0.9641474875322942 -0.1394311815468502
Ni 7.144066916120939 8.731664337537861 3.979106317556674 -1.5426037898400917 0.7864030122275424 -0.9279692378395243
Ni 7.8653886376449105 3.5120128673523756 9.918592777835077 -0.04301918387400333 0.6460264360482875 -0.02125710960656339
Ni 0.726947191803634 7.4358811784021706 7.17565178247519 -2.5391345787990978 -4.127898926355652 1.0025649109682282
Ni 6.507398243207371 2.905032099884801 0.42837021716128604 1.348014475063859 -0.44652837111652777 -1.1978664213201369
Ni 8.680708042795336 0.1708872094655228 7.507505936873196 -0.45314022000609055 -0.4311084370170317 0.5957968504687738
Ni 5.447679253847155 9.23814355540781 8.040478129477151 -0.12311084712027183 0.33129898362686167 0.5075694454892485
Ni 7.6452290366667555 0.12281653801595466 13.438991520650857 -0.02190785581668485 0.7544539701247717 -0.47555355470428423
Ni 9.0405419033584 9.056754845111248 5.214368948010911 0.27968125945056993 0.7748448750762978 -1.1656744099686247
Ni 0.6034587745300253 9.303845684205662 12.941756950202285 0.5452533331932674 0.08228609979442601 -0.06949897533208675
Ni 4.671420423063821 5.522006480764822 2.846966406822065 2.6155156259629986 -0.11295473252287642 0.5028892664047596
Ni 2.9630062155243797 0.17851616949262658 12.395805994024538 0.307809899365986 0.38562485076293584 -0.4461871857270251
Ni 5.130840058992939 2.936168423758282 2.1541944141991314 -1.6894261216446904 0.4078342969804396 1.084734282679132
Ni 3.391111979514711 8.41660996797171 0.8222204181097791 0.41481458495301465 1.3713158687939608 0.3660451288587954
Ni 1.6150332698240466 5.088639687260454 12.127371074089965 -1.4435052464740172 0.3891068957742654 -0.26505913866202097
Ni 3.5480644692442995 4.106200829482977 12.557780290611753 2.276298673040641 1.225421191009954 0.0723996939186495
Ni 3.341277040974113 3.965844411541895 9.974024218286788 -0.8811710465390631 -1.5609928338702408 -0.8429107175062838
Ni 0.22953507328975875 1.971970293532136 9.018521270943078 0.7104330844591313 0.6402936473295682 1.31402911925735
Ni 1.4589404865159352 4.084904406281398 5.4558744987562315 -0.08689248821818583 0.6794440922767846 -0.27968691587752476
Ni 5.7686674666484965 3.9768430469557865 7.118564472698634 -1.1205404937444636 0.41910035681256214 0.9211668702057104
P 5.464471562970998 9.11590638476285 5.942359001082336 0.2697015225300387 -0.14184570452561376 -0.3551518789850593
P 7.3934098122542204 8.401976269536576 11.416053718814178 0.5177193894390567 0.00685173281451078 0.6598479153124119
P 2.5598506270269032 3.4827454704821044 7.6061301492960975 0.19243215922391377 -0.7201312855835017 -0.9969573349734636
P 6.259344906706304 6.358089664920913 1.3486055774909196 -2.714388940692144 -2.6146154827462325 0.5376549520207192
P 1.420580759775047 9.037944094823938 6.403075672351682 1.9518411378156448 5.560930012771222 -0.3063801088979949
P 9.372388582048394 5.76250935217292 5.845416822962325 -0.1534408655623809 0.20195912487774248 -0.7208182843481974
P 7.536691100955325 3.715277368221511 12.100934167166056 -0.07699682637102868 -0.4117187196365103 0.11578988797882638
P 8.289672445913677 7.600412167129775 8.676108613440435 -0.049008568688218825 1.0705273950511307 -0.10122818811456762
