# total energy = -340855.0807100297 ev
CRYSTAL
PRIMVEC
9.40641520025831 0.00000000000000 0.00000000000000
0.00000000000000 9.40641520025831 0.00000000000000
0.00000000000000 0.00000000000000 13.76723946059960
PRIMCOORD
 96 1
Ni 4.854688611935401 3.676177639704683 11.304487046326058 -0.43879680680022487 -2.156262093970319 1.030779168618915
Ni -0.12054791651732623 6.993801537315227 9.692425922684281 -0.021752304075427054 1.2988922636159115 -0.2663320918371736
Ni 4.657370236157323 9.105504168228862 13.072985323790006 0.9816615851566577 1.8400053493885602 -0.20637525166756715
Ni 1.4089493366208283 0.6069038026827819 12.985894145555914 0.576686097781252 0.022184506516839213 1.4046617912442583
Ni 3.6451270624799403 3.738993681724324 3.652214796481408 -0.8818421044641588 2.1450065756611574 -1.0661950862243637
Ni 9.057879487075006 6.601610453762233 5.408887328508532 -0.6954294119614475 -0.9660097375520138 -0.040236993143175866
Ni 3.6222976923119754 0.10484766857857479 7.976243305732559 -0.9667427590632963 0.07438638533137512 -0.1632838197947317
Ni 3.3084056105217075 8.722079863825657 1.2788445020603822 0.2220186146317789 -0.31920811390059867 -1.3049690659376105
Ni 6.205355798757833 4.442621772649029 13.679143197731822 -0.768679112585218 -0.8853547456031073 -0.7086975898252633
Ni 5.299903659079997 3.605808246121435 2.0631993905617203 0.8164800341185809 0.3802139641600097 -0.2962054823578382
Ni 7.117025579012935 0.4451802434076278 3.9317584118088242 0.8358779790292186 1.1800525330671676 0.26662288360471503
Ni 5.92746206869101 0.15190702416708332 8.36547042779403 -0.47032830174960294 0.32589735299531614 -0.41868538076233053
Ni 7.531829685179768 8.404660376261601 11.816215797382766 -0.09817346044864382 0.42610198494137586 -1.098886662920114
Ni 2.3225944641092524 7.337436704590087 9.8266291324331 0.24412753071567633 0.23184845623800715 -0.2605098287284417
Ni 4.834831669032817 9.220441157962012 10.478287718932181 -1.9712195423422565 0.0875010683364622 0.5976611573710223
Ni 4.102419946993991 6.920036427773744 13.439083951673894 -0.2162341467395179 -0.4239869954809021 -1.4602127890366854
Ni 1.3752179310080055 2.4857017070892713 2.064796599896092 1.7523147907491112 -0.5872723579375305 0.7195278476715479
Ni 8.696466194700248 3.4455511470066376 8.564448095248098 0.07250562336889448 -0.44213538425515464 -0.2702285986781024
Ni 1.9494419653193238 6.8491026492666895 2.4529918381885385 -0.44559403222771643 0.12823068484534045 -0.8503424911939806
Ni 9.223723996935485 6.151758043827029 2.999661659878093 0.598890401792433 0.32543738263976213 -0.6451710300265275
Ni 1.612410101652998 3.0585429983372645 7.1530719034549035 -0.20461815976714437 -0.09416613906146364 0.7819951129678339
Ni 2.4180883932172774 5.390995385782333 12.873842103424954 -1.5153308130567515 0.4581433296476367 0.5118691013058668
Ni 6.483099026178308 1.4765344312466322 1.6128456186858684 -0.5026804928280634 -0.8449704282487899 -0.7184335861661046
Ni 0.24968106836728587 5.105360175843968 7.304222651824086 0.845130093755106 -0.43604649774859744 -0.9414233064619013
P 2.073954685926389 7.872896901051309 13.223158745599463 -0.5058648040933158 -0.21611304778062135 0.3384566777175655
P 5.540199946805924 7.497627958797107 11.841630050501763 -0.005569266557661376 0.6125457877923386 0.18239560092351811
P 0.4872419704958316 2.611521919436488 12.292741038817056 1.770669124886583 0.5200979169735623 1.442722602671722
P 3.484145669379591 1.4399434753531908 2.8347436819341953 -1.0118573920137477 0.1348520468166 -1.5973973406412039
P 8.923010303116095 6.251070977586143 0.7486641265613678 0.9966673145368704 -0.2305395076185965 0.46956185589722355
P 1.770578976549712 0.8706879096544474 6.74249221844276 0.2440696808945474 0.12431258073785688 0.00913770063521007
P 3.9889503580627355 4.132031342663027 13.531531142834904 0.4312483050290057 -0.043028954066016215 -0.01954604045272763
P 2.6091326899257083 0.07164114094489174 10.871961253551708 0.26587803501889046 0.9444602935160121 -0.5601539044541837
Ni 3.7203501664079224 6.418853209018358 3.753500255549225 2.657010916993308 -0.2948523107640535 0.5380215913315185
Ni 8.404566312107633 1.0374429605253348 12.392910897018815 4.1521511140347975 -0.2594811303536112 -1.65667875201034
Ni 7.291900247654316 5.397673940714041 1.783821328145287 -1.0627444086716018 -0.5526195437503515 -0.08799214904026781
Ni 4.131438738493031 2.1047889155970063 0.3956789823821173 0.01280306530193924 -0.8270647516129628 0.8936776636465061
Ni 4.412351927902218 5.848626901250668 1.6009925946443964 0.8175241591123791 -0.7775131659370803 0.8882055847883412
Ni 4.495899709456343 2.2025027587386696 9.44037537827855 0.06924597878101624 -0.8540235395899938 -0.413387622698501
Ni 4.4686022919749115 4.680387734633224 8.92159840016504 1.0072548602447298 -0.4931578980496088 -0.532427899293825
Ni 2.7370787521525957 2.359053730187139 12.105423563888825 0.10078724392240707 0.5410238684929521 -0.9739565032029162
Ni 8.05018901844966 7.1762577767664055 7.7293550020965744 1.8145401152379204 1.695157881922145 -0.6861137909874764
Ni 5.385135188990144 5.045582405997484 5.8257730744026714 0.8176228894737724 0.9106166054936898 -0.882828379636828
Ni 0.9321146241199849 1.797293196276543 10.008549206206663 2.949993264428158 -0.6489744629330177 -0.142364038922929
Ni 7.7699436845336445 8.693390296865504 5.850567444747022 -0.8505443227921415 0.20333080841428852 0.37179308708616615
Ni 3.8811152119541457 3.510850482691026 6.893201805929834 0.543748723623283 0.3542571350849318 0.8828376356082086
Ni 6.461774682473826 7.647368685498313 9.787489037967132 2.2176350977611614 0.18285171462433022 -0.3281033595076994
Ni 3.7455969853328575 8.139531151888196 5.926658760816126 -0.32353425207977826 -0.776468783832966 0.10666427152847437
Ni 9.09559921281606 8.056152685811213 13.569748467950449 0.9288506120032132 2.173064767349954 0.5787969734766676
Ni 6.478339379987541 1.5063339552236046 10.984247515426048 -0.9324825523288457 -0.057405020282030164 0.21527255415719698
Ni 0.12321933849000936 6.309447191538507 12.07327713927036 2.479581401825813 1.611592144084347 1.9130940989544345
Ni 5.143823008401367 2.109285182156663 4.09260153060284 1.19029452251015 0.4771442962301718 -2.4174445232857527
Ni 3.2827637221501087 5.956668988497986 7.047353200810588 1.1581220515426633 -0.13970500403352715 2.5950491305785306
Ni 7.399321511485447 8.643950177540074 1.7751203939032731 0.3759469613535396 -0.4451489742704979 -0.6416349918488111
Ni 2.1965296849617197 6.383249926741578 5.301282639577164 -2.98230946006236 -0.3597772935722126 -1.6218205066805744
Ni 2.8913815903212363 8.694443815389942 3.5583500585201033 2.046611743230327 -0.18005281172295443 2.981925080139748
Ni 8.449143314672932 5.267620841438277 10.712165068791352 -2.918453284838348 -2.862454400875225 -0.9558297116952182
P 0.15518421929131856 8.128092950765723 3.8752992253143215 -0.42698258777411624 -0.03202257565318356 -0.19855884094694193
P 5.197345512008996 2.011524306938016 7.300326514566744 0.7125143924681923 -3.211977106598965 0.03248640266347953
P 4.805342556763938 7.510345432413542 8.32712893799525 -1.4697400118008301 0.4971477359352922 -0.3086948730741006
P 2.5455359154281356 4.107151373938567 5.430074338548221 -1.3943375265001146 1.7555173568468088 -0.6405165619736518
P 5.692978945680288 7.4969695097193325 5.249200258166779 -0.8707688773691326 0.698383609493765 0.5672357510016295
P 8.510313233998138 2.378882453843534 4.703535982283139 1.010878058819614 -0.3156767037085725 -3.1560034194468223
P 7.517814126238578 3.1526918100435513 1.9334435340124947 1.6611807536457521 1.8094066506660966 -0.3674229830429285
P 5.516429935098283 7.8111531903869 1.1316190508362722 -0.5684541967897629 0.22616554692061697 0.5720097753515052
Ni 2.9115865705935016 1.9533926597859677 4.872638874437061 -0.40362745798794364 -0.7361613424631709 2.0999546776278413
Ni 3.0532754057150724 4.969484505437602 10.807159517241809 -2.013430371382352 -0.8194838539419113 -0.05443359635853206
Ni 0.04382542997509849 4.43731655436525 13.492721213549364 0.13463016061378105 -0.8961299818417406 0.271511579155584
Ni 8.222787334565021 4.550757924050314 4.380584581824241 -1.7173573008373197 -0.8031869165541007 0.537436665362326
Ni 7.153701192644947 6.5294068091766135 13.028241827672181 0.34686855593034455 -0.5875266400401817 1.4536724168150064
Ni 5.1399381588425 9.4258866766429 2.738524518199079 -0.26785778445308067 -1.285359262126483 0.30703214065969703
Ni 6.30367165248489 5.951439021537381 8.228528069881671 -0.9807107912076143 -1.3298758564816195 -0.05435234949863543
Ni 0.6555810617195351 8.590502925255617 11.306167032115921 -0.13058401556886542 0.07127020829989661 -0.672130589334507
Ni 1.12667221697911 0.599051327109557 4.337974460718406 -1.9400636855647426 1.9993980616590017 1.8808581217388638
Ni 1.0983212809732406 4.0931828470743605 3.706787996688857 0.23707705162679815 0.5116433584483059 0.43464113276063854
Ni 2.2430820347603424 4.751556673525198 1.3951172027798757 -0.1565830107357884 -0.6714045098017599 0.37820181882598736
Ni 9.059356294292298 1.9717257633942755 0.7025604627771712 -0.887577207175723 0.1959021200503852 -0.014632662311510284
Ni 8.52298367553759 2.707335666668004 10.693992814886329 -2.5784063798155272 1.7971620289707888 0.34195569200975945
Ni 4.498430035198075 6.476994262585802 10.292416010050434 -1.0067100434848533 2.3110805566065165 -0.8661982272793146
Ni 0.9069853853875096 4.891364225567414 9.547429791909204 2.1079569791070276 -0.4576689611143795 -0.2166496370103817
Ni 7.039337994250999 7.122848150143537 3.735671335806184 0.9974769549223595 1.026162238672194 -0.4537999650772765
Ni 9.002466293972624 2.0156631297125958 6.60301577222251 0.12575779782481566 -1.8038160439521966 2.390072301920387
Ni 5.0342664882751675 0.5780665550008993 5.589141526115327 0.9211673844263425 -0.935278627016744 1.5884874397460838
Ni 0.8895835169034823 8.420500779789764 6.0603662524735356 0.7194347737371094 -0.5155889733596153 1.2231506498082225
Ni 6.14799547766832 5.37008492435531 11.277351419189452 1.5713312396817711 1.455311752190642 0.978299096442328
Ni 0.7623194197928611 9.159120735990458 8.66793653680184 -0.24994670850061468 -0.3445136825449228 -0.7826800548500004
Ni 1.3145559581142254 -0.06635943869960449 2.295218973380028 -2.621547948200008 0.33595268034878917 -3.5606112390701643
Ni 6.568735031950516 3.598960375712585 7.612430436790085 -0.7204495881548689 0.7055279338480301 1.4144780060037316
Ni 6.69403789145091 2.564555687360408 5.629465888279747 -0.24800115473846968 -0.37524942106588277 -0.3037205597879608
P 6.795598958489853 4.0607307139555 9.788727862874888 -0.0466917476295841 -1.6037389665885153 -0.42586955721559555
P 6.106738939738079 5.219253053468078 3.581808717878112 -2.0488216063974525 -1.0078140751823095 0.7514745757814735
P 2.745365804117151 3.5265497899882376 9.16581528182834 -1.6825257949804313 -0.8413030066995317 0.15052034948147625
P 1.2264742843388565 6.8122389073267415 7.9068286633120834 0.7260898171597818 1.765543116513927 0.24337085505530986
P 8.243434416360936 0.3695460791268065 10.178547589106357 0.8498161863768654 0.0026412942775889993 0.3500870628676422
P 6.777519828097258 0.9619188513046557 13.315027442213571 -4.6423573856552505 -0.6945549797762941 1.7857725561869247
P 7.962756387336668 0.32388357622471853 7.964113733078422 1.4248914880275716 -0.43275831391562886 -1.55204976574434
P 7.681532786219388 5.195746421391545 6.692764262806188 -0.6767058674100153 0.3014572176750808 -1.6112465878194704
