# total energy = -340897.14048795967 ev
CRYSTAL
PRIMVEC
9.02001694893935 0.00000000000000 0.00000000000000
0.00000000000000 9.02001694893935 0.00000000000000
0.00000000000000 0.00000000000000 13.20170656206439
PRIMCOORD
 96 1
Ni 6.1562428362542105 1.9117565397272929 11.211391441692307 1.010154550390028 -0.01118275608969687 0.7479668197385312
Ni 4.606098781205407 0.19241410231761222 6.0030270221547894 -0.17883256616260815 -0.11658615862787662 -0.7917169682412881
Ni 2.7374218430452 1.567606808112848 4.724679533726667 -0.25407050086100114 -0.1601884686988596 0.6638642355606567
Ni 3.3495382420287787 4.189482232382008 5.001083525071063 -0.27775601740339906 1.1217537973262743 -0.6622130731104788
Ni 5.174071216606634 4.580905873505057 2.638862822433166 -0.38197105606043247 -0.09596231172993795 0.2051634907476531
Ni 7.309370839591272 6.026562050716104 2.5162853003444074 -0.014674314182723115 0.05676970069087642 -0.14487009317423438
Ni 5.146208383851037 4.637172740040962 11.553565789566553 -0.5671969273438942 -0.4511293602236488 -0.7860145185398721
Ni 5.510066852782082 7.910717338183079 12.499560826717248 -0.09889671176791355 0.25246150450266847 -0.21689492025196838
Ni 1.7683472881956563 6.459279330024691 0.45369423102642753 1.136602946523965 0.021511134598898436 0.8317068783706644
Ni 2.646689491252211 1.4183435654972418 0.49327947797728855 0.6515121417532069 0.15753406179514806 -0.7526585687872457
Ni 0.6074494421471444 0.05930661229137115 4.742369591221091 -0.6451301494862631 0.10826606879795547 -0.3675813629976637
Ni 8.624345009368497 2.458450754840253 1.2734685611903434 -0.537682462824545 -0.8043706524495566 0.5897341892144619
Ni 6.993147080851973 0.7011223195077358 4.799665641705657 0.034474379627785795 0.13782449918136264 -1.464761070529
Ni 0.7893038104709149 7.308008817012413 2.782127753691546 0.3426000104619777 0.1814044406548424 -1.0844293498442032
Ni 7.548509532377406 3.7493685390690232 3.655579303488119 0.9531269680520746 -0.102948513239784 0.40128749700085725
Ni 7.618721345316727 3.9175106774300046 12.570809941620599 0.4252563491116289 -0.29846908158103436 -0.6526521688949213
Ni 7.985845060430202 8.702404237166142 6.880003594625655 0.8439851815173852 0.7829577339914193 0.5248364600998122
Ni 6.802382739658025 0.6825591243601098 0.518264925284832 -0.3105149570019749 0.22742667302122768 -0.9333482427632507
Ni 1.9661833227791763 6.410219457134536 9.331190529712563 -0.6412045891796118 0.3865234513178053 -1.1511682459326495
Ni 0.17089504757334997 4.8036100951741 1.5288369707058864 0.21472696606637212 -0.05420939616286793 -0.28662195243446115
Ni 6.347891139121855 1.7920969931634403 6.7174114727730965 0.4413010612793174 0.5484242747220813 1.6823159929624707
Ni 3.4781456455345383 4.324475807979371 0.4031866453951678 -0.3291793661806976 0.18992147698691808 0.1660287295297205
Ni 6.135226196461223 5.6545765463972995 4.802701779454291 -0.3225253511992897 0.023367213971030726 0.32574771479132936
Ni 5.194492535272437 3.10999364847411 9.058337719091988 1.1482837252960032 -1.9160395547360036 -0.05026480969282311
P 0.32309971775826646 5.536964543710274 12.425077133689532 -1.2712760445605396 -1.3456981682258566 -0.023908174076165276
P 3.9884170316843726 6.216189869758157 12.553991217775962 -0.4314131127416441 -0.23861611397914387 0.47844527442978246
P 2.2524335647665015 8.315941605436288 1.550342495424531 1.2730480488592977 0.9504013415907955 -0.23549659451355573
P 6.429233653136088 7.785411260928063 5.798585629064658 -0.9343103495662038 -0.48898036963315145 -0.5344457010548022
P 4.6190605457472635 1.20881758877994 12.642231338850154 0.09302174104437527 -2.192974618900004 0.5575540049374914
P 4.129625399048846 6.161411306040211 8.248360029477068 -0.7271838215549089 0.08478881161162172 -0.8597517003230225
P 4.624725116472583 1.0675641213300735 3.8163629119164306 1.1447091205708673 -0.5990469819749553 -0.2334865060620624
P 0.3094488239116108 5.444761929133485 3.7198054330941233 -0.0957602230214609 -0.4172702455823588 -0.9190670502538882
Ni 1.3994917298031024 1.2754213948878463 2.5427148523862244 0.6276242793920158 -0.924605206463298 0.08352177197374004
Ni 1.9384648102968365 6.450980914312438 4.8641948438855 -0.33500137217911335 -0.20723142902027536 -0.4423611271127156
Ni 6.031081079272452 5.543016975169972 9.320998812415526 0.13380226539584697 0.47241526618561863 -0.47238338450641876
Ni 8.607152856816807 2.1783702045346462 10.136441730378328 -0.48732303653538656 0.5311634307591045 0.43161288745727605
Ni 2.2004692463770583 5.179131446187691 6.9916903480937895 0.4496304070806192 -0.4712132754577176 0.8146213836432874
Ni 0.655216746589945 -0.07838845842101308 9.108530506127206 -0.02195696388706541 0.593519367288507 -0.12411614845633465
Ni 1.4730589890956385 1.1772385089879869 11.42470402157918 0.4629176111078286 -0.862439788678147 -0.692772948175207
Ni 4.250204987354709 6.680224648363419 1.5872677393389318 -0.9742598933759479 0.9931212490568251 0.30459627752469476
Ni 5.651338360266105 7.9492779111938185 8.04381310218712 -0.564691387313221 -0.8598578868835837 -0.5608247052689631
Ni 5.260392780048218 2.95145782830177 4.770766408987736 0.6093025982646926 -0.4281606672426174 -0.7527318452273424
Ni 0.9951694642577472 7.361398298100265 7.0385691808543545 -0.3826017476658959 0.48629639504308514 0.013644844476944244
Ni 5.005865938126103 4.560944575710258 6.977194278646875 0.7164564078350758 0.5729983645170197 0.05499203996516335
Ni 7.938805671365639 7.346181529288776 8.975562826365682 0.5740779707344436 -0.1968248889749707 1.1790729427627178
Ni 4.427376162811305 0.3578276855123362 10.4350782598179 -0.22405441411488508 -0.7677409170416649 0.05408161233575202
Ni 8.168509426287624 7.155128547548315 4.43326533196188 -0.6272422134622488 0.5502703267918846 1.6788825418008895
Ni 7.177489169886004 6.221087739031803 7.090016652265198 0.15211571899305415 -1.452308446587944 -0.7436705063560225
Ni 2.4551945286749017 5.166187721679993 2.673583574173573 -0.10484264493870331 -0.09271577976818225 -0.12928535136209993
Ni 2.2721062220147874 5.232647207514643 11.472863696764895 0.5740090651697211 -0.7459577597283024 -0.22148073985043792
Ni 1.2153120010764855 3.3572593766480052 3.899084586541972 -0.6857795475765093 0.4130088992028435 -0.5414910379373578
Ni 3.696628499210826 2.663538883154916 2.6362352914581884 -0.6375147990328505 0.3648513656610104 -0.2616303154861301
Ni 0.8196904440050855 3.4828631144666127 8.35120175419799 0.9700718234365294 -0.65278175249425 -1.2844321223265234
Ni 3.8448183597940866 2.569162444462198 6.761531082309338 -0.8675580837413187 -0.679216806757327 0.5231577868458087
Ni 3.9003365649124726 6.821045154993515 6.118489554771999 1.1108692892032868 -0.0010994037117658484 0.1612459634290965
Ni 0.7533725724385686 7.3580879518324425 11.360068383197808 -0.3281491251439703 0.2931139879167081 -0.23566860131504574
P 0.1403812317983721 5.677902310562392 8.11904996664089 0.029446330285575095 -0.5713106924019515 -0.12848959493368192
P 8.333205918124605 1.5600390137839566 7.981039195330758 0.6674031019518506 0.11997692947698047 -0.1886626648791525
P 1.768762208981269 3.1726647271357753 10.375036516134626 -0.049690682356907975 0.22004092208011783 -0.2558044528329724
P 4.111684585079639 6.100120289991562 3.897883120267111 -0.33057341831474685 0.052009817408387844 -0.08378865248188151
P 6.820982014873966 3.8024603595932835 10.436820927117472 0.807004490527978 0.6354154933016605 -0.7960875865051581
P 6.207665953618942 7.6650842331004 10.256247401218854 -0.12101822625730127 0.3873392623508813 0.5681991433561634
P 2.4020936881335633 8.479618835343393 5.771521969822221 0.6363076660986267 0.2500937756014403 0.6782662699185996
P 6.960395398839811 4.020510252449802 1.4783934271958843 0.24081646406457233 -0.05092764008780262 0.3754391684791857
Ni 5.410684304610777 3.0136779061095083 0.19520038559317185 0.19495106899102552 0.04512466025278035 0.22791903927661392
Ni 1.4471625200631628 1.080661186128107 6.9302360697360195 -0.4689656170741214 0.4599240756971434 0.5596741366042878
Ni 6.714347372971519 0.6792226200427594 9.229418579017155 0.05589783960888438 0.4102477915179386 -0.224851970315516
Ni 2.865388825338384 1.7462211863020085 8.907600605685747 -1.1159688152133815 0.6188917846150245 1.1593554097291325
Ni 6.082756757115382 2.1774591828097143 2.38420158225658 0.9476875422040582 -0.7422150048564184 0.8353200496432196
Ni 4.090280084552274 6.780833918857404 10.355180752539647 0.5255028900392176 0.8613686671011553 0.7430783812979783
Ni 8.218011280014627 7.160738998171164 0.20623547448705223 -1.1111528818819767 -0.19934071341828896 1.2446653839515467
Ni 7.432701533106088 3.695275496649046 8.11188085706687 0.07500036476629018 0.3308184444460173 -0.08731800579137865
Ni 2.9399302464754014 8.212905950348176 12.422832051438686 0.7314410541693661 0.5469584888098321 0.28730123788967293
Ni 9.156219336421422 4.863070047755806 10.195216161662065 -0.7410616079782657 -0.37427985806376185 0.6131340561956408
Ni 8.685771325673324 2.4547164677697397 5.706332502392228 -0.6901992739107597 -0.5572598707358403 0.39974303533187283
Ni 3.6644450782746114 2.606649635440592 11.34513754892771 -0.4176813649778484 0.9471193284054141 -0.26499126153856295
Ni 0.9681635331246118 3.2056058295065872 12.54963454952703 0.6066661890831101 1.2021622204820135 0.03635385603868578
Ni 3.2561900852830146 8.445414930581588 8.204161043790537 -1.0717504688249542 -1.1149210906751572 -0.3069812328171036
Ni 5.669044653791271 7.945570684174541 3.691844282152371 -0.5871049791217309 -0.19209971558515948 -0.3081315443714629
Ni 3.0743194809285024 8.290351816984483 3.624805711221279 0.5258471607525137 -0.08649782388292845 -0.04251421921312678
Ni 3.3921758627590166 4.340396138122986 9.181945327131114 -1.3647407866796044 0.40491223823763817 0.5052917051986652
Ni 7.367288369252549 6.145608236118617 11.416783544582517 -0.25092732724632916 -0.21894383236119713 -0.429225361061706
Ni 0.6211111600142941 -0.0927609536339516 0.2661473299243931 -0.16463596294725194 0.5963552940754052 0.0907843670734243
Ni 4.554233683003828 0.2545575099801828 1.7460443939672694 -0.2619463040646521 -0.28537316762902465 -0.809585878101909
Ni 5.995884972632005 5.594142431971111 0.3624802103214448 0.26796062857953207 0.8140917363920623 0.04920037298405075
Ni 7.853909270622463 8.77911046240201 11.348529977350946 -0.1672011525712669 0.239020291396098 -0.07461572773336182
Ni 9.033817704665696 5.0091762843939245 5.796486671090483 -0.5564630858661578 -0.7496982006073412 0.7131869930551846
Ni 8.036456376257865 -0.14859756535521015 2.412150105174422 -0.13809086546887187 0.09489016171168174 0.39761699012780555
P 8.574825115607338 1.7088783155968716 3.4950202934850627 -0.9343108637868361 -0.23128409909410488 0.716199040408631
P 1.8839478270741676 3.247152028170322 1.5062887320129634 -0.46944692758591405 0.23471189382873126 0.15722835762927115
P 4.714510366472326 1.019622730557657 8.159512861253493 1.199773922755495 0.8354833146939611 -0.19514827260349618
P 8.48759253044082 1.5324107014724024 12.427215779738853 -0.50236193314638 0.26448629687768643 -0.061404628359726515
P 6.289513588589573 7.649678043930261 1.480452697094914 0.4248560283494167 0.729391370729189 -0.42770223954896014
P 1.6790310790839975 3.1954492902761564 6.096455457052554 1.0011898849975724 0.009809529891254073 0.5895783803628878
P 6.899501263542617 3.8253712029727636 5.893083837987936 -0.09718692816565842 0.9884464692889752 0.43253617060249383
P 2.330916733366839 8.419085500729341 10.31055963005384 0.8415991977837118 0.2087931170804404 -0.5546491725858704
