# total energy = -381172.7067795724 ev
CRYSTAL
PRIMVEC
9.24870502984338 0.00000000000000 0.00000000000000

0.00000000000000 9.24870502984338 0.00000000000000

0.00000000000000 0.00000000000000 13.53641468460679

PRIMCOORD
 96 1
Ni 4.696511019573914 1.8939221134522657 5.037874255982514 -0.6537569719233257 0.4954220114934371 -0.47753510391068715
Ni 2.3791091904760813 0.7213592394858255 8.279046938281327 -0.7684523412863926 -0.11520856155405966 -0.10749679473209874
Ni 6.114069320803751 6.553734270623768 1.0145866645890844 0.6401717770397233 -0.7076462657426135 2.9792547323964365
Ni 5.925959904875665 2.875246734507068 3.195920617288098 -0.14357348584999788 0.30359868949811586 -1.2744451863171404
Ni 0.30918884061083995 0.3060415062168025 2.0937588876278963 1.462623712471023 -0.6613926340917126 -0.4477794699148095
Ni 7.33962450119839 9.52154204719821 1.166772259614084 -0.903322900045754 -2.4341718633427627 -1.2277580666732468
Ni 0.9841824709747479 7.043758420489434 11.182053661573889 1.2356706366521042 -0.04371980948545374 -0.8635525621263516
Ni 6.2353475926492195 4.760595298199497 4.564235112324537 -2.0510476675144935 -1.1885788253706242 -0.7260288820148594
Ni 8.851908041522355 4.339806955779508 1.7564447343744827 -0.22998543488733939 1.2547482221088455 -0.31400394399183984
Ni 0.7985803790379155 2.2108012524722804 10.695514423843612 0.34470111596538056 0.21625677244733724 1.3965790142361239
Ni 7.050926167052405 7.566088297767303 12.699201095984906 1.4004341263161557 1.0285582497081964 -0.9741274815631418
Ni 1.6922725930490967 7.473222048426927 2.513171022707793 0.09371208224318055 -0.2723929533192728 -0.07299798962428074
Ni 4.359654677230006 1.070204678435642 12.389718146547352 -0.5221576277160684 -0.003180197500194523 -0.42269064526698175
Ni 0.7004164713346107 3.6255386986031413 6.299820316894988 -0.8750839598047186 -0.18912854877197752 0.20191387346210385
Ni 5.041459979005047 0.41862507026375645 3.1781603286108426 1.459612436448525 0.36198689962902175 0.8496218109778724
Ni 6.006284909907152 0.05121563015110714 5.653497672782964 0.08943248103122017 -0.8190894467169699 -0.4191952305192135
Ni 8.539375793966336 4.0631041923331015 9.540560159788452 -0.5889775135540953 -0.6153565177682564 0.16846176445124536
Ni 8.517965041329848 0.3358352852851311 11.876904262093536 -0.7886213600350999 -0.2924012781203997 0.01779717608242096
Ni 5.9590980157596976 2.9865456533958326 9.167997341114656 0.9917405666592146 -0.804261380565202 1.2774446352650966
Ni 7.1430432712681355 4.11884613882991 13.637396229882155 -1.2490041205362168 0.5573460026917434 -0.023277482470701844
Ni 5.1974486416257815 6.273655729763834 12.626862347930352 -0.9681211274680618 -1.6704472665493424 -2.27367280538202
Ni 5.294060616589387 1.550119993471208 1.1582856476835264 0.5823849479382421 0.7150908949461169 -1.2988889211818018
Ni 0.16664779541276437 8.354651404157021 4.49412992658606 0.04535245999287028 -0.4150763232548335 -0.2948029455833568
Ni 3.3132191712677 5.898824203694043 10.48536164384045 0.2575836562205822 -0.8366040585619656 0.8369087342865781
P 5.886236715858942 7.143228245372986 10.603371423253202 0.5814765771913598 0.1308267277072908 -0.14176754298951066
Ni 4.091109271807523 8.031335166288196 11.507806933274123 -0.009214576619732516 0.018940545658244802 0.12326099954489093
P 6.577882640012049 4.7471476807768385 2.136412066465457 -0.604362737760914 -0.928364159285098 -0.17105343643782153
Ni 3.6943953091338755 2.382549708826307 2.6244264726819178 -0.7544025480615459 0.36786392723508904 0.7888347615974866
P 1.5903796073919985 2.0611017094164765 1.4559496766916333 -0.7652752291099918 -0.16403432480751104 1.477403956103991
P 4.0333326101573554 1.9254324522136104 8.53577897249751 1.2179127984480507 0.2586447504952449 -0.6467342607485894
P 2.910771011343676 2.4931919696428513 11.16380596613035 -0.2730295584620072 -0.8083226951187693 0.5658386135437867
Ni 0.08258723833381362 5.92539573385587 5.611967286761849 0.8345970554342659 0.9171271529186978 -0.5166834919753747
Ni 3.6798840906083248 6.567209634162155 0.749639930376474 -1.2656777245371558 -0.4631171287131443 0.2914836514021367
Ni 7.861843394013349 1.6975905985635589 9.661400043005424 -0.04197454465957287 0.5060635503676834 0.27732330074135464
Ni 1.6930032407632576 1.608812276940387 3.8331610328519443 -0.005816349571460951 -0.008008986347405562 -0.4505814581399789
Ni 3.747159172542584 8.58819046023648 6.817412082477102 0.41216172071119983 0.5948501702847884 -0.39040633131197927
Ni 1.0860847053370888 4.58474041671778 10.976340260087145 0.7316752816673592 0.4466983210354887 0.2710444097111784
Ni 2.205742210704609 4.0475201239994165 4.202136278762157 0.24438232703895973 -0.47855711741729845 0.12315635564622661
Ni 8.750274019612046 5.589630738730582 12.512683382229062 -1.8241295586985682 -1.0583704479736225 -0.9533869065816807
Ni 2.1050330593185564 8.153741780173254 13.336684752496632 0.7545537289274296 1.6959202140094662 0.123820985813419
Ni 1.7244118437669342 7.325307505482933 6.717771156546563 -0.8284971131841151 0.6206247081457312 1.0918719221651778
Ni 1.6506071759314396 3.2921413720199446 8.900003158524628 0.18791678785206345 -0.00015760862378682533 -1.0921413737764802
Ni 0.3715445362265904 0.24030910831699956 9.73390064340172 0.36576950659990554 -1.3494730618872566 -0.6127651028919964
Ni 5.149170400259706 8.574964811739642 0.34604585587289877 -1.1017706693361282 1.2855515806429473e-06 -0.059090892624885316
Ni 8.264975958125321 8.602294735731357 6.747415106589963 0.4266066924919363 0.28755474866137576 0.6758748868682877
Ni 6.026909522598024 0.5032423993983083 10.947169843752166 0.9570859526998227 -0.2813632751386832 -0.3745392823727356
Ni 1.0419961274458853 1.198687691665052 13.063682396017766 0.6095188280405567 -0.16683399903983526 0.0014161636212362708
Ni 9.145730158372709 3.5337175529551725 3.8916655676047 -0.655285235642394 -0.20233861970434833 0.9279607531990922
Ni 9.002107014661256 1.4285642604684627 5.203100525399499 0.44584342923436115 -0.44225159811804476 0.7054412876714947
Ni 4.9908325665073665 3.4208648515856606 7.091240348334127 -0.14800812458258378 -1.9006916115250234 -1.1819327808090163
Ni 8.502417967817133 2.1844886860572448 0.8501798304565882 0.4978820429981555 0.6524631928125667 -0.841005530063771
Ni 7.802947639028834 1.471626232077744 2.9706610021417648 -0.3840847599693256 0.3218355242211167 2.588700819763
Ni 0.17410132696772995 1.7016877749860055 7.6140030650173465 1.0345882579523602 -1.481721095422106 0.5269607055316667
Ni 2.537742982796182 4.256485370249437 1.6692433169951642 -2.1941264731162597 0.5269218818739312 -0.0625341139784794
Ni 3.962737243041023 4.046364035844099 9.049553797426027 -1.2502948143231822 0.8258905287992035 1.3858937666081357
Ni 2.7837215474268606 2.4242521207649346 6.2052957747046245 -0.6886049328404463 -0.8304961458920149 0.5628934148725339
P 9.28079824973481 7.661904884080051 12.89824063176863 -1.6457137683584042 2.046683734118843 0.8018897950092319
Ni 2.1955501375273268 0.08168733931371416 11.224435853347842 0.42803674007024345 1.5170010016703228 -0.16068237761614262
P 3.7610414791116416 6.639654742326995 7.922349348580591 -0.9769492672826531 -0.5249171927390767 0.29695084516429504
Ni 1.1310519102263337 6.184359480647078 0.35539167252048864 2.3140334685872532 -2.18755164811222 1.6369997855241742
P 7.916244278249988 4.430018826715275 5.729327807066576 0.2157888316719832 -0.3893287819770843 0.674048118072194
P 6.687341066557547 1.3204653935936181 12.800575229277896 0.12382741357132222 0.59601693689938 0.9198448089601771
P 2.8875197663639227 5.225879161541358 12.647384299993034 -0.6982442557024233 0.33877729428177783 0.32256006109196705
Ni 8.143799422037521 2.9959793327432265 11.938048377322515 0.026392116840283576 -0.7747335463094142 -0.632063288999976
Ni 2.4609602318725887 7.708601596849651 9.453399436712198 -0.35222339248435464 0.7531735607504513 -1.5786761100826165
Ni 3.1465482540918295 2.428460281650292 0.11070052765957214 0.1669838943541382 0.9348389683761643 -0.3546955081739311
Ni 4.401523565863 3.9314488732054995 11.85972664184656 0.20925025922251703 -0.585277696105005 -0.13449697747002645
Ni 7.6849156627234985 3.0181392305043597 7.36440548202526 0.1702078006080746 3.041150698570285 1.3325338629297567
Ni 8.212702276094467 6.42754493629451 10.16281582311833 -0.2744876310647725 0.5566677456777962 0.783362939849638
Ni 8.514071336422736 7.005986708278888 1.5252428261098154 0.13559818095400517 1.0653887882729844 -0.44883567909346567
Ni 6.635502073673093 4.896625254906821 11.135637184573136 0.5215809292769921 -0.7944690770651285 2.117428923153205
Ni 4.69394912822173 8.828101874228048 9.192416697566543 -0.8099664013697792 0.9491610414257912 -0.05721501575841114
Ni 4.215310134509635 5.292044398846512 2.8878860150915275 0.5997326951880703 -0.2660112181626451 2.0023599725008028
Ni 5.704314683738118 7.470438188148922 7.576886161137972 1.3420364031035532 0.7835632287859021 -0.09286978884754328
Ni 4.71282573562176 4.127549170463142 0.9819304112481887 1.483470474013045 -0.28444705627032946 -1.252881858324068
Ni 2.5792974154509287 4.7385371361960305 7.129711262661009 1.3321749369284412 1.1193158773087433 -0.9798656695984995
Ni 5.613649626245467 5.492917028009308 6.539942601366088 -0.33204666042616365 -0.12063256078310836 1.7199823971649928
Ni 3.072743586256335 0.10375659976347071 1.9716732038147535 -0.9835485177667256 1.0053764122750943 -1.3007511712015212
Ni 7.576668816564773 6.023700221878862 3.455102633523031 2.426796396814298 1.758549458804913 -0.9938362728459789
Ni 1.0648034345739967 5.7347244265756 8.621627304299844 0.32145191562945286 0.21515556896335852 0.9409767058427858
Ni 4.758930531255838 6.981588623849059 4.975634169182295 -0.5281945779387677 0.35401699404966774 -0.133956274475208
Ni 7.10007378671128 7.001232873784221 5.509226194834008 0.42839798006440416 0.5244687923477483 -0.07675745666671296
Ni 4.312060840051879 7.604451927113373 2.738335376190128 0.5060964604881478 -0.7075292805487751 -0.1610965823354258
Ni 2.3551457951926515 6.422495143232081 4.666165092802606 0.34924014148631466 -0.4497263092285352 -0.7072801406524464
Ni 6.07893348958733 5.365978548555403 9.115083648681019 -1.0299139924051424 1.1604841240169368 -1.8053836455496326
Ni 3.0052002918700422 8.745927128148052 4.485832913112975 0.3807950334744603 0.13819679491911682 -1.0363412360877247
Ni 7.144051380139572 8.580282817254103 9.229208971891904 0.8652677450452453 -0.6613129298937127 -0.0240459852056102
Ni 8.100469237976206 5.881260912438454 7.983303865352096 -0.7004584897449226 0.25192131572848225 -2.69675605810173
P 1.697007930133279 0.29117976176255983 5.905829173044746 -0.9477006548301807 0.8325034061300308 0.9732394225312335
Ni 0.9514790492371152 3.7428770220152865 -0.1629057692716314 0.2164192661671305 -0.17255933155938669 -0.7476467173949511
P -0.011945627691268777 7.823720231003586 8.588056354010462 0.2928000562207151 -1.7875455889269471 -0.727985748630914
Ni 6.9288617552613205 2.4360997121806323 5.3429446481488485 -0.3928748474571298 -0.21644806252253693 -0.7559212986989174
P 4.0732315245736865 4.418272971057245 5.149333177471974 0.2180056368176439 0.07672788898035818 0.5791196469234091
P 6.9135458993796695 8.568842168869077 3.735441063000282 0.7111807612584332 -0.22566135359068876 0.057245611886030445
P 0.9815003464544103 5.492926276714551 2.982626976984567 -0.08426842033177745 0.18155073642471958 0.3632984193515937
Ni 6.68145889002329 1.1306634646061469 7.671330239592727 -1.3977054145310832 -1.525016929996264 -0.18608667662186018
