# total energy = -381168.27241749177 ev
CRYSTAL
PRIMVEC
9.21300929611496 0.00000000000000 0.00000000000000
0.00000000000000 9.21300929611496 0.00000000000000
0.00000000000000 0.00000000000000 13.48417037011779
PRIMCOORD
 96 1
Ni 8.891318427261687 7.154601727487866 8.957601420978222 -0.7330881028544859 -0.21528849499679698 0.5254578957338951
Ni 6.573362198600182 8.392774867739437 13.036819648163926 0.9223878870970049 0.8684142610940269 -0.4121997730379869
Ni 7.02767410160244 3.6510049362621446 12.670211906254714 -0.7383694058580832 0.27797816071653414 1.3706754069964844
Ni 3.312242592950313 7.894028622017762 1.9678121339510488 -0.5089318730544139 -0.36052368481993396 -0.10001642719465356
Ni 8.241036608442569 8.907745222424184 10.725808185735449 -0.6346133091153394 0.8300752563045123 0.3271605359784559
Ni 9.018632999527833 2.9662203984954383 0.3269954881342989 -1.35957749731111 1.6436558573881113 -2.332497588829712
Ni 3.632947438495183 6.686028086453334 4.270396456987974 -0.7605140602759225 -0.5290240158185986 0.16382760811334365
Ni 6.452072934262399 4.651915454068527 4.0854876798542845 0.7081201200552385 -2.9787166005047796 -0.9801834579492346
Ni 4.583564139816951 3.2861329252607367 7.602226828510909 1.0215046852955247 0.7777314525954734 0.8566172684590988
Ni 5.143954629191046 5.1641034800157115 5.709103637747097 0.6275363476638999 0.12476098112918511 1.3898663781026386
Ni 1.205826265425141 0.6480624049354142 5.6284676972085474 -1.7978423428672652 1.3200992367108297 -0.6634202060447026
Ni 0.48533578972698654 0.38752311508806747 12.416399034325561 1.180945220084766 -0.8528739993665829 1.1219633422339192
Ni 3.5661346967574237 6.12600611744183 7.195678849704079 0.2330692160189857 -2.0599951065157684 0.545956272797563
Ni 1.1892981271629322 8.63939790739444 1.4388287924787773 -0.9545223057377045 2.02273622216431 1.7769292468636815
Ni 3.4466419691872727 4.55717808185543 10.454573513664805 -0.27576084135024115 1.3910521708806236 1.075231228284703
Ni 1.1911775810121463 2.835552290929713 2.0308779449021634 0.991685287941247 -0.4712317874004788 1.523601537705976
Ni 8.737553305970568 1.4137270279808873 9.535761962236457 -0.7927142991575509 0.17271899706570254 -0.8036034352662288
Ni 5.659763367700686 1.244373495352166 2.1591396145001687 -0.36948397933701527 0.9898322938929083 0.2593191508544502
Ni 6.807833279298743 5.944307152666308 7.234904157098271 0.3424434302794554 0.8331541523401522 0.47931482151892935
Ni 0.8313764101999913 6.281466432400868 1.7582410528518586 0.4066850138673448 -0.8769721779663671 0.43888216742517966
Ni 3.316674050310471 5.923964828651282 0.72259196306583 -1.9421370231540038 -0.3331445214760327 -1.2878010387987562
Ni 4.960680239865447 7.648741468677153 6.324844042980556 0.22723923960076992 -0.5006192394236604 0.041777855267734504
Ni 3.08093157436097 4.738545378304621 5.315176560058103 -0.942898091235215 -1.4940600766034333 -0.10520079960907042
Ni 1.5011308449784218 3.3186824862865922 6.096489479000099 -0.6562671399396891 -0.22340443923571202 -0.04635519022577178
P 7.698445652581621 5.154521950588343 9.829326204377402 -0.08232646611405822 0.20900291909840135 -0.3617066493844416
Ni 3.446126040679645 3.581704682076896 1.0838506319120327 1.1876403727167546 -0.6076948874579405 -0.05183292551089138
P 8.104610370211358 5.601122565003384 4.886312830694571 1.1527808418354082 1.3697932615018475 0.9383778347673581
Ni 7.342243083110168 7.032704404551809 11.17508702188562 0.2018233706308266 -1.7067216755003447 0.11435521241482885
P 4.360701450540008 3.5912677854861337 12.297266535409843 0.6157349841535976 -0.5321129391565675 -0.16208542861125633
P 8.468542654288159 5.362376648098766 0.4067690910243856 0.5158409414694213 0.08490502547451184 -0.04572347017904384
P 5.758969049310199 3.6685280795033495 1.8185429610835402 0.6692362985058474 -1.425823512923538 -0.4123902917822382
Ni 2.429350721263718 4.592896917999569 3.1030446387182464 -0.4562494550590336 1.3172391415542153 -0.5209672069523932
Ni 8.319789409928278 8.0200902250511 4.593516953509629 -1.129104581264391 0.13846033299314864 -1.6243083060994348
Ni 5.6655767764205605 5.531112909120147 11.289742919696764 -1.2954289876576592 -1.3564384374614962 0.38254518339634763
Ni 6.374775788208924 5.874712082190987 13.341453320696198 0.6783716851482123 0.6309420309113392 1.2237399466527892
Ni 2.433837456678264 8.172906406408547 13.09312955956784 2.0717273073510323 0.6291376307127488 -0.5590280183798565
Ni 5.202365106661728 0.14611279596191623 11.285886354102248 -0.07917377941768945 -0.6626385906836717 -0.6944169115365331
Ni 7.114681759210189 2.8829163705317287 10.594553209492299 0.2766614987876396 -0.3734856442972407 1.3728166217092035
Ni 4.522122582363957 3.362029693936366 3.5357916514025827 -0.5023956145977929 -0.5375035140445195 -0.19259979515002956
Ni 1.2119805554804117 7.09649527931632 4.020332358447279 0.14651071410145092 -0.06152726998051984 -0.7769079282529135
Ni 2.567223401918098 4.269271548581165 8.353267642267863 -1.4353862169113085 -0.5327783406547082 -0.4643875107851357
Ni 8.986470384882699 2.2306998198090073 7.494636387351544 1.1977142120129889 1.3298074651375291 -0.8300803985108349
Ni 7.809149169503976 0.9743309866545022 0.9733369029764128 0.2838755000375756 -1.2167802275055046 -0.5474274580264508
Ni 4.72392433291882 5.473006460948603 2.3453962548600353 -0.5154460200238478 0.3154643305874502 1.1321089153083534
Ni 5.818116567506065 0.35506660545376645 5.532473670559014 -0.290082657289552 0.08511971258847921 -0.9522242537321471
Ni 4.551687128452824 2.652471374794475 10.142186172703616 1.3215421398049434 -1.033929798432755 -0.3267800127105856
Ni 5.45637697958668 5.045292515116353 9.198172434978572 -0.5427308238817298 -0.6319229067673697 -2.1151604388340024
Ni 7.2458657952835415 8.52415237700315 7.7126622468694785 -1.3011643474795396 -0.9736148035927813 1.5737745590159413
Ni 3.303434956284387 1.1860920000083897 1.7072710015018893 -0.7644254795151867 -0.13084292565720693 -0.7070029757316599
Ni 4.563802235373005 0.5814670902115837 7.548667921613737 -0.24618544168596956 -0.34093933493010314 0.38338979078483
Ni 6.704002667138712 2.2109931934194504 4.410590815926678 -0.558714858014812 0.016474857726571628 -0.38314502176387566
Ni 2.18339101826138 7.744971348358742 6.241053568138226 0.8109835297803839 0.4396815233980234 -0.8292671585809203
Ni 6.095520270446484 6.826821290981249 4.063967011979873 0.8402126018488303 1.2222687614239014 0.4772759367120296
Ni 4.667503865406129 8.56140057265204 3.7418839002789133 -0.23408325910579686 2.5049928999203823 0.04164570056524441
Ni 9.019277910162367 0.7875869781151088 3.235486250528941 -0.377845206817517 -0.37319510964001534 -0.28562385018725006
Ni 1.0058210516379082 7.661363291095896 11.287234217328423 0.4235231684706061 -1.1116467907992598 -2.837463278147526
P 3.717006933202203 0.5575971050256544 9.712134886471631 2.1110045076841 -0.09067895184381158 -0.6474315439259302
Ni 8.986000521420396 4.655904686993575 7.660020034374252 0.5666271708833531 0.8384038307748658 1.7262345487222917
P 6.493061611591591 1.6469912044919632 7.1172420544292905 -1.4074894905010407 1.9554573944119935 1.0379504895563736
Ni 0.36731622230629324 7.428808516282809 13.29247880710966 -2.7916379922832952 -2.534151009541578 -0.1517141126792613
P 7.965742684577982 1.5120758997473762 12.283715120376462 -3.0107103798025565 0.5068649632230561 -0.3349818317950876
P 1.5130985437535664 1.7569116156438116 0.2023895405331969 2.4300228741713954 -0.29965873101376134 0.05060856618548704
P 1.221294907644901 2.6785902554931162 9.370581001413173 0.9378219622638881 0.4113492521122335 -1.4865442278423624
Ni 3.4321406929193143 7.215324670233807 10.51616892836918 0.3699064115864145 -0.37536254960497933 1.228096423849272
Ni -0.14427756455621274 4.555528953232836 3.1638449707403327 1.115750528554988 1.6463082074092936 0.9744013040498185
Ni 8.952529659488063 5.047079838874921 11.727964302367388 -1.4596499745546796 -0.49738890541182085 1.8107716493344233
Ni 1.7151674715713092 0.40120811875288653 10.047352063895337 -1.5099757193924255 -0.04322924300228039 -0.22481597487125798
Ni 8.9775245530808 2.6777518716682214 4.623627831036038 0.7934133821071045 -0.19876812874427058 0.4606218730951164
Ni 7.9635499884205645 2.8019800858976676 2.3722024260349093 -1.9168283691858858 0.19333718753668638 0.36934591109725423
Ni 9.067590929698055 7.513724820832853 6.576458690946854 -0.6847143395367885 -1.4343302648429685 0.3604025858610374
Ni 2.127707591473871 3.9376124352582766 12.578060625686101 -0.3916512594626738 -0.8758372930309755 0.333083072110478
Ni 0.7071177930406315 9.212962999731163 7.6613817171140255 0.019971558025920443 0.33361889000928996 2.828853682101644
Ni 4.314470571052959 2.381268026954649 5.5955938382636115 -0.3580376851732866 -1.0902855515146643 -0.5772854219281477
Ni 2.1075126756038807 9.40132297006052 3.5657947367229337 -0.15750449410879325 -2.117441778669012 -1.9906753370740236
Ni 7.04146597617241 5.471449462416655 2.07068275056653 1.1701807824794104 0.14229333358599364 -0.38702455932393987
Ni 5.439987036460443 1.6684483026038277 13.236209432945632 0.5662566749178118 1.7169011871365074 -0.4500852352298506
Ni 5.612076832781403 7.6214433228182195 1.6903347269381108 -0.2645688292891637 0.3272042447321977 -0.40295845694537696
Ni 7.975508474186645 0.6712893220886222 6.214341369655814 2.8683116309869505 -0.3041854152395213 -2.998788174443674
Ni 5.764137547395539 7.349641129389184 9.411721693391932 -0.13151372647198642 1.0121870074390245 -0.4708769751642213
Ni 0.5400896238998597 2.451314534874145 11.408915955852367 0.6751794034631599 1.6390073028725063 -0.017343119264137872
Ni 4.514070412441341 7.1724749650735315 12.668633717801917 0.5130096426682133 -0.5041161968333253 -0.9785145548872439
Ni 0.9551218627544432 5.610768585494205 5.860112226726034 0.08812584640465468 -0.43124084882983793 -0.4974182159878595
Ni 2.5993030994816495 1.8363277537821847 7.40948422976944 -0.9296499679760571 -0.2264321703184423 1.0558883049817172
Ni 6.97432156610832 3.3520151530829536 8.485115936294786 -0.1854539281338677 0.2983181578254669 -1.530525518519319
Ni 2.318333962033161 2.3231892178102984 3.9846936754820037 0.464452045474484 1.4335987859935828 0.8855509207743135
Ni 6.238119224751095 1.0539590240013654 9.20287844000886 0.20028199428563573 -0.4386638807667865 0.4777587898857191
Ni 3.135481801033512 1.4914571854604066 11.736621766985559 -0.47445723631631187 0.37289377634951265 1.4067646965198741
Ni 7.890656660700054 7.636478953611935 1.3063263748082552 0.8325424868980823 0.08076272117136413 1.3080705876810699
P 1.6369305985932272 6.426875354470235 8.257719525257064 -0.3136969542743823 -0.18935737695333196 -0.9591340934781029
Ni 1.116174474215801 5.573981040298552 10.164461386020431 1.6225213894023414 -0.8457998661286208 -1.3354631207614098
P 3.2176157768459936 0.33988817301954716 5.292334746683803 3.0241081412657014 0.20558926543116207 1.2278472839529433
Ni 7.431590845020371 3.804033016828082 6.202569907973748 -0.44885907613223336 -0.43227623207288784 -0.9992073073499049
P 2.4917596446685137 5.920436246179472 12.016593135552332 -0.16907008745920557 1.8907044184053243 0.18044670472726343
P 4.551539720307787 9.053006736348514 0.12972745934021124 -1.307413156602729 -0.08348140565410783 1.1100393371028239
P 6.956651014722079 8.99821697144029 2.905096689855178 0.9111195132720373 -0.9740742597277032 1.0066907602111437
Ni 3.1862178419532357 7.952549655597222 8.458107078920486 -0.1460584570553807 1.9419128229583393 -0.5234426650760792
