# total energy = -340892.61463630846 ev
CRYSTAL
PRIMVEC
9.06427763313018 0.00000000000000 0.00000000000000

0.00000000000000 9.06427763313018 0.00000000000000

0.00000000000000 0.00000000000000 13.26648654731480

PRIMCOORD
 96 1
Ni 6.086870792934239 2.1456776318336193 11.32232222046723 1.1715923181149563 -0.034628902927779065 0.3915191047601838
Ni 4.7326314832642105 0.36470573575157605 6.138270684700289 -0.6904998358703139 -0.2716473334024999 0.29923064233740726
Ni 2.8991275671613335 1.3554176657398609 4.84075471694871 -0.6592066821839874 0.8610398230068267 1.0414500180692
Ni 3.235956117583935 4.27609102042419 4.55959805225917 1.1627035002657589 0.9856905038103927 0.7952990291655916
Ni 4.911424356167489 4.452626888239868 2.5915548786694105 1.2171900613494133 1.442829046342599 -0.1702741350696358
Ni 7.080016481420599 5.966932273580315 2.6260480801166164 0.3556061929136586 0.5610820726954079 -1.0260221135499041
Ni 5.062788725476073 4.508308744678136 11.589668552018344 0.7292561307029054 0.5811726727976959 -0.4839057833237214
Ni 5.650552733108021 7.797454042398772 12.340843353703537 0.24891106814724875 0.6964146586928522 -0.08263242739025124
Ni 1.7129852829914964 6.6701389189459075 0.5125005925963176 0.33355332687867717 -0.21144006778498425 -1.7253254066444608
Ni 2.6703633326197402 1.2822689466357062 0.4366090231326935 0.4826485138778527 1.2012062843266476 -0.06152881264241662
Ni 0.6865437841104285 9.012493243111862 4.725098162267003 0.09685628429911708 0.15767521535870266 0.48178333766408
Ni 8.580281300975132 2.2254251449288303 1.3810015888713947 1.3085115318732303 0.09678172230743978 0.9824164610448113
Ni 6.917666207830202 1.0004605603967753 4.860575572471022 -0.3180143507028136 -0.4691563929286888 -0.7813677637964801
Ni 0.5861478469607857 7.590661616420806 2.484494884730997 0.10901657381073483 -0.4863573301880075 0.3384129689638236
Ni 7.847289439875183 3.8798098741398603 3.780776297892492 0.26548928422090406 -0.4224620741959434 0.375525814655721
Ni 7.827601829231537 3.616465421087443 12.81034482688396 -1.40100568254891 1.4753792123644784 -0.7527069055266778
Ni 8.212969585453736 9.070894382788202 6.696723538309051 -0.49306919499054436 0.27349544235483225 0.31793258962228477
Ni 7.08639773275261 0.47215640004852544 0.27264258887113385 -1.1606131933956334 0.882520875698738 0.17042917259026133
Ni 1.8340568370279515 6.544272362132983 9.09994720490377 0.2761933009019695 -0.5981992892626794 -0.7351200456828502
Ni -0.008652759263547229 4.950853963119542 1.3756019987883283 0.05963776626729085 -0.5399265216637152 -0.30408925598128916
Ni 6.535443755886707 1.919233852321848 7.029207580544957 -0.3603185107876633 0.5891880869030046 0.7167965647833139
Ni 3.451232707264688 4.482548068136127 0.564268494027253 0.029538632889065254 -0.34028524628587203 -0.7088662541926437
Ni 5.913453036564886 5.508914333514275 4.623224747891341 0.6558097406872962 -0.8781356021468488 0.15211597610337027
Ni 5.197039738939721 3.022664604666975 9.177410520079002 1.1167789698195025 -0.6964766222790392 -0.20018712057898427
P 0.16001078357790996 5.6893840977476975 12.367735252072585 0.4294971266658538 -0.09606361319449261 1.1864381248785374
P 3.9143900926506845 6.239259425595833 12.5266275038119 0.5164366660718912 0.07488209402087104 0.3398335034604341
P 2.306767970857044 8.547930894719526 1.546195326301071 1.4664351157973132 -2.123243987173085 -1.2429643421000398
P 6.439489314692583 8.084836959275751 5.931007822722137 0.5883195682551223 -0.8816788394134171 -0.46218407537591366
P 4.788694039355809 1.0653970441219507 12.644182118193783 -0.4489367234477043 -1.3520786178309037 0.6325409999673429
P 3.787626172369197 6.026974047476959 8.1047747439773 1.5250647525150638 0.5915717566438329 1.2367381586846702
P 4.832392920991636 1.2110418543531227 3.840793598239994 0.010764694715671784 -0.8620906328688444 0.33420330175785024
P 0.34138788198510295 5.652519681316893 3.5121827217628483 -1.107268716336222 -0.6734631921030014 0.09591628898335094
Ni 1.689844182635498 1.0169394168194958 2.7041214211649205 -1.3659546044820476 1.3959457515274991 0.4274014204790897
Ni 1.7240074443831508 6.855820642718969 4.747013772310377 0.47103201268484685 -1.7393646583463465 0.33095265603103646
Ni 6.1325366227789395 5.552350351103756 8.993509926826876 -0.9201106610270542 0.5471662339452641 1.3040146724441413
Ni 8.552363326397586 2.4198176393411845 10.522791311387135 0.05025683927302312 -0.28255266746109403 -1.156429751441905
Ni 2.3044656443821427 5.320939347543772 6.779625419960426 0.26956551117280675 -0.4761446513210638 0.03548585161143566
Ni 0.29280969979242677 0.22663684862167444 9.332270074776256 0.8176696835513079 -0.2934551733062107 0.2486462445216363
Ni 1.7375222820763718 1.199938114464326 11.416262579209688 -1.2145729354415407 -0.052271298599890624 0.5935090828758618
Ni 4.088569248326699 6.809629084781575 1.5455853004279967 -0.39019832906623125 1.3711446333234194 0.6010226176440875
Ni 5.713377240184959 7.740947336711622 8.028904022351835 -0.3068611622994715 0.47999976340109596 -0.06922798105888724
Ni 5.131396241572646 2.9186973421979965 5.227327115645374 0.18942165453236412 -0.2648377666798342 -1.2227953233513327
Ni 0.6166844912965957 7.422564590920613 6.813932803719697 0.4845066501325139 -1.2054712302505886 0.7148502396902205
Ni 5.026794479681451 4.465634126395315 7.097968282930609 0.5796986593553307 1.1226179450987828 -0.02350991019648209
Ni 8.063508714411801 7.2829928465878035 8.83453790944591 0.9487314100875401 -0.4861069047400984 -0.30828478211987553
Ni 4.401286820705056 0.5598124952277979 10.53145404135589 -0.3047963093506428 -0.840699568787578 -0.2540249923350464
Ni 8.102793292924492 7.166897580877022 4.540667308783455 -0.35025521301439033 0.3686614834357199 0.6037652133862311
Ni 7.269731808663469 6.121088440346654 6.798344965771319 -0.12063616032753417 -0.6406613150816322 -0.3148313249891417
Ni 2.2342174940652653 5.423329425734669 2.425034131019554 0.010452305681575548 -0.7580483723442494 1.6711548341393285
Ni 2.2945311962857167 5.180298018470653 11.586259477265546 -0.7754927930729418 0.6804702195484539 -0.2742804001499728
Ni 1.4138822553584234 3.2068779154914777 3.730827596947827 -2.0553815190031575 0.15345217841629055 -0.43307867336952516
Ni 3.5818942668540794 2.698562299798554 2.6789018819872883 -0.37578575318532703 -1.2160420637878993 -0.2760511188971504
Ni 1.152704164619004 3.4587288647243075 8.16942298367924 -0.5033199261842751 -0.19104993416440647 0.039667750903267164
Ni 3.708214037540015 2.6711519247587816 7.158463270700266 -1.376618769064113 -1.0028826993189632 -0.2754628504938482
Ni 4.611233615239186 6.6934431762961895 6.041253003760079 -1.4953266020206828 1.2602730085818168 0.4143127056159316
Ni 0.527295306266925 7.2844068738716015 10.834169183556869 0.5209972888593802 -0.541199474838868 1.2121573840215123
P 0.2105858260950775 5.4488363025077895 7.828633344006513 -0.34513511817900566 1.1098732438386048 1.4760680109013868
P 8.499446074584691 1.6647180055157063 8.026768478582202 0.38409915814702883 1.0004458077426963 0.5017947477890004
P 1.6491002554517091 3.2662489328560644 10.560971860905168 1.1625410065459656 0.404834076701535 -1.7354761219252175
P 3.9154959345008344 6.2370205490631525 3.8646335543881767 0.25806368118079426 -0.2079888760115902 -0.5458554855536406
P 6.9132337761521425 3.919973687566194 10.311257361869716 -0.5021325907443933 1.0562184346276262 1.8122258652824468
P 6.458089212041 7.58408095098467 10.171653892565795 -0.612580497685016 0.6982933637728038 0.5901854178192675
P 2.4781009434105425 8.381093803786309 6.242425577712695 0.4822762181400984 0.7359921638751583 -1.629797354238464
P 6.981342756988403 3.8918200417746815 1.6735801495885854 -0.8666641111721397 0.5079535683015445 -0.5641280586105833
Ni 5.1424909171839825 2.7132736221165272 0.6487774720723294 0.6391525917465896 0.7714168232313553 -0.03284121489973699
Ni 1.6738819900280113 1.0218794480353277 7.343995433895234 -1.0394813243786034 0.31863218679247063 -1.4030540804375062
Ni 6.800682642928315 0.5917124068936284 9.20765801396383 -0.028189575060338548 0.17414261688610655 0.6632973073135932
Ni 2.736668522241412 1.8624914754207313 9.244246876359844 0.41562653933134874 -0.416684805392534 0.8057212529401802
Ni 6.511532191946588 1.8849527549672118 2.6026323321535725 -0.033594033905361496 1.1218268166560552 0.08906378483789176
Ni 4.2382657905826 7.042445051347896 10.376647965895652 -0.36836323546901073 -0.6556716724475353 -0.4597070745903309
Ni 7.979383155303293 7.190500959383492 0.23597124155023189 -0.36137909084169373 -0.6444752895110837 0.6182454092802772
Ni 7.5784882917917 3.7970530209278492 8.321045684895441 1.4636503539633243 -0.39805870565091445 -1.4542653132039987
Ni 3.2147729011593484 8.337050479606992 12.466570320643573 -0.38352914457617177 0.04128008969570955 -0.27519905530950023
Ni 0.051273898309352195 4.847285528858815 10.335017552376248 0.2889716836135604 -0.34914989576535355 -1.1040018726594922
Ni 8.858146726518857 2.4139349232694878 5.776877942360432 -0.17466275105563467 0.30733835904620616 0.9789963796196687
Ni 3.5807793607264693 2.7886068320886 11.763937444041213 -0.2763326546933112 -0.1741775838891 -0.15271864268437568
Ni 1.2179035123905262 3.2328742632474525 12.668632100215039 -0.49045412596520044 0.6893382114620451 0.9513716759238648
Ni 3.365892534976507 8.279845824555403 8.263349746005508 -0.29230409042090305 0.8955741093382705 0.15672030764460104
Ni 5.732756665394957 7.997511710223778 3.701044194068963 -0.6189218665220115 -0.2325989612507865 0.704004298114652
Ni 3.1725333681946197 8.289689629877227 3.7386546005347463 1.0231077681165863 0.7398171940482033 -0.905714283096066
Ni 3.511056938502286 4.382134002431564 9.597957643552146 -1.2045525750910608 0.9769186711550338 -0.5576007990150268
Ni 7.222343766101322 5.970630498784094 11.445156776469702 -0.33230274230102774 -0.4391158807025405 -0.19710591055049922
Ni 0.49387531527101186 8.860566888600742 0.19216812072361134 0.6463658216655771 1.1307207767115752 -0.1636676854967117
Ni 4.7532255216538815 0.4360796693290154 1.7363838088273655 -0.681437982778362 -0.6162090955765388 -0.49531402516066314
Ni 5.819646829128839 5.712960283421788 0.3526593110069141 0.9363587474548004 -0.9959108959868204 0.5650076330020591
Ni 8.055269286200442 8.802718669849476 11.417336696088727 -1.2046631325269963 1.0458738581685085 -0.14487780648371823
Ni 0.2287134745878159 4.965664992489578 5.73179857126741 -0.9226267425806884 -0.7406337764122276 -1.2778159025615865
Ni 7.737738582490696 8.848964613451631 2.6016905537254535 0.42914848507718345 0.5119416064150151 0.1752016542782402
P 8.80958939216434 1.6280801960214073 3.763410048706414 -1.0140407728183118 -0.1419053541189556 -1.4062790151327071
P 1.812746720718922 3.188432110859885 1.4711204482366147 0.22258528576852635 0.1669383858281835 0.7690318679389465
P 4.767148251832813 1.061744140305473 8.378144287900746 0.31541162297264386 -0.3565078787923215 -0.8372342359467968
P 8.72315244230347 1.6880675842532904 12.492837690295609 -0.2962219374180705 -2.383739160613507 0.7360142753623453
P 6.1445105333039205 7.799919525867958 1.4880887756421883 0.701134689876341 -1.1260886772562024 -0.635698314649402
P 1.8638601813172282 3.188966903230039 5.912753274344955 0.7721434169847348 -0.19676292538878373 0.9936434401088824
P 6.887763156488862 3.9699269206495886 6.015024610501122 0.8850742382482113 0.18732414857338706 -0.6488826745501598
P 2.2453212339540616 8.625067895906188 10.254569370633362 0.7199597930026439 -1.4395552606873336 -0.6997298391090142
