# total energy = -340857.59633892943 ev
CRYSTAL
PRIMVEC
9.33757798214942 0.00000000000000 0.00000000000000
0.00000000000000 9.33757798214942 0.00000000000000
0.00000000000000 0.00000000000000 13.66648923371702
PRIMCOORD
 96 1
Ni 6.509813827632819 0.20924858463167456 12.08966372228997 0.5525609225982742 -1.0625400059702799 0.3940593546835342
Ni 8.823927085614935 7.77828643623168 1.5911895724626932 0.4143286464555315 0.738900852881521 1.1502148808804449
Ni 6.728350501010376 1.9494808406434716 10.039731086019211 1.5130890682104263 0.44337337042731384 1.1350294313892582
Ni 3.273110521949615 8.196217748273755 9.102810657501486 -0.449342186416239 -0.24952324780995092 -0.164148224677556
Ni 0.6088474299654031 4.972801815954774 6.676038588291906 -0.945839690362042 -0.7686531444432891 -0.47677971380190143
Ni 1.2849067457183494 5.484986639408279 3.8912731196368373 0.2759768140157892 -1.1816121642448039 0.3352733948935774
Ni 2.895554896785191 3.4710951863499044 0.14251571659085271 0.33012321815120566 2.435618108870986 -0.8282181484911156
Ni 6.068809360578098 5.137031136214752 0.06118074421624927 0.8947102186760785 -0.05571734816696211 -0.8388859126176068
Ni 8.07439036929764 4.5447952573491035 11.2784065497533 -0.11355148556661089 -0.17532789544345934 -1.9507103666453116
Ni 0.730568360553358 2.5278784290482776 3.8935281447018126 0.12158644005594543 1.1978383962956791 -1.0168378759474745
Ni 4.851413303140373 5.8149206172378225 7.762251947446688 0.30315517420279403 4.625953490375929 3.2360472601742916
Ni 6.216203027868508 8.880419431963176 5.152785497662479 0.5102505918658373 -0.15170434248724843 0.8572088792965109
Ni 6.210955309083762 1.7688827463093684 0.13946419613025685 -0.7162743737312568 0.781141506718287 -0.015248441518638255
Ni 7.23377491805791 7.295514983190896 3.470318299867892 0.8757557890607627 -0.41057252184720905 3.1738926410224177
Ni 6.013726988494086 1.5774437240231485 2.3847062807304362 -3.276007345506997 3.8864219458889453 1.4367967241055901
Ni 7.5200090312742685 6.061385986140602 9.152980529847678 0.8224336805988547 0.3919857599839572 1.7847145472360553
Ni 7.885621894293338 7.557592782357189 11.514481995716956 -0.3038912810378702 -1.224209687200356 0.33225209156875035
Ni 3.1938718358155374 1.4531885747907451 2.612581465774585 1.0939108069720773 0.23221535265912266 0.9981999491313132
Ni 3.967592878916624 6.050899886149019 1.3115291140941294 1.2346172556869253 1.2962350284987225 -1.9338956090808175
Ni 3.480834280108783 5.486751441633042 12.740119399416987 0.3430728363333382 0.6706298364192644 -0.9483992235591021
Ni 7.060123981687954 7.704594271375429 7.384974582103947 5.22500741432942 -2.356887844748618 -1.6620073633121053
Ni 6.940668347500674 5.265955074401555 7.101463306605794 1.9028053154339166 -1.867597657184532 -0.8210100607784506
Ni 1.6464110744575462 7.166114828530745 6.838560999310154 0.0431168857941322 -1.3191821242131991 -0.2173770020947095
Ni 5.655453461711335 2.2602541086041574 5.371873088136656 -1.7820812233782661 -1.903186095812103 3.2744788246776118
P 9.147343434064137 6.817430994260329 4.4004867257997615 -1.1674011628517444 0.48224330801963394 -0.029025954918704848
P 2.761822105975356 6.700561869153788 2.8404977361615327 0.42278474764268476 1.1752214302271116 1.4831645127368522
P 4.667285604356744 7.936390305383483 12.625485690461812 0.36623436205146603 0.2377733063628744 0.13405269084375623
P 0.697058594712047 3.0666473368081357 10.278689042283313 -0.656296707626044 0.4291991358094608 -0.6380246487897334
P 2.410224947397396 3.7473194160480294 4.781918379554128 0.8123564988685107 -0.31318324786275736 -0.09619551078666659
P 4.483447370488287 0.7826449663085271 4.282449469696828 0.5727674794531361 1.0050732792123789 -0.4073686701979307
P 8.827223250616742 1.3213419747184876 2.552818165884892 -0.7635309927253754 0.14160247816655613 -0.3221967642152774
P 1.9150065030041816 9.154197216249196 6.823336078529856 2.1785214195891514 0.30841719393268174 -2.528206104812052
Ni 7.936212891403216 3.7425572513145413 8.856445200682332 -0.055557168440013995 -0.8241488635177483 -0.4531047387824648
Ni 7.475786262298191 0.8830575441086 7.831349090214019 -0.500684545443957 1.9090124726858928 -0.8644869010151627
Ni 2.4356698471988767 0.07449239528303474 0.6522139430472436 1.0802194255279138 1.6666788006458455 -0.8272658118801752
Ni 2.947088989263859 2.653991756284532 6.621495928211023 -0.49158052626015986 -0.17647229346054766 -0.9467557744184081
Ni 5.742264923529449 6.220292886992562 11.7807318246929 0.016677203545364828 0.7758627748178508 -1.2578829110830851
Ni 5.177304109735407 1.547946315409249 8.357030448776902 -1.4781441767041252 1.5805550722728843 -1.4798866133165287
Ni 8.00715980835428 3.116061799101506 6.22546870642741 1.745006687123472 0.9213067382176842 3.5215129875171223
Ni 4.191162506787025 1.0399727395926135 12.081627802741657 0.7969327081142726 1.1567161723340722 1.3195965860427983
Ni 0.3595845227211474 9.286846848021609 4.492598196838911 -4.371176450366208 -3.142417710342588 -1.688463500621105
Ni 3.0707185207763725 3.8759165390080246 10.76770359991392 -0.5111954722776099 0.5732356773388063 0.8190861042828603
Ni 2.827073100402051 8.572634188933305 11.777780216315929 -1.0571607439362376 -0.7003127081956778 -0.4291569697176157
Ni 3.7955293307911644 7.293442040895143 5.485004380806306 0.5781418563911721 -0.2080330989859643 -0.2047487718077377
Ni 3.03322814547254 5.971567824235853 9.842947234137993 0.22002575257146623 0.05864891999146028 -0.9302127824580625
Ni 5.064954372336723 3.341041401236136 12.645205721247406 -0.573603087980554 0.8099874844157017 -2.224343105908956
Ni 7.367255594264207 2.72124099238371 4.300311322478572 1.8392728420979096 -0.8848163566011343 -5.932182139752254
Ni 0.06832212380089961 9.03471356932819 7.747997201011114 -0.427959864085721 -1.4671167152453701 1.1258223109686933
Ni 8.743549214975983 5.6032470636232325 2.086490187541505 0.14717508715832717 -1.0131642837506294 1.1739484770519588
Ni 7.560057902925112 4.99205590160272 4.509039804020726 -0.12972269600983466 1.265956175009523 0.06156943607236492
Ni 5.147171745823709 5.984687121197717 3.4738301629193917 -0.29146513945937547 -0.6912734808115449 1.2792480070224226
Ni 0.337758868117118 8.567759973264913 12.849397073683676 0.3153152066040956 0.17253284919682543 -0.13705291112266074
Ni 1.0154055721145603 3.8612378665353906 12.645233733981133 -0.9555548607672769 -0.06478820011997874 -1.2619061733098655
Ni 5.499861401016998 8.645541997245218 7.97514779000954 -4.49373862407186 1.2876778829573308 1.3426380412432941
Ni 2.3241511542340767 1.7269196711872208 10.788886829157825 -0.6192638232424625 -1.4866645554703106 0.13474251782192925
Ni 3.079663920413003 4.439542079161109 2.6499868691194477 -1.6775795067187496 -0.504863359411995 0.46631609526641626
P 0.050525634064517454 6.564896199716831 8.182659585150178 -0.8018183183413482 1.303704340292574 -0.4773327580918941
P 1.4068088253177349 6.193942242133929 12.73234399829233 -0.6309605428541005 0.18631524769289848 -0.8289514271127142
P 5.780474292332259 7.098454739003578 9.665775097138628 -1.4159101104645677 0.8676179904449767 0.1496258626916649
P 3.9297850259638922 1.8431911913075998 0.6573262669523116 2.3135452160969256 -2.258678645966033 -0.16683219926762233
P 0.9183237083545565 9.349996887418826 10.4598520600809 -0.2945782311670604 0.031187481346397903 -0.8021088529985735
P 6.507610159246341 4.530723527440542 2.3788712282952273 2.3406456718581428 0.48763516845916655 1.5958413090079935
P 1.29431902425042 4.376998982327965 1.493050694883413 -2.00636420856419 0.07142781692368343 -0.21995761833769217
P 1.1103780770249665 8.816606424534436 2.5708714390137657 1.808771331074943 0.9271516270342355 -1.1074594921907894
Ni 6.442816706137179 6.731366538674919 1.5492330336450815 -0.25159041475162475 1.2143068262643473 -1.6131929129125637
Ni 2.488697952142952 0.9543938380584603 8.330121416759322 1.0589337766762603 1.6052703156313772 2.0309552676399925
Ni 1.6695402549376441 7.4286968569041125 0.8844675183728289 0.3187370878014511 -3.1062356039950765 0.47837071243810514
Ni 8.525759547831129 3.3127578777503808 1.436826337021155 -0.6065687442732973 0.33969466388972464 0.4613453815247022
Ni 5.089493527081049 9.075276007764018 0.8066182638315805 -0.1956110711725276 -0.6504189086890282 -0.4557699443194538
Ni 4.125883499626603 0.25795525851955775 6.313712552696734 -1.1610482240505229 0.6550594927848331 0.9786515946857404
Ni 1.4653647763838205 2.1925660063432653 1.2926410615002086 -2.2861508832443724 -0.5254147012007855 0.9536252478447317
Ni 0.4195653881761158 2.2329230180650996 8.109626653294288 -0.13390356686040164 0.4175996038973195 0.3196158908619786
Ni 0.6296011306255023 5.136088040845962 9.627686183090841 0.22092203913349048 -0.05138015424418894 0.35365909648961674
Ni 4.663802687796761 3.497389805741085 3.8701720610785304 0.2535069150480473 -0.13765712036556293 -0.3561075580301093
Ni 8.424530865721827 5.24879260620518 13.393965551082688 0.5062376140517023 0.9855344378485028 0.6774723132623947
Ni 4.930185110379011 8.355367426151345 3.22382865326255 -0.8265417892299571 -0.3425349615519972 -1.367151710113942
Ni 4.232079773183387 4.8968032693550505 5.97519360573784 -0.9068514820243028 -2.027255450190902 -3.0508231886630424
Ni 4.059885498967205 3.834270941534776 8.21517303142862 -0.5705604444994883 -1.9028472244154455 1.2221798012545209
Ni 8.869401090030792 1.3542942871586432 11.68011942272558 -0.6508588244399243 0.6013717734533901 -2.248034535988625
Ni 2.546366833307702 9.153114057211775 4.256605855318642 1.1912689706082773 -1.0330597371229757 0.6790843949445208
Ni 0.9414986429664074 7.2870831503392495 10.796636085064339 0.2385577499373827 -1.3708348153924845 -0.3476074909788981
Ni 5.02785617530506 0.1453207249946563 10.090542449967737 -0.18504332295901035 -1.2582708905501234 1.45403211414727
Ni 5.434358291986764 4.567961788140837 9.921556567521018 1.9344314269796297 3.0800872277344826 0.1752728738358078
Ni 0.9626295817740221 1.374659544577736 5.8007144262073735 0.3703098176724203 3.162908374096772 3.4129923795061994
Ni 7.105364546656091 -0.07718535275193268 2.423260206158081 2.713250713322643 -2.270408532808451 -0.738748643574373
Ni 7.493200845098103 9.093736399289714 9.764556400078034 0.527653103613001 -1.3725078322195332 0.5046257894798922
Ni 8.394772004926482 1.3099501296697513 0.2534508109363526 1.014491487202485 -1.5145054889419787 0.9322113009453299
Ni 4.91502088385512 3.7907951787914027 1.3523978250853657 -1.0024227289634091 -2.0915823944037464 0.6709663938230767
P 1.2389471872512352 1.3686554819823777 12.953726765416489 0.7206323935896364 0.07839164983602627 0.10302076123861612
P 7.811425500230012 1.0171703743393237 5.726395709873443 0.8086427974623492 -0.9134656449067108 -0.6527035909581469
P 7.627092374732388 7.99127658833141 -0.002870371449165157 -1.7755115405805486 0.44269485630305044 -2.0408046496302465
P 6.148570951075068 3.2038163562884097 7.338563084866046 -0.13811606227985246 0.4413051750443754 0.6752837902515081
P 6.000140812636782 6.509972566457269 5.754371093288208 -0.9340020742971658 1.1648989652551809 -1.875442350039931
P 4.847024641523237 2.767415315142727 10.38401692109458 -1.9842450080676475 -3.374679085748298 1.1400289414863787
P 7.641276155575856 3.1698742605899213 12.78539731469676 -0.6223843711493152 -0.3442151774678975 1.033128642687698
P 2.5441911776549513 5.257336489991732 7.509298829412875 1.3011743747818687 0.027743231551539318 0.9091582757806084
