# total energy = -340890.5943389503 ev
CRYSTAL
PRIMVEC
9.06710076342031 0.00000000000000 0.00000000000000
0.00000000000000 9.06710076342031 0.00000000000000
0.00000000000000 0.00000000000000 13.27061848385542
PRIMCOORD
 96 1
Ni 6.524703740820111 1.6069259745951026 11.436366654386553 -1.10357764063788 1.1908519376755167 0.0842769049722097
Ni 4.878571623141323 0.4289191948597911 6.2489215284726445 -0.5319771849096516 -1.7167042406343531 -2.258102718857905
Ni 2.7844521979975196 1.86361559316567 4.7010903821726195 0.165885776193953 -1.0639055188592386 0.5620812033838836
Ni 3.4618008827624673 4.2023291246520955 4.686505950824306 0.032059342428389946 0.08227632960241313 0.3826403142133152
Ni 5.011812666761757 4.41202396070584 2.7880246356420555 0.8096488701293604 0.22920947595326333 -0.42638814872322695
Ni 7.34015343513816 6.046386981779026 2.598692694162164 0.22746446823769856 0.21213863651390563 0.07718374557085418
Ni 5.096100434131308 4.446769090284166 11.37207093717547 -0.02480574618977018 0.26181286381058133 -0.3713380018266185
Ni 5.571706130086819 7.908823851864011 12.504598046907672 0.7796494955537928 -0.001890017933861261 0.15578031232883494
Ni 1.780687890889216 6.479105291798868 0.39412147609786513 0.07609565471299796 1.1855526369497904 0.6483136894205674
Ni 2.8019517021953724 1.4509627768193227 0.3575266579929266 -0.31535197337930204 -0.11332882803284354 0.4565898691175878
Ni 0.31932696307813324 0.19011352555339148 5.198300258776951 1.765166964121431 0.7886244453588934 -0.9865916754684235
Ni 8.596336756424707 2.4885836376451294 1.1960475898402163 -2.680407441540377 -2.0947096271788186 0.5776926846688955
Ni 6.958074882084641 0.7488445865788872 4.958566118366997 -1.4101729508704746 -1.248293467622437 -0.2951965814773497
Ni 1.019822142307473 7.77968113772411 2.95967935775193 -0.851152902910418 -1.4469150434865146 -0.5745911629254362
Ni 7.532521041905845 3.71675868511449 3.5869023901557444 0.3055509281284802 1.1793709336191107 0.14460475532798966
Ni 7.204645616362564 3.7704359207887315 12.490929392722043 0.9740040686114 0.09613586119332476 -0.6360479846793369
Ni 8.006676001762052 8.84543721177579 7.128578082415693 -0.25239902669584924 0.6345734570163395 0.1962638742651781
Ni 6.938870762970106 0.6921208050961083 0.5007959148997981 -0.7231556742321223 -0.2836397298776857 -0.04759291928761481
Ni 1.904861833889001 6.455168146160356 9.18905403070658 1.3919165757634482 1.1574862177308776 0.7288920624952673
Ni 0.11944817015630303 4.727921746329244 1.416585771526195 -0.4143157909397252 1.8033640440164427 -0.2525368378252941
Ni 6.2799826950688 2.057134721712177 7.254104836828079 1.8789038262259703 0.19300088724319017 -0.905980135162943
Ni 2.7695186832753116 4.282872179465318 13.512807046740216 0.36268032615162055 -0.3625029200334918 -0.44072204884739585
Ni 6.318780818624557 5.9788552163564335 4.852189080465421 -0.7044156746204578 -2.307820397798006 -0.8193702111821825
Ni 5.165599760388582 2.714454181206111 9.168576890664905 -0.31390984161613683 0.6812207245612333 1.2581549337975495
P 9.155142167675292 5.726100719455228 12.406555487896597 0.025694319442310588 -1.2873426111050992 -0.5010817808823756
P 4.005536772781534 5.957302718181151 12.67635976080487 0.40249822947950675 0.19586381061328204 0.5133467142926578
P 2.538697502775455 8.36859839013587 1.4508902400143575 -0.420555858312166 0.6815678234880068 -0.33717215457818706
P 6.46501501743438 7.7744766219678585 5.8544391817700765 0.29600879296599986 1.630780801197656 0.12893465289090053
P 4.691988826569612 0.9144896343973958 12.634172355037116 0.98743268331248 1.0806750250080936 0.46069592086616135
P 3.9572181935740964 6.193926843078223 8.197433291459511 -0.269202214296117 0.46956519833133326 -0.5021829843663544
P 4.896533549470829 1.1133674194107064 3.751869218847829 -1.4788838830836273 -0.4102529337242612 1.5414172257311582
P 0.33456875922144386 5.656528856392989 3.557587547139125 -0.22009877190124677 0.5706650883981527 -0.7389386480979919
Ni 1.6095645008757116 1.1412668880204428 2.7035836342720154 -1.4828449246139042 -0.27962726628418294 -0.2683018139690347
Ni 2.081180672558138 6.549692670130619 4.927221151521414 -0.52389620767373 -0.13456665436569729 -1.221357819573858
Ni 5.7897336316109405 5.4526006963339775 9.190075892946528 1.0716414540509156 0.6924063088644075 0.44942651859992927
Ni 8.686155455172853 2.1588222551727534 10.199439134688081 0.13527525039694765 1.1372236108270997 1.6139110220255108
Ni 2.3727604943169616 5.1997917968290475 6.752581740458505 0.6507737209252857 0.7201852787498888 2.0946522915783214
Ni 0.3317189694963739 9.056238234105253 9.387183779918686 1.466860633370506 0.2809349293520129 -0.5120907303983697
Ni 1.6158117332033384 1.0828294245203611 11.531728978454167 -1.2641540888037777 1.1586681538541206 0.5166017308948458
Ni 4.186543302471546 6.782971034898671 1.5810883646665017 0.055518344782278586 0.40774173726663326 -0.03641941916929857
Ni 5.696986259362324 7.818225382462488 7.907855485517726 -0.6207969720575373 -0.3412830914227671 1.6414974162842118
Ni 5.561442172184246 2.852301311941835 4.984338445171129 -0.4560021149349179 0.15055428804320523 -0.07444680625566534
Ni 0.9469317204180772 7.559350592642345 7.122154948336026 -0.29260465238045735 -0.46981973754430056 -0.30786337831174077
Ni 5.136013811063404 4.705435336790035 7.012964389111862 0.05210700510788446 -0.8052103747420325 -0.9086777365997641
Ni 8.318910678734715 7.053406378010143 9.418622137900662 -0.35876633580919504 -0.865942916735399 -0.6451203792942503
Ni 4.447349384723887 0.13846641370811388 10.543439491975123 0.5746857795217715 0.7056765436107525 -1.17307507330807
Ni 8.40603644859853 7.201635338956509 4.9168438548610816 0.18959006178942833 0.1454676175489172 -0.6763597969245061
Ni 7.52839551112345 6.3194608511711055 7.212461457097564 0.12137946625146193 -0.660949633017023 -0.2709418226950431
Ni 2.4476184770410376 5.126837905235307 2.5502544292265337 0.28178673582934693 0.928920031788568 0.26920041452390414
Ni 2.1881724598817933 5.566456278827464 11.380776260481358 -0.4242978418531015 -1.3672486407031226 0.21263023143834348
Ni 1.0235124522600767 3.5259778209554193 3.5225259757491383 -0.6215377068783038 -0.7942492477448386 1.0376095612771872
Ni 3.4563968907925604 2.588113201157991 2.4259490132677493 0.6177229611179039 0.8007983617172659 0.1270477202808328
Ni 1.2515863012718764 3.381094620138072 8.173705595845334 -0.059378084848000966 0.27042914472468266 0.03980941868745402
Ni 3.890429930402397 2.337625479411947 6.891883234133781 -1.4684413475940647 1.9881003772579955 0.7378762682717486
Ni 4.341626991487122 6.9846052185006595 5.926538952485352 -0.9007507684432036 0.15460223286033373 0.38276475560632145
Ni 0.8038882343166598 7.615956501817055 11.386761453601046 -0.3479707878555878 -0.5211201875904896 1.0215321960993504
P 0.468301239695517 5.556872353471438 8.070540124983593 -1.9247157423537626 -0.4030312191648413 -0.9480770643329929
P 8.79008256248673 1.7110525581226332 8.149380378300258 -1.1569383156472075 -0.30944794919004126 -1.7249379413980552
P 1.7502224328038363 3.4637593764965273 10.568534506362894 1.238765473527344 -1.1475471042402945 -0.5474372282184636
P 4.141153396764578 6.1367678407656525 3.8685183750425374 0.04583402761497912 0.3521832832750386 -0.723467034824954
P 6.859796578457429 3.663335328257628 10.083055644541558 0.4864252073114655 0.14981072500896134 0.9747730855669405
P 6.210401764905942 7.702039555109495 10.253915181927 -0.47181465648714227 -0.43907320039006315 -1.2021696766811811
P 2.4929086446411786 8.517498316528165 5.803148406979191 -0.2693120004011039 0.9931536449566573 0.19483254113529025
P 6.704839828850541 3.9157543424358696 1.311532530315234 0.5611052126238595 0.40135434568305073 1.3954765252005643
Ni 4.8929067092225695 3.3084671441666758 0.2157153908658554 0.7587633961334029 -1.160056806671531 0.5749323483149388
Ni 1.597958612081281 1.1469428930089687 7.196828868917502 -0.6793600172034105 0.5601078817075966 -1.424342043282005
Ni 7.008859712660895 0.6287499321483319 9.249952305315105 -1.3418170880038955 -0.4358420950472752 -0.31507609401009606
Ni 2.8188074422491582 1.7152959612130971 9.244352463971792 -0.09459088530370806 -0.015856507416282365 0.5985037078769757
Ni 6.280717130219073 2.024067005748671 2.4889572021907 1.0848990903917703 0.5114723800880804 -0.5803167525553038
Ni 4.143057487894914 6.757646622865199 10.600331014819385 0.1273886485600193 0.061076041375714166 -1.023603219695766
Ni 8.25695518019382 7.122869435864932 0.46390732273475066 0.8693378013495608 0.7815508263415637 -0.061113322371552814
Ni 7.847231037347943 3.890801681527844 7.898831000269994 0.13872952749413528 -0.16841805569750348 0.9149548278577275
Ni 3.255297666127191 8.213813915440776 12.40439207768851 -1.7566036479324523 -0.19730568526613115 1.111075748787138
Ni -0.04465819068688149 4.584743160428579 10.137518091129547 -0.7424854849089857 1.3078931815629413 0.39329573704463233
Ni 8.317759156955892 2.431397434030697 5.640305093252462 1.5314935388595432 1.369756751836957 1.952980650736727
Ni 3.583862191317641 2.5249155098320686 11.552020242933116 0.18221048149590555 0.5827729274052803 -0.7424245497640634
Ni 0.6436163503259476 3.390297727268031 12.481454272573465 0.004308397567366774 -0.010658508155110677 -0.5724725739205366
Ni 2.9510057692982175 8.581185631287601 8.090604711947027 1.4297680993935828 -1.3754759137089214 0.6060126146595112
Ni 5.782960507447316 7.995614139004862 3.571335991810215 -0.9253143167151806 0.13531484538563146 -0.03720257719222625
Ni 3.133127552364569 8.356276200392408 3.6131915416952536 2.0950338432874562 0.513546746118606 0.7317583282994687
Ni 3.3744847037856194 4.36424034043502 9.240729250563781 -0.08052180880515164 -0.425944376317589 0.4567713890007746
Ni 7.182050401615908 6.132470035071465 11.329830035514055 0.45406581714415345 -1.0429083477822811 0.7570566978549413
Ni 0.5580863901713675 0.11740263225628468 0.598327996145931 0.8222367340967002 -0.9451583480243011 0.8606726694753951
Ni 4.629797583412583 0.431908617934419 1.721053570107209 -0.17364433709344934 -1.2819697768289597 -1.027276040561663
Ni 6.218988309193696 5.834153357551499 0.3470695708471323 -1.1524088032079702 -0.9094338980394984 -0.046602273239571355
Ni 7.754039377168916 8.663043415690819 11.369495880599208 0.5847344220070252 -0.9779296289180511 0.25729157890146015
Ni 0.053447838028538426 5.060049642063609 5.71034663212685 0.20824135834202848 -0.9148458130836891 0.13609234698160433
Ni 8.00593249951116 8.780480502929462 2.804745275896594 -0.415239074084943 0.7785475207388657 -0.6805393822234924
P 8.441180530604164 1.7128025085424186 3.6602751817981587 0.9378831545191266 -0.7703631851558604 -1.4753558153257107
P 1.465805620535325 3.0431365787046296 1.3912386917411712 2.63822000953905 -0.41643000906925054 0.46593917154297176
P 4.795943135185351 0.7733085307634596 8.326025632591739 -0.021608065188078916 0.8010626711222462 0.5976457307520545
P 8.58032425672864 1.1921967922066268 12.44817166632525 0.06192296275704174 2.58569828549125 -0.6446719789029219
P 6.46206820973267 7.828072253736513 1.3820283309307162 -0.9310082817761642 -0.3999548942323628 0.9655124862006211
P 1.6340547396520837 3.4981962246537512 5.807063581027188 0.8368483133622878 -2.2400746577116 -0.23257427866043817
P 7.076971772523208 4.230146989356245 5.922464197466432 -1.3164235876314554 -0.07916915143199914 -0.08769390107355865
P 2.311539430926341 8.634110297610329 10.340850542677781 1.1934140419757382 -1.1075283977555122 -1.7211640761779199
