# total energy = -340895.168204272 ev
CRYSTAL
PRIMVEC
9.03467902547198 0.00000000000000 0.00000000000000
0.00000000000000 9.03467902547198 0.00000000000000
0.00000000000000 0.00000000000000 13.22316599313606
PRIMCOORD
 96 1
Ni 6.29568053500524 1.9029021585366317 11.286170686850529 0.9657143177987819 1.5266017579848807 0.9762131604475767
Ni 4.76488066541036 0.40817324481510586 5.980203096642385 -1.11979358827611 -0.9544531430626658 0.31887284204836697
Ni 2.6641190369610315 1.5617526798195782 4.729794489547075 0.00048028207052820514 -0.8117155228504022 0.1250096068048815
Ni 3.367920530394783 3.963938303460567 4.5997574513552735 0.0025513056669439933 0.9891386102599933 0.5842865358363293
Ni 5.078194298154765 4.568918478085867 2.662100689674342 0.1268649148460654 -0.1449341136429504 0.07462832613885212
Ni 7.349964330554211 5.935404640863293 2.6872649810692204 -1.1144258962062936 -1.1093469390214894 -1.3485868026275614
Ni 5.117106660570929 4.4739549672067636 11.533588984902913 0.3723584726713329 -0.5507958602780513 -0.32140743554476253
Ni 5.548539686449516 7.830247865739554 12.550595694933172 0.4843225591461659 0.48501110057275826 0.1730802370598632
Ni 1.8736388332833338 6.509070618104237 0.4512903468338893 0.600221719009347 0.1024484336749139 -0.2228915041550355
Ni 2.763364985682081 1.6578184215356384 0.2501666474015816 0.7037428169231493 0.19495209743229006 0.7101494917804414
Ni 0.4758655771585254 -0.10290860758418233 4.311466265545582 0.43101459175164475 -0.5590863824216178 1.4803568680847279
Ni 8.591058183609338 2.3556389574770518 1.416941231073063 0.22556570855308897 0.1257428854264802 -0.0009816471869789544
Ni 6.748426368624652 0.49194820923120086 4.604015495563943 0.9572479321989836 0.39377936154927023 -0.2618689138594974
Ni 0.5312644217982825 7.228059406922611 2.432348802921835 1.4393595997367599 -0.007504021686529012 0.3414772097114442
Ni 7.496271922141709 3.6501277633716334 3.9774758664613517 0.13820219423575553 0.33808643886234035 -0.5944879018493633
Ni 7.636643729631827 3.9862720299274246 12.628810717897931 -0.5159239881015308 -0.9243007878490017 -0.5259505190995974
Ni 8.165335074853346 8.892509282837972 6.671179863247777 -1.3038969159193543 0.6692491540216539 -0.058858979119737344
Ni 6.942545481434891 0.7818023945064125 0.4514773646890123 -1.0149776828102843 -0.6177378735162394 -0.5747487715492231
Ni 1.7456355013325071 6.793780457161718 9.127978314456268 1.9224076630458764 -0.8528205204208281 0.7032252538567825
Ni 0.10617735444328799 4.818447277150653 1.2945005509772707 0.07016540527149207 -0.4274484716669413 0.5318296035881938
Ni 6.468405527963731 1.7308366971445162 7.066618728024438 0.31740422792264045 0.8554350752255397 -0.6426762886291318
Ni 3.5242837196997625 4.353260690560018 0.7046588844700399 0.05930069464284626 1.5500566465737111 -0.8618314656701866
Ni 5.841922817338787 5.4240147059103965 4.790713523050606 -0.04130400095510951 -0.24843181451798504 0.8572847268397688
Ni 5.200614198488877 2.9766918260281363 9.206074079658338 0.5258672153571717 -0.569907898517154 -0.14981278189149036
P 0.24529334155359486 5.5876417771244995 12.434483807470889 0.1836793527319482 0.3121841171742817 -0.21191752164203503
P 4.210277860841372 6.082678943102877 12.624989952152447 -1.054576785259145 0.19003383419506628 0.8753107311035441
P 2.4444769559999537 8.473191761486916 1.3748658275419934 0.2536902347034469 -0.458307880249959 1.028393699105874
P 6.314788881072151 7.732366153546213 5.781789800907511 -0.42636860833920115 -0.24618158503122767 0.976345315150067
P 4.910872043233159 1.083971750714866 12.648288582335592 -1.3209980943760151 -1.2039946457050619 -0.04670897402076471
P 3.9978273843574863 6.39274009141036 8.254707022904643 -0.7905435167584772 -0.4480903162870089 -0.46156675350688897
P 4.676313707257202 0.8498443689268012 3.797904393763142 -0.7959662304359453 -0.9886529288728263 -1.2254559009026313
P 0.15850169782225554 5.4594577515938445 3.603259462635601 1.2687180540253764 -1.2585375139479487 0.5277430922236459
Ni 1.5373951852586363 1.1160990692084531 2.460037383626924 0.2807058440603424 0.1538591840467221 -0.09796057310688935
Ni 1.6872443710107825 6.643578918928905 4.8205053770249044 -0.015699155902811672 -0.4875356667668249 0.38077215065632486
Ni 5.913531683024999 5.570078361165127 9.192863572037043 0.47602432369311565 0.7680268237131999 0.2922398128418709
Ni 8.66123053533591 2.346676555917536 10.30651876057831 -0.847521733915734 1.0830995752891863 -0.7466105628209528
Ni 2.4577127607224245 5.21455470817268 7.003583772701109 -0.3042301524345276 0.14521950609385315 0.032126962441531765
Ni 0.666508145492855 0.18883111519654444 9.36173708134148 -0.003004848264594825 0.750597829603475 -1.2002575472601331
Ni 1.3880790455669851 1.2964402965567345 11.460835425388485 1.5758931480208407 -1.6260648837792253 -0.7464971771715402
Ni 4.073727722564636 6.772838071259543 1.8922087124823546 -0.33442390240908854 -0.22722792674686026 -1.5957235524832065
Ni 5.694720792531135 7.987008580920158 8.029952217102306 -0.43001417551158844 -0.3087084999208554 -0.8186605867096675
Ni 5.314929991767661 2.5669510644080145 4.834627483756435 -0.0326290988889309 1.3323561997013118 0.5188231640261969
Ni 0.8544050748816837 7.628431206428602 7.162036683256811 0.4890328201376416 -1.0745578563667624 -0.7344456453236448
Ni 4.981152811107628 4.706498569767628 7.043861275112881 -0.6063633131307105 0.9490833941103202 0.5253653360200887
Ni 8.336885559542948 7.374114027498349 9.08578274969461 -1.2328272536660383 -0.40120727858222516 0.0030282453033625267
Ni 4.698566121613138 0.21478232713157788 10.50326606150716 -0.9190017442335915 -0.3821952562560966 -0.40979167781712644
Ni 7.89127712232678 6.849163039379291 4.652425112535917 1.1660626465459791 1.5575280152500917 1.3384563990617788
Ni 7.205544986875924 6.020113791087104 6.986010418594844 0.417494702888339 0.3147287379730064 -0.08064573597752564
Ni 2.2292799371026684 5.211735888327349 2.708514546057105 -0.020502233718409854 0.42697436024400015 -0.18648468339122723
Ni 2.358837233840024 5.163599118660917 11.578917776338802 0.7335228763990593 0.1290881477496293 -0.13606997838410115
Ni 1.0262401519595172 3.24930422991607 3.5711014262334433 -0.41299861479019834 0.5642023634919444 0.7191912902677357
Ni 3.752888202220356 2.543614488573106 2.591463051979711 -0.9511035098641425 -0.1633861497005509 -0.11232712624120654
Ni 1.0489262309070417 3.473761794779589 8.253688814582306 -0.09642793851244683 0.323017717454676 -0.18302706385992995
Ni 3.8649272563932953 2.728436916701145 6.999762103487726 -0.6773689549153108 -0.4894583377108344 -0.4377346840842977
Ni 4.014469263059732 6.982532970651036 6.015535919242137 0.40820119340155514 0.46635337626225487 0.03214650282555754
Ni 0.7117935704695858 7.587260174264576 11.213509281061814 0.32265442057798627 -1.220932044890349 1.599515158315155
P 0.17413349941325781 5.661346688336727 8.079367393846027 -0.09867893933015262 -0.9688225244104604 -1.0334921966747042
P 8.542560026783248 1.6939481028224364 8.024583810845588 -0.18362201713145151 -0.5344529001436537 0.28908352660107633
P 1.8124469524742606 3.2904752620800957 10.386849705362867 0.09265561595420817 -3.0853237935430735e-05 -0.13399484102262726
P 3.8493334004540567 6.065242012649383 4.020688736077444 -0.507856380602048 -0.45929004165757026 -0.6299986931614633
P 6.903985471499393 3.876374194675459 10.257064734714925 0.1654528024215925 0.3695140612440023 1.4979992637568396
P 6.4243795372384085 7.71275186545578 10.036964595528982 -0.4610095954518382 -0.19455563332481976 1.7612653150741797
P 2.2392090493142693 8.594925026217677 5.834497214675716 0.4617382460877467 0.114149524161926 -0.9901056021589529
P 6.843498295651653 3.7593389630202494 1.578316860282498 0.9669474188749347 1.6540739673976417 0.026163031548613006
Ni 5.230555124666533 2.923486601447503 0.4344379601111425 0.5364298213643665 -0.23830526760694443 -0.6752195126724759
Ni 1.4938841712358255 1.2615393316127732 7.003530468095059 -0.6754036036588239 -0.05155036127346606 -0.08426662055956455
Ni 6.731956148823244 0.8711716321540118 9.279951553239302 0.8343222045063244 -0.6493912387554622 -0.8509107049926248
Ni 2.7440488419983664 1.6964958822980247 9.02975599486495 0.24715834712220014 0.03819707989501163 1.0777593940231953
Ni 6.104813906631923 1.9880720773890062 2.543066083558325 1.4155462993672459 -0.6455644088102043 0.30512232523149385
Ni 4.113317685905158 6.698970535825469 10.494645170813522 -0.17135914060369845 0.9227532408562238 -0.15376611011228355
Ni 8.293997938370548 7.18236200058387 0.4327864207915059 -0.26951331777863263 -0.06381272358058687 -0.8077956189707056
Ni 7.589085179420849 3.9025295903556994 8.17877958066052 0.5322227252615543 -0.576100400481111 -0.24110519894958476
Ni 3.0704988979963352 8.456197530304003 12.478688684840241 0.6726556086000416 -0.3264372846591862 -0.453428954891103
Ni 0.31104683178544984 4.979273597877407 10.283074672063403 -0.9825311322458047 -0.4254697506740156 -0.41618086917292196
Ni 8.497269180999123 2.354328929023292 5.790318537875438 0.5030113938049208 0.09683160170876871 0.16985864479877197
Ni 3.62445120567794 2.47953151048677 11.241026202866065 0.7868326435657932 0.28008492264689183 0.5545332158332965
Ni 1.000771391882627 3.3031509167050963 12.58311150462339 -0.22204124033959824 0.8077732503732025 0.4651827529929215
Ni 3.126667497286163 8.613717158519888 7.913019980787598 0.3613364105292164 -1.0572011102558696 0.34400691811183337
Ni 5.597887103100802 7.486153081671288 3.5429882156157566 0.11295344697129578 1.2247704447998327 0.6532643485576233
Ni 2.989213891110283 8.186665951952152 3.6452698164779322 0.7750839876702975 1.1868932101380847 -0.24766793976876703
Ni 3.456252586894164 4.418093547002644 9.192136280378232 -1.1173371563158176 0.5229323010985639 0.45141912354992575
Ni 7.300481393718052 6.203725572230288 11.535797060448422 -0.13722131837972495 -0.03442064357171491 -1.0694976682350357
Ni 0.6594619993474251 0.07633129239504155 0.3575799459308996 -0.24596509814504738 -0.423541166192735 -0.07003813566500841
Ni 4.595182289914004 0.20446924106284073 1.5087633840668404 -0.03375292808072897 -0.3710994034532512 0.10252633810070083
Ni 6.1528603295084405 5.6867431709816865 0.5848328404743722 -0.6958819261178337 -0.37633751192373893 -0.8093917598132319
Ni 7.888322782296577 8.967054419196405 11.220583434712116 -0.45050201105229515 -0.8826316902449896 0.11885104340265339
Ni 0.3525051667414036 4.852489947590426 5.753227566743949 -0.7821192972505241 -0.5965422132752307 0.48229344453127915
Ni 7.969499373034733 8.876292034048324 2.424400995813059 0.07896603428225756 0.7482892360749563 0.29664128434367626
P 8.52402990017179 1.6256639990050772 3.561156955067557 -0.4986034945452123 0.5678327611556802 0.5170511597274385
P 1.9025678754139481 3.3018589576093196 1.4766975013903951 -1.339088633329139 -0.8839432099675615 0.5351309000472848
P 4.7420409969199815 1.0579247711825233 8.186660531144758 -0.09609240954989902 0.14823309610919633 0.6268753170411333
P 8.535630427996809 1.5060448491583138 12.442787580931927 -0.4312891855692702 2.036065592283365 0.3837212059823198
P 6.50354139456147 7.656429676623097 1.5221979517271225 -1.7796921543207995 0.3116331297668181 -0.7346891287930186
P 1.8800444206882698 3.223781261765231 6.079627932007464 -0.24694623111139408 0.08620394679159346 -0.6068615929233678
P 6.603519152280827 3.782693608213141 6.152434796127943 1.6910554297179974 0.046299397287171876 -0.9697640623881233
P 2.4689428667087934 8.523072224198696 10.36176582261101 0.6565602457000758 0.6636364358205668 -0.4104570793152673
