# total energy = -340854.75506133074 ev
CRYSTAL
PRIMVEC
9.46969020943664 0.00000000000000 0.00000000000000
0.00000000000000 9.46969020943664 0.00000000000000
0.00000000000000 0.00000000000000 13.85984883246237
PRIMCOORD
 96 1
Ni 0.40138228771214746 5.71876483541597 5.36523099821465 1.7424798069365603 0.11808793998438372 -0.22272309689797126
Ni 9.089519992206284 6.225184926537335 12.866887546591808 -0.8009027485056142 -0.7177959525821058 -0.7803863737198173
Ni 4.804523067264184 1.0507662913893172 2.993685351630713 0.624961387847872 0.8982717107750917 -1.1748033688530863
Ni 5.22108526832514 5.2489640361971865 5.775094340446568 0.3583901834166989 -0.7882128117427716 -0.5296490509971072
Ni 2.3335968101809343 7.564587374428004 4.825001272265306 1.099406797089642 -3.7322020360686947 -0.4674738630199433
Ni 5.814465524313694 2.735613567134735 6.512119379714432 -1.25238563541394 0.7027472857790994 -0.8823743228185449
Ni 3.8820142595905596 6.499758593130402 8.463336729455241 -0.8394389569075995 0.28997209985361677 0.0015830282164037252
Ni 6.222022050019244 6.915629506808661 0.40090975017246844 1.0753389575071608 0.22891482753097997 0.8390250092986326
Ni 8.704018374915817 5.993366911079558 9.703154968507855 -2.7888007799448165 -1.5655316022808587 2.0191341066353483
Ni 0.3689807958130326 6.266718987640187 7.76611658586447 0.6403039317422133 -0.7066605047905766 -1.1667982391604228
Ni 2.5984924534162457 4.535725911677214 12.95468956691546 1.9768554004717955 -0.3389924956163775 0.02191325513332355
Ni 7.306282635553747 1.2187680647649886 7.420715318584521 1.3172160016257637 1.1709102044462671 1.1488077161202732
Ni 4.387762002709576 8.783970969054296 4.678918990735227 1.2779655407655732 -0.34681096321953175 1.197981863852079
Ni 1.450898579998506 8.96200114432416 -0.1333976315421007 -0.7515591650754798 0.540949563611591 1.5642663624151898
Ni 2.857469540292851 1.908369842610834 13.1999535954512 0.040683079541658965 -0.17315454194122437 0.41977912804714157
Ni 5.007032391633652 5.675251609066767 2.5186118289230865 1.1312121145256968 0.38528109427027196 -0.46041309951842
Ni 0.5405090818094751 1.7404627661369019 11.088669125731453 -1.4377927694702721 0.12302908603974294 0.35938237212663915
Ni 3.7890976596039696 2.724240469235846 1.4522906244540736 -0.6982146880160685 0.8839046434201423 0.34076244303260667
Ni 1.513815201514089 1.7921104563455097 1.4342451828586347 -0.15250421268072445 -1.4458709184927163 -1.6568343037515982
Ni 8.23830848185217 7.028252532047196 4.8764633565465045 -1.7327787775987125 1.592871170636076 -0.5134526437429028
Ni 0.8801158456719979 8.510969271030103 7.072154015693531 0.3132117871078477 -4.085303717392945 -2.3110643586566004
Ni 8.976944315418619 4.040612630623519 8.576224906018647 1.486696951370143 0.5654699173504584 -1.4430763864667149
Ni 1.0060598840781991 1.6389476874723847 3.523603531949666 -1.5833606600424797 -0.4206093372579208 1.7068576868575767
Ni 0.5864067761444733 3.721351496099683 12.480364149731574 -0.6677620279531661 -0.703316270908692 -0.05246593110919997
P 7.292930372408507 4.131010293023844 2.155969096743464 -2.427338899581329 -3.0402171310124224 -2.4086950592278966
P 9.502265908127148 7.285430377790755 0.8848601604491362 0.5027979922425341 0.8484627576727646 -0.8487232104230027
P 8.318459939484304 3.001598224740048 10.204299495233327 -1.2161387372667636 -1.1520822731064868 1.7901596295110265
P 7.195250518264432 5.459617294116233 11.89583900102466 -0.2506193090876071 1.0809465335019255 -0.8385773802382526
P 3.443501316706437 1.5291276905253322 8.788044829767122 -0.341508834280328 -0.16767783509736928 0.53816428755697
P 5.854777995384109 6.898943912722198 4.533044095419958 1.3111232584644643 0.7056451761521847 0.10923048959375382
P 5.230469731287504 5.074958479251244 7.911908147906209 2.517389988033155 -0.4547777556095135 -1.1564521200394084
P -0.4131938322660889 1.8122335479651084 13.303819051216886 1.6035613033600704 -0.8011732285581815 -0.36510693331524213
Ni 2.818624871199395 2.2298942330862395 10.931637041453262 -0.07557629187441822 0.4354651713238307 -1.349515742199734
Ni 6.046046797517124 3.8031222707515586 10.604544473155585 0.4889474595126869 1.0463983632134108 1.449827332037303
Ni 2.6443731023089305 9.299036887304462 2.990581187191699 0.09886637275061037 -0.3906688409447465 -1.048234387980885
Ni 1.2900274833238028 3.9894857733744775 1.0952160700967217 -0.9015390686724538 -1.367996574612741 0.5164068412752203
Ni 0.6895799975584453 0.3781862816311088 8.596820535177924 -0.9776712330503421 2.3198559888063013 2.9787857631798182
Ni 8.367702328388734 9.177625989584518 13.25345261008881 0.39790803900566313 0.2244133401162006 0.16697309572086083
Ni 8.875987948474364 9.36640426320179 1.8246909253889119 2.094959795516411 -1.4136305704017718 0.5128546051475876
Ni 6.34170946412753 6.4415578773214355 9.453553821872458 -0.6530113520065527 -0.21130225665553928 0.12831424569808225
Ni 1.8476501892156023 6.869067040223452 12.604437924328423 2.1833864609909366 0.1070116275655641 1.0374218707464133
Ni 3.48643689195503 5.400876805967353 10.77881802233345 0.15894354054816498 -0.004371389594818279 0.24244320103471795
Ni 3.3304426857199005 4.829068504195008 3.973313436495442 -1.0264789985816645 3.3687061559943148 0.38401045508796444
Ni 2.8692403651790443 4.6624493055847305 6.549429958999711 0.49654224114080936 0.5663818876417664 0.30258773173509823
Ni 6.835515927937223 3.5997133258155674 8.449490148482923 -1.2308912129855898 0.1104831310539323 -0.511975544976744
Ni 5.909285532025244 1.707707107825282 12.479006196160633 -0.12203458333695756 -0.050689298824751414 1.2558635666602114
Ni 2.1841461598559895 5.922183250042135 1.1996686466531914 0.8317439022561869 2.577689813364477 0.28737091478534377
Ni 3.0503955382063035 2.3407274868819026 6.8984211858245965 -0.16709316623849288 -0.620146482957732 -0.9493703292231199
Ni 5.016833520963669 1.637726097439948 10.278782396327347 0.3468724125850865 0.0797713037923723 -0.24978961409746012
Ni 8.595846104059028 5.096416797185367 1.0281735045723577 0.9884071314106074 0.7830217544601354 -1.1313326992639612
Ni 7.020335871061792 1.0255579761463187 5.200964070643575 -0.533767444040855 -0.09798474147660545 -1.89726561656261
Ni 7.901907208113522 7.125515719823619 2.376104355433666 -1.8979955527500991 0.21793467437039243 -0.009234888334706677
Ni 0.9726034686937086 3.5772890994837034 5.532837885510068 0.8143555315764105 -2.1443794836001198 -0.29187985839929087
Ni 7.56351729943835 0.8542664324042243 10.737875816866469 0.755978120078782 0.6573511170324873 0.21205764676432512
Ni 0.913337412740175 7.260705016746628 9.93123340331595 3.2045121656804874 -0.1282250284183856 -2.2027682079516584
Ni 8.43095985875058 2.0764852522685926 1.4455131671965928 0.1854909520193902 1.3863221123948057 -0.2999790904676576
P 1.3099138326890536 5.390876813143684 11.252215409880291 -0.5200380102699044 -0.9040284107532108 -1.7667340514982346
P 7.1875516601530265 0.4875337410384824 3.0366928965246283 0.6765287184022026 0.7575043269153212 2.372410622974566
P 1.0459746281613092 8.982190523774976 4.437729769881329 -3.50911924183846 3.21490687865125 -0.3122990454855912
P 4.058131557445288 4.936615775500317 0.6449559765518406 1.1996289125371986 -0.1478875398443195 0.1430404961646633
P 0.42875442715988876 2.3479244514140887 7.75362890543211 0.6879169056344862 0.17183582312980084 -1.5074670940379586
P 6.27952200875534 0.44108017589027454 9.026212272486518 0.19249386569978463 -0.6808399441830468 0.5010630118292984
P 4.063216781068688 7.512560896612439 10.515827680761133 -0.30492460739839095 -0.3901255668467668 -0.9036951957835082
P 6.249048545775636 9.051716989031961 12.91940266042035 -0.21142155584222297 -1.5658694452362516 0.1823657761268472
Ni 8.19048654647383 3.3970714257836643 5.837255280686271 -0.7468802715425717 -2.6265340885606894 0.6528429447494886
Ni 2.9387952395065517 2.7678578621769625 4.1631381108769325 0.3461813000553329 -2.5289746075469606 0.4288116705630551
Ni 1.8218736925621681 4.453216501191773 8.983510598585221 -0.9691505971738406 0.6356872589058085 0.5408271791011138
Ni 4.680129217139455 -0.11576506843824518 7.734543691855573 -0.19593554439148192 0.8596108038697841 -0.462184589596546
Ni 6.6559895416198795 0.11343647162447609 1.128710364241908 -1.93767564494854 -0.5318697127975098 -2.1138625459581855
Ni 5.214333379231128 3.516957703385603 3.5821887171796942 0.8067406953436299 -1.1282242355419665 0.23436762311543508
Ni 6.268395122800973 4.477165347641638 -0.2817289644884871 -2.985331791828452 1.3446735836160844 1.8788369775437772
Ni 7.245932300075299 5.013055114584271 3.8589697685523037 -0.7192751082307935 2.675976145241901 3.7215358146041004
Ni 9.75207633491539 8.188157002691044 11.691655435432441 -2.752222980820783 1.2435929768229745 2.8740978986514243
Ni 5.371492357357652 8.309833051735856 2.6706817955501396 0.39789415504859216 -2.14855881178879 -0.6599818697871149
Ni 3.046418268333253 8.947512518358048 12.043973364415429 0.9673695940140179 0.5475557560741989 -0.6975816824177599
Ni 0.6255914071151735 6.819228060838065 2.8781219875931723 1.4459948456650902 -0.34869583894707046 1.5027892289463152
Ni 5.820781807659705 7.525032478571503 6.937283847329383 -0.04931530129536023 -1.4422857722446194 -0.6166649521670348
Ni 9.466063282592216 0.8789823237581786 6.103156605018054 0.0596850745654585 1.6203542065476932 -1.1780771545083517
Ni 5.756406853857337 8.765192573439396 10.911263003044052 -0.3321361348161764 0.03482147855455939 -0.9796414694028355
Ni 7.859558753655713 8.612758970709665 6.680003728931946 0.5414033633195579 -0.9052651113737893 0.2958627543064389
Ni 7.878734876257919 5.253272745226323 6.7063787100043735 -1.3162860336123265 2.6489142560281027 0.7189254382008586
Ni 2.7839752748529896 8.482531791437795 8.899505924021316 -0.7461498211344505 1.2032153443368763 0.4262554798001046
Ni 4.884077934415361 7.094938090252002 12.481264717267115 -0.5479691894625337 -0.41505729709144 -0.4689656170741214
Ni 2.6228579662337643 9.48332652777929 5.975216355923188 0.6931046204830127 2.344581773687756 0.8677807412750861
Ni 3.9859251698690805 3.8238798316128104 8.99574827919699 0.8567782195169954 -1.9206384869605955 0.11634730314419318
Ni 8.235638029223123 2.904192991611016 3.6501299563015643 0.8319346781107544 -1.377906377527285 0.2772217421664839
Ni 6.067154736914811 2.424515305540825 1.2514782685637735 0.41968836810554816 0.9369866108467864 0.06571071193424813
Ni 7.733583465271938 3.3334351078148625 12.589981495308905 1.3701876687267887 -1.1066076857134555 -1.8535985146919625
P 3.457904715460983 7.084502491680333 3.071716545632904 -0.36185217382337037 0.10908496515482505 -1.1852510465489718
P 1.16960143338195 4.3258965168033 3.3504796031589166 0.03926254504504851 -0.15468605082339165 0.3925421467080595
P 4.038737631969082 0.5257515166424244 0.6713214879340932 -0.5768542479280001 0.429319463437409 0.7087839788914826
P 4.663775062209081 1.4997337722254571 5.03026532950637 -0.5177641266340631 0.852850345217499 1.7363371843739324
P 1.444373963468669 -0.11283041145334465 10.599790688688271 2.0787577318352524 1.3038629773576254 -0.9930623707944316
P 4.464371796216661 3.2724503030947605 12.082336973248049 -1.0745036060900592 0.3310601281431782 -0.32806582140154467
P 2.3152634900042077 6.705705415033006 6.73232471411192 -0.6257489167461739 0.2152841241214228 1.7700011522852805
P 8.567654836411242 7.919142044230073 8.671691693569075 -0.15033960092923787 -0.10411168030994972 -0.6931745544889998
