# total energy = -340890.3651506615 ev
CRYSTAL
PRIMVEC
9.04327528964759 0.00000000000000 0.00000000000000
0.00000000000000 9.04327528964759 0.00000000000000
0.00000000000000 0.00000000000000 13.23574749467408
PRIMCOORD
 96 1
Ni 6.175435783400689 2.0333081443942644 11.397673254286156 0.8427579939785034 -1.0018948814843969 0.6695026647933566
Ni 4.71038898331686 0.630738621585929 6.114095245852428 -0.7544549985660362 -1.8353318551722908 0.4544239718145206
Ni 2.9481258914652027 1.7071805009322318 4.859292844308813 -0.8237089477668523 -0.260596474904977 0.35610575825789637
Ni 3.1976027319994644 4.373201413948661 4.866532890654255 0.9564305785040109 -0.2002701672110938 -0.2697290333338645
Ni 5.316632084623123 4.602909654294142 2.6813239437755576 -0.10598318630104973 -0.5077237116789256 0.08993847413336123
Ni 7.3423619641691715 6.34297150485419 2.6055494342413335 -0.32076774507823463 -0.3691970442242158 0.49342477855775024
Ni 5.180603134925208 4.11067512690369 12.084158243211391 0.10036892543806585 1.5976541938470161 -0.4548214643632554
Ni 5.7590019910433385 7.770018461391242 12.491196976677559 -1.3983589889546821 0.1511862652002493 0.34846315411097406
Ni 2.0237222723905557 6.408453862570093 0.3066448107782681 -0.323755624061965 0.05601688168525191 -0.5524495938313906
Ni 2.3757317702626026 1.6460389154444244 0.29332768331349285 0.3109708135924709 -1.0218088467995048 0.7625529450828221
Ni 0.6203641759607829 8.839747517352306 4.60036216359278 0.35052312196379637 -1.705251518712721 0.677409321234943
Ni 8.811378762186614 2.0244005180511953 1.3585965958101898 0.20158065849240123 0.7855627757144342 -0.6755213601836109
Ni 6.732103648551921 1.069222632534453 5.045003740812365 0.18467796919979163 -0.6805098145371377 -0.5334409139393717
Ni 0.8915891896853465 7.115240100609597 2.2086753424092866 0.5277348646935299 -1.2271903670952349 0.9780903228656317
Ni 7.8191415337725125 3.8416648113430014 3.72056902243728 -0.9120438248585196 -0.08147157431293066 -0.30436333557828227
Ni 7.501252314268385 3.8096063997834277 12.876171926639342 0.3246987047015246 -1.200149560927359 -1.3729708878988804
Ni 8.247630012338302 -0.19778909522822566 6.753024362036243 -0.8687227934733813 0.9851163764744775 0.495381645173805
Ni 6.738497244312886 0.7323398215497684 0.24280019025092417 0.402666636736571 0.14885941683928555 -0.9020432620023819
Ni 1.7036897965988058 6.586886730971206 8.968463170173429 0.6757938971187071 0.1043991296433815 1.1474691998145077
Ni 8.856712702143776 4.763518226733642 1.3447784708840884 0.801916020261477 -0.05818997807717076 1.5591490957932825
Ni 6.093702659655858 2.405411800372199 7.084076973322067 1.6475256247561625 -0.8172997018063989 0.4305065417669747
Ni 3.3633931012862526 4.372523168288021 0.533785665216341 0.64018129012142 -1.154997646981069 -0.849545192103666
Ni 5.849950212497395 5.652155691303885 4.853429184490695 0.6215171380530136 0.5267203073860864 -0.3351407259704551
Ni 5.094330286891828 2.969250982975263 9.315054841708285 0.20807397952622878 0.19783096164198186 0.6935393940275862
P 0.048309177588502866 5.608937877807918 12.57873859626011 0.0450405851794063 -0.02488133662271199 -0.8881464494156317
P 4.061877612439526 6.088557035910471 12.681699000527871 0.8096614685348508 0.3478383760427816 -0.46694087333460876
P 2.1929943027352947 8.580802367395513 1.2806951078841995 0.2053583803672786 0.13646155739556495 -0.10640536144013286
P 6.299220138105187 7.847130471368248 6.079734416356869 0.14656419304720567 0.6498003012684229 -0.9955457993379179
P 4.315035066092193 1.222614671144746 12.498927168553758 1.4013309270988124 -0.250159338732053 0.19197013198583068
P 3.900455145207258 6.246280803473383 8.317754283355622 -0.35318961305236596 0.2657736482305423 -0.7082954692908382
P 4.815101070044167 1.353244785383968 3.848929274532227 0.8376420129081766 -1.9441154870366129 -0.52016913653113
P 0.19180063820855017 5.552950959340972 3.5978599131867828 0.713411707471481 -0.03907742561743593 -0.08453041574391248
Ni 1.5458484664547159 1.1557034759037628 2.778170189494538 0.3245740061982023 -1.6463439457432356 -1.4702110378999778
Ni 2.0105552632986687 6.503055567316129 4.761176018385566 -0.48966479729468576 0.12720044380861317 -1.5536963002088273
Ni 5.661307486084785 5.367735634333461 9.215495613346746 0.9995767748741816 0.59397342410679 0.23351478819683655
Ni 8.791944763190413 2.2986921064893986 10.101337801467604 0.44438895617602175 0.3812879139504788 0.5667986634642109
Ni 2.321209862422639 5.312653043414036 6.958998525897069 -0.44662118794065014 -0.33660445500017516 0.1745802186441574
Ni 0.8734122059802004 8.996756866152678 8.78244841961391 -0.9123595563267255 -0.25722010223357633 1.0286577514005382
Ni 1.738804835268996 1.1766567451797945 11.318827648400555 -1.8353894478831037 -0.2907056355855316 0.5193047316483057
Ni 4.316907024115559 6.738660023271439 1.7101512169258342 0.2896401704354947 1.3251118594340727 -1.0101260111449377
Ni 5.816924170461976 7.824585585608581 8.311864398038626 -1.1288978645702235 0.5701603808475922 -0.5544931066239805
Ni 5.311631153285338 3.1368771371835162 4.912593005632077 -1.070558505399382 0.1814941721551713 -0.8965696404823205
Ni 0.9884933123673685 7.353485193003664 6.6834435918749815 -0.42892582754341607 -0.1120515039823167 0.9843031365445628
Ni 4.94190587875738 4.533828072939111 7.035316536287352 -0.055264576900259654 1.2751540394587069 -0.24932630130779637
Ni 8.134589068898338 7.025829235986324 9.033927441338381 -0.005561296137861389 1.2629713813495862 1.1091173395091867
Ni 4.764214558945232 0.27165276065454047 10.37122712340448 -0.7097283450826228 -0.013234239302086885 0.3017662642750674
Ni 8.0732394880746 6.814243719693137 4.990975595813347 0.3176556818118142 1.5867884547771058 -0.29038887567606114
Ni 7.042604511992813 6.060287756775005 7.079351861886277 0.26477734575554396 -1.032153166148306 -0.1979939695824074
Ni 2.70804501414967 5.092376939389184 2.539013534932571 -1.8224958797498871 0.27810414477143713 1.1247748435407856
Ni 2.5202252258053015 5.211413574469204 11.238486284751358 -0.38061145670874447 1.3761585415982427 0.7133276323981069
Ni 1.1874905891990806 3.0987597310555604 3.774318634551661 -0.6722838270829196 2.262197714862885 0.753402903152438
Ni 3.5924683123484704 2.6877338174323775 2.7345318636889746 -0.2519246581625919 0.994848259050261 -0.3169504282146735
Ni 0.9607666297604143 3.417300066393903 8.22456152092862 0.5054251454527361 0.14336162694950794 -0.5079970199449704
Ni 3.646492840037298 2.638683091254908 7.227168721166111 -1.1021817887316179 0.31689437816575744 -0.8638888624198476
Ni 4.130895890866229 6.771821714438987 6.049173571215988 0.1895612654340219 1.4098471920999396 0.456070249168692
Ni 0.7513722991148681 7.235253409440936 11.329350403743495 0.03212850510342854 -0.00825195559614708 -0.3970778297948839
P 0.06967572455375104 5.484601883299433 7.938563412387776 0.5932733127159718 0.745257391227168 -0.06040575478156694
P 8.41662170114331 1.8758918481975089 7.821360753574126 0.42739267872834136 -1.8114262521992868 -0.10630843085095239
P 1.7202751638203173 3.458627835315553 10.402821614932177 -1.374095231311311 -0.6859163302646897 -0.9838130842820217
P 4.079294961004755 6.300260114784836 3.779150456638059 -0.42866974566855204 -0.2528731381187903 0.6684228014656166
P 6.675040580303428 3.8730540205174107 10.460939129101078 1.4709967670260666 0.8399009841456825 0.26910939747199464
P 6.395205463998929 7.734749687037973 10.364993593619428 0.1305145957835107 -0.17839779261803468 -0.30149629844313236
P 2.4913229173865714 8.629482319278498 5.62337908441426 1.2160274084998801 -0.3609743992041074 0.48477584463350065
P 6.9557890674309215 3.3615120999874115 1.6990334140566268 0.20512775241371123 1.8414636791016414 -0.10939581152702452
Ni 5.119606241845004 2.6802278987879635 0.8741419983110488 -0.22743875720608572 -0.08913089063040135 -0.9036751411788501
Ni 1.7339938127161911 1.1235908046913379 6.978018342876503 -1.017122754177745 0.9437023323040652 -0.607739881763263
Ni 6.95498421591363 1.1101253675087694 9.15316845444414 -1.2130901802484269 -1.0325257189963766 -0.403086497882809
Ni 2.6118878660218994 1.7636557562748376 9.316762212118004 0.8612794498214585 -0.6647019009706037 -1.1880057264759734
Ni 6.682437979642139 1.419685730300241 2.4359997753395057 -0.5815123155253017 -0.6487620898118956 2.1314424638234777
Ni 4.258243296107955 6.8517733129152045 10.538011348665993 -0.4270178118874259 0.5688866563414913 -0.02733545459015937
Ni 7.862042832626848 7.049549747557765 13.576303218256648 0.8858010891119067 0.9774442046412004 -0.3723702997458748
Ni 7.631882428507607 3.8913304802527837 8.3651247689498 -0.9774832854092521 0.13348267727289914 0.014035909267775828
Ni 3.114901977778787 8.357560069014797 12.411624291443754 0.3578399673401837 0.03413242290733477 0.27901971460717107
Ni -0.15149747239823927 4.922444749934757 10.345510760935662 0.5130299543831874 -0.33016821245652817 0.14884964664727268
Ni 8.702009388589579 2.3618412991326996 5.635635435665795 0.4975434287118141 0.060435322467921715 1.171792864161537
Ni 3.348480740027653 2.951797461308132 11.592555840776653 0.7466519575818497 -0.7145303944569565 0.08365958310318496
Ni 0.9919840167007946 3.632891753722601 12.593707930154203 0.08967956404501976 -0.6233973857948618 -0.021149637494421638
Ni 3.2950982848975645 8.449557310423977 7.89671203781611 -0.02390586008332012 -0.33831860947780446 0.6436247685853302
Ni 5.846821239182977 8.137419614122075 3.6553561543305384 -0.8378908956941894 -0.07912724245047018 1.255656592855728
Ni 3.1912543526158763 8.409875417638812 3.3228475756932068 -0.6863732152964502 -0.6800837827433127 1.946662678938499
Ni 3.239002847124917 4.288113235002531 9.020519881118853 -0.44551098559560687 0.5171223792850062 0.2583740133323615
Ni 6.917300887008483 5.94237248785391 11.49619974058843 0.5972454099898423 -0.751011520102126 -0.41632793627374753
Ni 0.4337643254780186 8.973587994385223 -0.1717932955472241 0.502092224424761 -0.30737795403488993 1.1330365693289455
Ni 4.299435415897478 0.4446867935969616 1.6804368223694315 0.9870557595890356 0.20138191221803386 -1.422002339405235
Ni 6.095095324079039 5.519590316112971 0.5702092658477923 -0.7719883794641093 -0.16711296373283477 0.33116708603468775
Ni 7.966167106448267 8.930858517764918 11.12320351332109 0.23985204326877402 0.3047888531514751 0.015269010343928541
Ni 0.01539527216897553 4.791217779514171 5.762830913879537 0.5742458637708756 0.05180181516263981 0.47603820765018656
Ni 8.363329678767972 8.60984032494637 2.2442931871958978 -1.1937025197504345 1.6702999423382008 0.20621224372714164
P 8.509170582356477 1.2520957491938884 3.768124895178699 -0.26228851789541924 1.241034986287811 -1.669804747869337
P 1.77133349715328 3.208445619294226 1.5664906470544007 -0.9253906784790707 0.7830495223742772 0.8011819703089298
P 4.6952686267223305 1.1677310322857748 8.379816474286805 0.29630832648428973 -1.8864453860186543 -0.8682905910319693
P 8.557470716669505 1.7208991498281057 12.239877116601452 -0.5778659770219661 0.0994960359148093 0.6443657605164128
P 6.2143128246685615 8.099103255933665 1.5838953350339648 0.57186733623637 -0.34124683886819296 -1.21026145255038
P 1.775556706800197 3.34673538786094 6.117112986878501 0.24712106612636153 -1.3408318412724907 -0.8164689783749874
P 6.917391319763234 4.039676371147917 5.901819727640484 0.9347582357368999 0.5810662291268186 0.5582536021076773
P 2.4148348934173547 8.44122845371132 10.295412823458166 -0.12505691510304914 -0.27247959949580813 -1.0177791568148213
