# total energy = -340867.9078845422 ev
CRYSTAL
PRIMVEC
9.24160532955251 0.00000000000000 0.00000000000000

0.00000000000000 9.24160532955251 0.00000000000000

0.00000000000000 0.00000000000000 13.52602355558350

PRIMCOORD
 96 1
Ni 4.666622514907625 1.1058689700507296 6.786681882390397 -0.412437857190722 0.8257586312070294 -0.13634534353267486
Ni 2.9321487958648964 5.0454821230307525 0.6948642863102178 -0.773975585097467 0.2986027789454212 -0.8320179818531801
Ni 1.356834002815497 8.04575079135511 7.12184348414569 -0.7302097528654263 -0.7146530360777499 0.6113661656619406
Ni 7.957391803350104 9.17050036097641 10.29709085836788 -0.18529246285533893 -0.00964060841355759 -0.10945417556878569
Ni 5.104304940586642 3.545911526790162 5.474860966372932 0.03156800461426821 0.09584609786704784 -0.23744497648917814
Ni 1.0788834826566684 9.46700802452129 9.502423704244416 -2.133524800273803 -2.2040892407559265 0.7066491919366669
Ni 1.3320480174761573 1.7899048674638165 11.29648821824113 -0.49447713108166447 0.010466189638646492 -0.020737489657667512
Ni 8.004071151578666 5.152028590210934 9.721518137068374 -1.7562364944010205 1.9325033567189813 -1.6730209408137897
Ni 0.3061457336829863 4.0861757709876985 11.01319974687723 0.7129324538422174 -0.6900907733573535 0.5823913756961453
Ni 8.99765461757534 7.288992702057137 9.338582981020322 0.8831106867639372 -0.13662148001219698 -0.09832515553515969
Ni 1.4271995853560384 2.7470579254785084 9.05583514356483 -0.9787811782850693 -0.11377311465911373 0.32791875430071915
Ni 7.2836510542099555 5.668791432201931 4.115915256752798 0.28519344751805076 2.2723995950965508 -1.3156563704481277
Ni 2.1214936646209774 8.280533773288711 3.5426815857476193 1.2929064783461217 -1.299021590104924 0.06937530527002891
Ni 5.4212088269666925 3.9151044157988415 9.840669229678953 1.4384887670960322 0.10495577347779989 0.33926940342684797
Ni 2.8031452278739044 6.130307957877277 7.4770639901437255 1.56145177578453 -0.6738357449510718 -0.11345686897027557
Ni 3.6981115240137203 4.904695508318039 11.46338606448918 0.7059444525601585 0.19351665053734415 0.5845266768715933
Ni 0.988482099886564 0.6524499389146551 5.484302190318745 0.32959357089998076 0.27655351245486565 0.9791501315887137
Ni 3.60925348932403 2.2134568786820394 3.967358300327437 -0.6011946244455775 -1.8558299751256426 -0.518697694191926
Ni 8.048809762700122 2.954716795938971 2.6420520338971594 -0.9472527686594848 2.36486520652714 1.153094516421085
Ni 4.422385370780829 8.620698780138232 3.582502738703876 2.38579578603222 1.041026043157904 -0.2578284252415366
Ni 3.45909588686557 2.6842797008662287 10.577796301058273 -0.20543577057243328 -0.0198003225553788 0.3695644548659635
Ni 6.062770306549949 1.5907020658271778 11.25746553998037 0.25456929487429064 0.2607391711304283 -0.5819149502803591
Ni 2.90060719707177 4.901886060315369 5.248962863747771 0.49381790023111094 0.4541498922175276 0.2570470669908218
Ni 5.152546120106162 5.977719813232298 0.548106670431304 0.2841526649583622 1.0808490886921127 -0.4029358312375576
P 9.347144404144245 8.540232123035462 2.350619859967627 -1.4341142921774204 -0.0990085547554295 -0.29196239081076814
P 6.477884732154893 6.741427589694768 10.472036294486735 -0.45764787806845697 -0.06841191291549507 -0.9530999714688811
P 4.797788618532252 1.7401757894955143 9.037007221144309 0.9682381126619002 -0.9200715802590025 0.2175132705622576
P 4.93120967384323 4.909334794164552 7.222503972928173 -2.2703252290660254 -1.7396945308819391 2.5005739449170807
P 3.174731692648016 7.150008200372451 13.578639797230545 0.7935609634285624 -0.436033642232791 -0.2018259417339879
P 8.223827283340096 1.7157040187354209 5.941873474703502 0.717306671650513 0.048210241156639556 0.9620736357224012
P 0.5639051946436832 7.902653775324411 11.524388052568193 -0.6924543884935237 1.3128584959880165 -0.25103711335131607
P 5.794726787242639 8.508320860031457 5.753104445418882 -1.6633371378671225 -3.198697101660607 2.2630011846007867
Ni 8.277650392443867 0.4158103184819198 12.766091061066406 0.30314283290761984 -0.44898480307682026 0.1714565854135112
Ni 6.323143293481551 1.0394125865402182 5.077033887589678 -0.5403404692726823 3.4671747790858736 0.26651746837510226
Ni 7.581489508913997 6.147552793314715 1.6974352134338524 1.2381748911311965 -0.8599627878925642 -1.1282805427011988
Ni 9.074914437648747 5.08417672430436 -0.01781873912482502 0.9278131718776342 0.23710944752663038 0.24924274045505462
Ni 3.7648174308665743 6.658724464116189 2.607762905856685 -0.8392636076719998 -1.1008386444401623 -0.7551273420427125
Ni 6.774457086936677 7.143982673735147 8.171043854829419 0.3273983630208749 -0.08274324193650265 0.3810035499408406
Ni 6.222899601096831 2.845573437677375 7.487208500250732 -0.41896383123469777 1.3367723264911364 -0.1249514998734364
Ni 6.836505224732473 8.499217878838598 1.3760704041890373 0.0030321019581044557 -0.14193800712910393 0.4265994934030846
Ni 1.7708209525772634 3.7430996584775187 6.957962097858401 0.9259115839795473 -1.3198043311782302 -1.5924613367921672
Ni 7.1546936942453225 8.248132705205295 4.028807582101612 -1.5580116397547297 -2.6484884813445935 -0.3791217595370955
Ni 2.269322382550909 9.032698784766533 12.580149038834472 -0.21516585337600364 -1.7840974824773468 -3.6437038939262862
Ni 0.09184307319252687 7.525513105781864 4.206268583175488 -0.11407573350119708 -1.0259640066184588 1.3418533405584698
Ni 8.199355512580002 8.61249223465675 6.303573270157693 -0.49675358582066703 0.3259356624324193 -0.016744566448190515
Ni 3.118052927515216 0.36728264919896964 10.010907916232808 3.1214814744105532 0.7995025257239778 1.7862140145997172
Ni 0.3762876693759467 5.304478110776834 5.491010671585645 0.5025413961470377 1.1316373749885738 0.08780831516423587
Ni 4.168148809749795 9.06452687332309 0.8623988791615043 1.0128009868739396 -0.5577496658880652 0.23192250400905218
Ni 7.873773758849602 3.0693773925479144 9.218809928374942 -0.4756607697061098 -1.9865070646289467 1.4322214460300817
Ni 0.7838202820157909 5.280486903490881 8.196175476205928 -1.2780979525783793 0.6858610515467221 1.1291822285798616
Ni 4.089779997043755 1.3813889480230381 12.544589190069107 -0.2314818169272078 -0.45532540058286747 0.034715291993998275
Ni 8.87495382437981 7.558986200076826 0.16710300988508692 0.8263764672966865 0.05788221702876484 0.1249036773546365
Ni 4.3276958831645445 8.144737625422845 11.675162994258818 -0.18408121615605716 -0.7639315705979037 0.863769563233164
Ni 5.562032408100495 8.920441005528293 9.794207059174282 -0.550385255103194 -0.8322619795431859 0.42961308341842785
Ni 6.643595956286026 7.6532413322453285 12.431092111563899 -0.4491791784758135 0.8735346130397279 0.42938296968549283
Ni 4.416831166012394 8.184864675513603 7.636414217366183 0.8063876828795854 -0.8174531966651276 0.045903961620966105
P 6.172532852364766 0.5458507945844236 13.298678303764541 -1.343997640594982 -0.524020134846104 -1.1531024868408852
P 2.8373946170117095 7.757412706870621 9.074838656485518 -0.9238737276139122 -0.22002241013735657 -0.7649682393925341
P 2.1481741790410647 4.7222477370394245 9.851313710631171 0.7849495676104675 -0.6671328790095995 -0.9014881608298604
P 6.377068060243312 0.6712686197299039 2.9904550076860854 -0.8844607730339284 1.2559270729082952 -0.8189254103352799
P 7.376963542640721 3.8757166941298387 0.5662479415801196 -1.0569231740041347 0.7724128685960374 0.8993011804808706
P 4.136366929219598 4.17732572378483 3.611258917668041 1.5128913503773236 1.0178730020802083 -0.805880918446496
P 9.273026729863298 4.564447327021071 3.3235464898604636 -0.4411552797300725 1.7001769324032912 -0.22579196563128212
P 2.120772819409766 6.9140145681482235 5.369561191743935 -0.6446184999571672 0.24422780373896652 -0.15560136354880943
Ni 1.0532472696323105 6.3626326728085445 2.0778538803663555 -1.1882841769483405 0.5997722901767542 -0.48706026979230305
Ni 4.007964065571281 2.84850302654858 0.9899062312589698 0.8495675607011692 1.6145342574318067 0.08884626951044698
Ni 4.397950566441823 6.3140033458676035 9.568092702985757 0.7362868122974416 0.004110936844580016 -0.23464350248464105
Ni 7.17532095721229 3.8625381650120545 11.809043357351815 -0.7129697348380559 -0.11049392968720971 0.29793609189569975
Ni 3.238692842735104 8.80311882660103 5.557775724712239 -0.07682199135606124 0.353723631178965 0.6884550375261435
Ni 8.36742334605548 0.9811535069059166 3.976597133117794 0.8262805651487705 0.03972817182755738 -0.9857588951544829
Ni 8.971556324287384 2.6998702889599895 13.25085022400068 -1.4406441228761382 1.7655503156027788 -2.2498070545080155
Ni 5.950253762364095 6.071614522795195 6.065515063315715 1.9548554991619362 2.2472935440575426 -1.6047285841952945
Ni 3.6684090046697095 3.455288345493531 8.326876727085375 -0.06880811991264925 0.8527863247487829 -1.0211043645333124
Ni 8.632980873544637 3.521596863319691 7.078046592601445 0.8115792543828539 -0.9130642957032338 1.0646447110181085
Ni 1.623823979121806 1.6563544296790305 13.538873169745393 1.545825639211499 -0.3840963299335514 -0.32832498860020226
Ni 7.697822836077162 3.860477287036412 5.061749196630419 -0.4486258770755048 -2.9369917099621676 0.15478221008162377
Ni 2.2052688164111016 4.631042334610661 2.9358777835921237 0.7314878482469015 0.5820604747192879 0.9531228542870166
Ni 2.41905487116686 0.8116800252685774 7.781561945606724 0.7858250282368854 0.7160213771801862 -1.1688178406936127
Ni 8.895322322399164 1.424685868722071 1.4584436044594087 -0.6207314089269245 -4.837574563823469 0.23774322445588733
Ni 5.817026780763827 4.404576797421803 2.2324298943053296 0.06076210967972117 -0.35869640180320805 0.17392715844119078
Ni 6.721059091675416 0.6600493109297703 8.102602374506496 1.4578064935880377 -0.4134778684194621 -0.668819522683403
Ni 8.398558314216642 6.267203856770505 11.620220726756616 0.3106280855410715 0.32323728966464976 0.39328930928672906
Ni 1.005070781349694 3.1281724852879886 4.599510901583333 0.1366163378058744 -1.1733998036373405 0.37281844302688694
Ni 1.3276767381825305 1.1046305949442896 3.2310694425462816 0.3467364012278545 0.2961561171771416 -0.3577363518827839
Ni 1.8065027905322186 6.092269510577977 11.44658667442585 -1.0730275357651649 1.2781578592820375 1.1447348316024801
Ni 6.210562058058793 2.0483833253146706 1.3782070633279095 0.1953105092129733 -0.3781069451193359 -0.39466279259548803
Ni 1.3572221502369184 2.909682453448814 1.829029203382569 -0.7132636119293909 2.5367470524035283 0.08749078392381705
Ni 1.8022793769229426 8.591652414768529 1.108416880624203 0.244838697850088 -0.24091185199185605 1.7186729343249498
P 1.6542011356506685 3.826791635820195 12.914647093331238 -0.04366633053969899 0.09996989022743429 -0.36409957509665036
P 2.831452264821853 2.0126090713069957 5.985143594747246 -1.0234075587451923 0.2043309675440287 0.0467987055210936
P 4.931486922001389 3.432988351972343 12.392028770239941 0.6567769896965722 -0.19897998764476052 -0.3629796025595942
P 8.10777120433509 5.581827926592987 7.0747464153588355 -1.1122569135794327 1.2878432048906014 0.5206974982307743
P 2.8131169199623263 1.3610204500036853 1.7182103420851706 1.0583905025782805 -1.9190150924245597 1.6200063362899715
P 8.937935364308073 1.3375744974287767 8.511709756684677 -1.1423529616338648 0.03843747804059186 -1.1325542303758882
P 5.883594063537602 6.6456568342616675 2.752180547280744 -0.7815338570606992 0.8611928036449233 0.3889436307235237
P 8.240231132697788 1.8794652641541747 11.223542379508665 0.6884730352482724 2.1003251735933826 -0.38502758349856914
