# total energy = -381172.3564082428 ev
CRYSTAL
PRIMVEC
9.22121491968866 0.00000000000000 0.00000000000000

0.00000000000000 9.22121491968866 0.00000000000000

0.00000000000000 0.00000000000000 13.49618012964884

PRIMCOORD
 96 1
Ni 1.0873933383018661 5.471315717442986 3.7413844283579025 0.7023356521629776 -0.5944683614653374 0.5435479204663866
Ni 0.6786758924299277 0.9290835189115314 4.368996920516633 -0.5786504205964743 0.13024797238568536 0.8138037728379984
Ni 9.66991933841265 2.1370903496193607 1.8826770273349167 -0.5609915698641307 1.933098309990503 0.7215698178022412
Ni 3.0847361743575896 0.9423344048891591 4.873119823305989 0.7882344090093263 0.974213870629361 0.9796029028554162
Ni 2.9878949742622205 5.857352662862195 11.4117764248776 0.2165856165416657 -0.15902041653268742 -0.9214005834830712
Ni 2.473710803769184 5.571697864104403 6.506036553453407 -0.9421434724573773 0.24772039027325726 0.041571395683883246
Ni 8.560625614448387 3.15985219187586 4.0554940524112855 1.0240174244150493 1.0343848836923022 0.7107030502910663
Ni 7.003088628568688 6.09422723418669 1.701665498697316 -0.5977578308498865 -0.10210236318940479 -1.403356185058957
Ni 8.156183123857748 6.037489098194801 3.8386507264654974 -2.007250467823885 0.5877508402358459 0.19430366521501377
Ni 8.87383340367323 2.576084732874001 6.374988334135625 0.2482232980516048 0.34313531414015747 0.40415607679790394
Ni 4.565783181681671 5.124699466216094 6.652658482811283 1.697814602818702 -2.0730717371940686 -0.4583204786554494
Ni 3.6263073534473937 2.6845170002441634 11.309866322888073 0.4590948949276286 0.9944106572922101 0.44048859268035107
Ni 1.541528956612362 6.772678128970233 13.088987261353154 1.3024455281848086 -0.017262129514557367 -0.44668417996810167
Ni 9.002367919777718 2.2712590280984712 9.194353616405559 0.23197444029291014 1.2273811429498023 0.24372078219556093
Ni 4.209881166933922 7.075419839152204 5.477559402130148 0.5874947583609819 0.24091673708786251 -0.37510261107537335
Ni 6.7255392778097365 0.8670431842855895 0.8911455960937474 0.5335170185929456 0.034720434200320845 1.403643634392389
Ni 3.028062586870812 3.114981759609238 6.0669379704690884 -0.031435335691145865 0.3347056953155655 -0.6732215084058406
Ni 3.3075207291380235 5.184489824378194 3.9413704511334045 0.6822391385234186 -0.6310078511522681 0.39107430391328135
Ni 4.884127187670285 4.314588063437722 1.6495167614187654 -0.171550173568582 1.3578327467058615 -0.1660927499984365
Ni 0.4301189638019843 5.138309979579335 9.41168290038268 0.2502341578340464 0.47154597620678795 -0.7408368935619692
Ni 5.84624109876822 -0.062153755570635655 12.444558039370209 0.2580778222481813 1.624244542741035 -0.7256529867326793
Ni 7.883456468552032 5.243459494403892 5.943973990355612 0.4957912219073977 -0.667064230555193 2.097706247913297
Ni 5.167550452394267 6.3639385521822565 3.1824801314030005 0.7510333744789968 -0.17029341834334544 0.4520950665710278
Ni 0.9726814235059805 0.1967512205479784 9.699570155295783 -0.9212666290083682 0.405939651060888 -0.15657658297788518
P 9.339246567947983 3.435252999536143 0.16091942323979094 0.17711738324371432 0.46161997534232757 -0.9064293068852195
Ni 3.1587548672889865 0.4893044102590512 11.869863333822343 -1.4085474994519096 -0.4118403328160391 -1.602736236355614
P 0.8575075258378061 4.341993514464521 5.628878618417046 0.022020213024833046 -0.6154637327700819 0.03590545564735752
Ni 0.6930674427050031 7.120170395623621 10.847622490214233 0.02301111618319263 0.8382040560592338 -0.39371894062498003
P 5.921052816190971 2.4084891499628096 11.260646243498524 -0.08805462684708706 0.7522168532641368 0.7535276016557604
P 6.465316590065372 4.787304430004948 4.521706696027905 -1.8599224000274615 -0.923881698033712 -1.6961166462909887
P 2.532090316033875 8.287105934651317 5.556121387699803 -1.4042961803747236 -0.4429056867622759 1.3543108495955323
Ni 2.0513975984780295 2.900643837783228 3.7664329368266762 -0.8370910255007132 2.159940057042538 1.153152366242214
Ni 4.1380202383162095 7.754387121976629 12.582137645283645 -0.8813389395754949 -0.4625795110421195 -1.1174813952031657
Ni 2.3124317531437795 0.9658023971042337 2.7468505695076058 0.27869164184379097 -1.7012172007423476 -1.9771526199972398
Ni 7.83260146774019 0.4358545595417786 5.80463958722468 0.2874051104573889 -0.9479701064414835 -0.14741471397295902
Ni 6.564057360453985 7.554452738005215 5.344217866637949 0.2236371240718084 -1.438170207414349 -0.4043517377484778
Ni 1.5990508958805882 0.959172343507912 7.016137569937471 0.5553184307387534 0.12310184825920736 -0.3064258745342658
Ni 0.02850461985667536 6.977573526620118 2.0909095826990014 0.3626049928289949 -1.157385430486955 -1.2135231540207874
Ni 7.107205367311481 4.016189545528168 13.421654580625729 0.4931321870179958 -0.06925189231828718 1.0722909147094566
Ni 6.680060245352076 2.4391589111051823 5.281986652861183 -0.5909048124837952 1.9825133700885211 0.5038246337348355
Ni 4.718661705427731 3.008034107856611 3.7422751977284237 -0.7378114764720841 -0.3372238337517289 0.9951927868738732
Ni 5.0827152742493995 2.5681637091754745 0.044943279865246516 0.29829038991132495 -0.0876735893585845 -1.1552169620807267
Ni 8.377851911621276 1.074419088774711 12.564579529772162 0.6024305537352077 -0.3877583521661709 0.7382866163362897
Ni 8.063602125099653 3.2302008412309897 11.333848858901026 -0.6725288532141901 -0.16813909100450397 -0.459947215625595
Ni 5.700250822638923 8.705011399164944 7.155270028459558 -0.386770791441921 -0.9490643679469268 -0.0947459228243336
Ni 6.424715580351041 8.552409511869357 9.396796170861258 -0.6477616735718393 -2.239905736233904 -1.1047914584403233
Ni 7.547177199357791 7.971205550641875 11.43322128251822 1.0289706546552666 0.12516978653182959 -1.161947595936341
Ni 1.9875960117840796 8.247786673824173 1.2594298583646408 1.4777973348876678 0.9145956447460958 -1.0151507180530388
Ni 8.753514990147771 5.945986981593549 13.34356564338638 -1.5343850014747251 -1.962820519645284 0.37303390147180265
Ni 5.514775303812199 0.5157065930921364 4.900004275684397 -0.1280026279949344 -0.6287851324693364 -1.090486868892193
Ni 3.954471953427777 5.87613627784927 0.22742098169035102 -0.5378428996618093 0.09393371133568339 1.3931422206404331
Ni 1.207951503417735 7.697870295145119 7.988605061255086 -1.1740199537198426 -0.1135813103632818 0.004388615985998894
Ni 0.9636630752205806 2.021142792011365 11.27326455412607 1.279838075197938 0.688736316211988 -0.06228574541309918
Ni 6.6812313396590755 1.4576158999690694 7.940166940898871 1.216589451650937 0.6029576298832713 0.8668813693892683
Ni 4.113648567029592 8.590908084560096 3.326929542503167 -0.07867472829408385 -0.20910242079074312 -0.5307577106802536
Ni 3.3081385505440783 8.584434791619044 7.65313080413172 0.6072305462270123 0.8664221703646626 -1.4771522451045014
P 6.290408583646694 6.798764946249778 12.76007205447049 -0.38059525875882844 -0.49600822301421027 0.834379540106821
Ni 2.73772341088502 6.117446253596339 8.84056510413942 -0.2454308229081322 -0.3857202386902196 -0.03753064995560633
P 5.934377471888725 3.5147490941868935 7.479407723842566 -0.35103400016194386 0.2046011904862799 0.2828789404522612
Ni 3.204418324046963 1.8880806593341442 9.01068453360042 -2.624645356178409 0.3365100955141559 -1.977478378767775
P 5.05769811791168 1.4028049979154729 2.166434100042469 -0.11318998846213409 -0.02049117797481632 0.5768069396298324
P 2.9287777647962705 6.647564683636585 2.271515377875909 1.1196177248198784 -1.030858872816915 0.26781741813344845
P 7.902599710924721 6.721684809933154 9.265694468496383 0.8091536756604968 0.606344029857001 -0.6243764618786796
Ni 6.765015299292147 8.443257989727964 3.207421673777591 -0.815640311826105 -1.4544627739267852 -1.431627778310141
Ni 6.2388435492786405 6.080201766147739 7.815111589219824 1.0492949680349155 0.537656751792932 0.8102458802834112
Ni 8.828686334956135 4.450960612305597 2.242119988648713 -1.1860123501950284 -0.07474788243585191 -2.3796037982888953
Ni 6.115131728627387 4.253967795924206 9.819010709151744 0.5452222228450158 -1.4903844275240592 -0.08670762590088937
Ni 1.5689620712842076 7.956534597551823 3.617840433819935 1.3443005165473816 -0.028634375907241008 0.49678829571334443
Ni 9.254872450553902 9.219656630408767 1.8539298895233274 -0.8803436655417612 0.4633840092212858 0.4272345558839223
Ni 6.628781068649509 3.1531852534194758 2.379363020214073 1.528976171754328 -0.500444661519009 0.02443242201075147
Ni 3.9598294793519258 4.1864316171488785 8.960424301157095 0.8529061381560987 -0.3941179758356116 -1.1736240038330046
Ni 1.7114943917826002 4.860327231714644 1.5160396740658357 1.1204798157098572 0.4601958413012914 -0.2685478685415698
Ni 5.182664023805076 4.605231539519035 12.135117116479297 0.14293199561125708 -0.006518260734492001 -0.1454215948023302
Ni 4.7073103897433475 0.9427585807798834 10.089690254723964 2.5803403636134465 -1.713000823640837 0.8596074614356743
Ni 3.210283016796977 2.7524773549102144 1.7158504937560388 0.04590241895906933 0.5074462896478229 -0.6441518447333939
Ni 2.651514271702807 4.050750659407186 12.990950991791745 -0.2676119869908617 -0.6878562275998799 0.036903815004884835
Ni 3.8571512501515897 0.5775228521931957 0.4838703482502718 0.5416869559982478 -0.5442722002269207 1.8182864696542298
Ni 2.855810290376669 8.182832435253255 9.86688172478449 1.0366983623168273 0.1728436955690249 2.088301152549313
Ni 5.260020796572173 8.008182622855017 1.1794579490190784 0.8314651946735035 -0.8985581316672591 0.022887446121134775
Ni 7.33609436643234 0.958370097801542 10.46144261596228 0.5994964108075482 1.6759640826025135 0.424098838468418
Ni 8.163080592689527 8.088296538911823 0.17332380167897302 -0.6365352087284005 0.6265277038937274 0.4890109657607707
Ni 8.12983811255776 7.593255610791476 7.123148848073707 -0.40508038838438626 0.49714696460434377 1.6267909633119724
Ni 5.369467397594067 6.380988578746371 10.538073679107637 -0.6332665652794578 1.0076940046646774 0.0378073006557607
Ni 0.6965115665133845 4.822529471365098 11.600128962789235 0.9151126935918305 -1.308558840171398 1.4768136308181599
Ni 7.630324895154776 5.6503363857586875 11.045759659379076 0.4166904618194888 -0.9215677051885547 1.1858082046040221
Ni 4.720625824226086 1.5737202182323329 6.716293165513448 -1.2448469038347336 1.1386960816075677 0.7933159372972918
Ni 7.78256715506475 1.151075049200611 3.310005846584767 -0.34888995723574756 0.8498730077567299 -0.012030191691656702
Ni 1.8615696661638734 1.6093694354832084 0.04167804762817071 -1.2652018133420015 0.12362403931126453 -0.2631529227782436
P 0.9932631754211266 8.932729303978801 12.427039575083292 -0.04048099083318189 0.005534556664984016 -0.2805721466959555
Ni 7.98413369409395 4.219342133540078 8.137589465899996 -1.0101218973798798 -0.40551541903927585 -0.3383708028719785
P 8.840369614381085 0.8061582679011206 7.755620920545736 -0.31502467194687034 -1.8433112738333417 -0.14868561026558264
Ni 0.6195706705434979 6.6742877647522185 5.857733499042345 -0.35478986765995024 1.1042168168837756 -1.4257782615078993
P 8.750075476946897 8.142406628624222 4.047423645029505 -1.273320328684078 1.0157402720079216 0.7859785230956141
P 2.2235761252520465 3.7024930319074905 10.02025266141239 -2.0050020381093407 0.4182421225773248 0.29156566959298175
P 4.608588061784766 7.252107540068921 8.681808977942323 0.28505743616081874 0.29855135688219553 0.008369712120933973
Ni 1.4346181897197978 3.5986529296151697 7.745471129177904 0.24753295685279952 0.2715863982575774 0.8746818392702936
