# total energy = -381164.8756369067 ev
CRYSTAL
PRIMVEC
9.31264043293495 0.00000000000000 0.00000000000000
0.00000000000000 9.31264043293495 0.00000000000000
0.00000000000000 0.00000000000000 13.62999060972907
PRIMCOORD
 96 1
Ni 9.382392109698555 0.9914609510436302 6.663797688808846 -0.14573064140231679 0.8416146244026795 -1.2669211100259536
Ni 6.5293063982056205 7.431058683959544 12.194616748764245 2.8245455416445937 -4.562316373141258 0.7396734693814874
Ni 2.2327148564177692 6.2608695377285315 12.241476092894292 -0.2332661625211402 -0.13191379012388246 0.3384042272130752
Ni 0.2286392915872754 3.476064105889301 5.411214956348138 -1.2970636950476049 2.2120982271033323 2.017816930485822
Ni 4.839024909080441 6.497345416240056 7.200737529510095 -0.5244798480913418 0.6691879617664153 0.212327355485944
Ni 9.203775666196368 7.123210729170609 11.927045963847414 -0.40272088701327413 -1.9669543393079993 -0.21701499076960046
Ni 8.719564926889996 7.946336391749925 2.1524752839201913 1.1792284945039755 -2.7916994416488503 3.125827410084075
Ni 4.879953963782845 4.10420170308547 7.467680642461751 0.9271878795888097 0.8112653226868609 0.31593432824533324
Ni 2.0571343336966934 7.230678599765771 4.734799699883998 0.2670877390562755 -0.9326535306890711 -1.6212810892373368
Ni 5.865473450230312 8.919991574285934 10.897490725849142 0.6153763152625982 3.481273680381101 -3.3625560772325183
Ni 8.569258910303693 4.029020756871019 0.2501012027288364 0.920272383415899 1.5875736696825626 1.0577364139340493
Ni 1.6646624152943907 4.680197826498074 1.0303309809463297 0.3338798569801604 -1.0912304319264368 -0.7730052507643977
Ni 2.6819752561796304 3.2310299108199816 11.031255630498604 1.1116264790842856 -1.8805174505699938 0.0676565228067093
Ni 6.509265595994113 5.27869328919646 0.014267896407179383 -0.0011194583164238785 0.9149982795011532 0.5851054321931988
Ni 3.4051204110718003 0.7750268060076564 4.962352206332758 -0.779773936946799 -1.1089509891346516 0.1677076598940402
Ni 7.054259939405738 5.497372711840796 8.48750417120769 -2.4854681996238934 -0.2210194839433032 1.2084745358532862
Ni 7.027560599284739 1.4003789924503574 11.96409257875336 1.0838737344510496 -0.2203715659466592 -0.10542602824599906
Ni 5.9673723618466274 7.182727814176993 5.112745761739132 2.0874285201363727 0.6974801238428892 0.5948895081631562
Ni 4.246955168280726 8.448725405181232 3.520204159012954 -0.09415996841387654 -1.2431502328586008 -0.556489568228719
Ni 6.601609738526318 8.5079537983342 3.2244197986407404 -0.36237770730953717 -0.1932909076797832 0.03654720299641448
Ni 4.500892247603856 7.038959271174556 0.41840482821567804 -0.29987598923089 -0.558630782941438 1.927399974054145
Ni 1.7579936977124782 0.4694325102034717 8.392203265338054 0.8665923773939398 1.190592770476859 1.4307641447582649
Ni 0.2625698970043879 6.56764653886769 0.4806831111104056 1.0561577565930198 0.15693242365540713 -0.24306463666880074
Ni 7.745583801938838 8.712869138418773 5.680421040924979 0.5625450303941796 -0.21735849015194825 0.45148957177654503
P 3.5244618982188562 3.6513466241165253 12.991970610209677 0.06052299708572157 1.3435813789931699 -0.07138976459689642
Ni 1.0204046375089482 8.139284988878277 10.344100105823253 2.355775842631362 0.5644412189756279 -0.90374687495705
P 1.746595025822662 4.48251840802983 6.520124134738824 0.5986209501811304 -0.6859916635873153 2.2047857526023193
Ni 2.873927400781668 3.5875550371514584 8.579833413515201 -0.8069695235249845 -0.14482098510385383 -1.2112137891613204
P -0.3698915591447556 3.4060516751150858 10.109459748741044 0.6915997538027122 -0.48404719399759216 -0.34164201742408257
P 5.214799263186632 0.032720893424884455 1.5793344160643001 3.7237791021123225 0.571873506883957 2.3706920976215624
P 7.673233898415976 6.395241626534218 10.598026009977861 -0.15816192518713404 -0.4132055885946819 -1.2500047938865892
Ni 6.661536579711749 2.9824103491840126 9.492961089557859 0.20504059201654368 0.15833984552589506 -0.4812346642494615
Ni 3.7823009738833524 1.5483847868497451 2.867232543574487 -1.3272831560537786 0.20472588898960226 0.3004020369376891
Ni 2.0049649219918315 8.645650499774415 12.791733009414525 -2.1515371776908236 -0.13140059793288983 -0.5788301407074483
Ni 5.769618442254921 6.028817163422615 2.44288997581882 0.4700107705091841 0.5476588573109665 0.9577300140417249
Ni 0.19916478461728468 1.0093412206747145 11.252851772126512 0.7466442442723658 0.8937668809262027 0.37768374153898826
Ni 7.028333548440666 7.872561654240835 1.0595670843212392 -3.1842071355745483 -1.0715833471194707 -2.793985409469549
Ni 4.403342339069685 4.5959556811424545 1.254291601980138 -0.641924755175088 0.16692218787826735 -1.0520941280466074
Ni 8.542000811756722 1.4005466199781487 9.020668667477457 -0.2115578243097711 -0.5803496626757683 0.3294596164252777
Ni 8.728551624907704 2.167582249230371 2.344222550432706 0.5193723516614475 1.1038581479927763 -0.32146579958652377
Ni 4.634426198770584 5.723474308910117 12.298380982259264 -0.28878142197962525 -1.2274477345216794 -0.9315047617966087
Ni 9.167847499406408 6.098783030994666 8.675870949243077 1.00155266765363 0.3974190151843865 1.0176811977843765
Ni 7.661555847313174 4.642770324598424 4.238476940430654 -0.8808159771924894 -0.8326026507120565 0.21360467953647083
Ni 8.186984333175367 8.623141847848201 10.194674133757854 -1.7877826446384177 -0.4646032263403676 0.0951279887541007
Ni 4.4171157342698795 1.970033207728187 9.554350946555292 0.01544435957952824 -0.6440592850195875 -0.009508967931699754
Ni 7.141593881385066 1.1906955804641612 0.779165343416018 -0.34340527997209247 -0.9321591075511558 0.10776110413707891
Ni 0.5797947494451671 0.003922484150319141 1.1974332758173327 1.8806089818425353 2.484677842512114 -1.8635661674276356
Ni 4.843839544184228 3.8731271560250016 3.551498355923525 0.3305402510839662 -0.14956698442927144 0.7291638280994152
Ni 8.49650856324222 8.866443891797008 13.03681376768601 -0.5385808062690982 1.0490311728505677 -0.01367826881804096
Ni 6.591105080118056 1.2446157685704 7.066086992755466 1.0038216661934647 -0.34265400362836473 1.3547553933321184
Ni 4.553117535151315 4.561806228675169 10.26921623283861 -0.11977278388597438 0.27492034772681684 -2.40836878623673
Ni 6.114167512989745 1.7779413735196568 2.8289315160022355 0.2257551988560757 -1.3776274128342854 0.5290564117184308
Ni 2.1883028741934765 7.021786762216368 8.674616536576771 -1.0411553696469167 -1.0335960692424198 -1.2113477436360234
Ni 2.5105667963724745 8.331944894153212 6.662666202996254 0.9865111999394753 0.6838057116795901 0.7321848743139262
Ni 6.654011966242001 3.6801971841775143 1.9536001224203685 0.4890981261579383 1.5082962748074735 -0.6659440009078208
Ni 3.440592258480551 9.096903804588907 0.8279486790594931 -2.989630419203806 1.107170757305777 0.12151290650553266
P 6.776640815461855 3.0903904150029833 13.465776336360415 -1.0956349887520356 -0.5235089995376403 -1.1554293352018488
Ni 5.395818367920496 2.98585602614417 11.61847627942493 -0.10439038789263314 1.1098827569203016 1.3917260570191967
P 1.8262274141640176 2.3220975792923255 2.0525543771318144 -0.6749906844911213 0.392133341305415 -0.30685370610030377
Ni 2.7590932316041146 3.917418073923667 4.808020335287331 0.6031597185917483 1.0373280254810264 -1.6821725254060709
P 2.3314102197251816 0.5698367430303136 10.866551340539063 0.08143635019962103 0.11760637236227486 -0.9854588474155609
P 5.6197221818476635 3.048101714797382 5.602198586345158 -0.12729120375020658 0.588004865228181 -0.23161062919558822
P 1.0834325879585205 9.183800052467891 5.119056006896434 -0.5935813308746938 -0.03515829306868784 0.47677431448526275
Ni 5.820912465759095 0.8834650537359237 4.904779600648754 -0.857801004354555 -0.795743572902178 -0.48858750507010695
Ni 1.769504121287489 9.029452349933727 3.113321860804849 0.8609120391797107 0.3165758184840742 -0.3038064346335478
Ni 7.284580162591144 3.797415389305879 6.942053797358337 0.6389119364906932 -0.09056248087060531 -0.6555629147838129
Ni 1.124398893222656 2.080313495734073 4.185374402154419 1.241309065884804 -3.1140774686369985 -2.2326544539881295
Ni -0.5875624228302126 6.62284255871323 4.273792335480131 0.12154247419188743 1.0694153929338743 0.6225419797731021
Ni 7.619239209186275 2.268931715061148 5.036022642269001 0.6712101344027667 -0.3520616700955098 -0.7237578265924954
Ni 5.496087567461061 6.862829302667941 9.95471812151657 0.4048708434767414 -1.0784052551373104 -0.3625258028516273
Ni 2.384417769069001 2.2159800415599262 6.21150043700183 -3.626658508408225 0.5440881092405726 2.1734779436279728
Ni 6.61775785703689 7.980364779891582 7.935408008201968 0.25597645963446236 0.3102786726214527 -0.4377534531373751
Ni 2.8770657606075405 5.911068137789577 2.6577530784137706 0.8393363698914641 -0.45027961062884386 1.1426717784258644
Ni 9.313478570495416 8.418701452425703 7.917103082167145 -0.4914571133084181 -1.2410020761673466 0.20519151577211114
Ni 5.358074236246128 -0.4039124971740668 13.042101484923785 1.9837300161044416 4.209002575806203 5.000402269917389
Ni 0.31974857799808326 2.9806781980635018 7.884486490315108 0.953371737073029 2.136227029696314 0.291780099596633
Ni 7.492252044243844 4.346851862203977 11.470972436344875 0.011400528527457784 0.16424875481116227 0.11569912803723299
Ni 9.264987651761533 1.9520132484906096 13.513522243859672 -0.4879629841122306 -0.9348546521054479 -0.21889729539397784
Ni 4.381038565232993 2.250436811161495 0.7917159889273785 1.1455087336540273 -0.527603224211672 -0.8372892575544484
Ni 1.6502185099830304 4.970081697892031 10.112417443342519 -0.9481027753646059 1.1920197327313726 -0.8584671771836441
Ni 0.7705530135437122 4.323262943987552 3.2709662380522433 -0.012091898167527561 0.4029707982405512 -0.7550355536598545
Ni 4.030082397880364 1.225366540795686 11.984946374474655 0.9911859797073252 -0.23826284440478318 -0.47996119685367666
Ni 2.1908359123912136 1.9026935047582019 13.035014565554382 -1.3184717284097358 0.19705294582537677 1.3403186490814982
Ni 8.212649970208322 5.539437908676008 2.0370292742661995 -0.16052734009551706 0.29470781476638924 0.6308124473120104
Ni 4.3050101687391535 5.991520038489026 4.688975921370084 -2.1855382172266165 -1.3530165562641407 -0.5350015735582722
Ni 0.8042917785679079 4.022939602668363 12.16135944725043 -0.4891585470822285 -0.04839458925330375 -0.3074730848518576
Ni 3.9175018876875627 8.431953339761657 9.044085301845875 0.8189781179500863 1.0069046759941627 0.04730624128513144
Ni 4.010432726567037 8.26024687546065 11.677031368674603 -4.807765965102468 -3.633554978417742 -2.1804944841551226
P 6.542399970654215 0.5134989934677052 9.182197347049396 -0.12845385659974007 1.517885204047489 -1.107448950667828
Ni 4.29316449010856 1.9650881956583404 7.0391818432809 1.3592841344404074 -1.664881856646423 0.7831263983587997
P 3.3572068760447538 6.4694633707840845 10.352073588561863 0.1999382377929718 -0.24484332583577828 0.36298448765560065
Ni 8.540417662883137 0.27149420033119426 3.596927278483085 1.0813687086410086 1.254950567927639 1.637299061932148
P 2.1659432245141885 7.453753588694415 1.497404599328159 -1.0959509773305576 0.34930056241060486 -0.8937275430478351
P 7.6971766969688495 6.155199006736909 6.563508001459328 0.39711742478356765 0.5433442890960126 -1.1339004599911375
P 4.770716691505438 8.777722366393185 6.099080104224474 -0.34077401299683246 -1.0874712219943206 1.1009867399822524
Ni 0.9365908736132399 6.385034972619808 6.592486144694248 -1.1568449846024529 0.6720210603398362 0.08670119814298616
