# total energy = -340859.4660834559 ev
CRYSTAL
PRIMVEC
9.42922188085770 0.00000000000000 0.00000000000000

0.00000000000000 9.42922188085770 0.00000000000000

0.00000000000000 0.00000000000000 13.80061934299155

PRIMCOORD
 96 1
Ni 5.7684113456993495 1.7887328191175158 7.007471447238529 -2.745313398185143 -1.0503671180531717 0.16933208287134063
Ni 7.041318582084967 2.0791434236794335 12.554602528560567 0.33835511914269467 -1.3817584042835236 1.0417454378224318
Ni 4.810317540090988 7.048569653707686 6.347126066656065 -0.53420144625448 -0.9560886217835598 0.2670370883239982
Ni 2.5929794405954745 2.7751520072416724 2.027793767186583 0.8138436249369982 -0.5963902610783987 -1.1435222993516176
Ni 8.724689275958973 1.5387358595165506 2.9313621543742245 0.8782420458177262 0.7339190833962135 0.21489177377901053
Ni 7.115686855021746 7.1767127790038465 10.558978437648666 -0.057184419630791836 0.30514572227026154 -0.1498163814359162
Ni 7.451329436923302 2.528059247978545 8.810508395942083 0.41483155423387913 0.8431907106405478 -0.43229500112596525
Ni 1.9442584047418627 4.530109353599008 5.270884110940206 -0.09413785692668948 1.8563246553738741 2.4554685679380097
Ni 3.4027704445365785 7.479089066126533 8.396918208479583 0.36275257415045264 0.2540967261132463 0.015096746432122388
Ni 8.488996445944048 7.328042360893332 12.634039008255748 0.38930229961452306 0.9361456030027298 1.559684142361146
Ni 6.646554779020282 3.856674327208146 1.976635523897818 -3.185651581330559 -0.15883812531855224 -0.8364117400455015
Ni 0.4462954435397444 5.030197565019699 7.341832597887123 0.25014648321624666 0.37341185363651175 -1.2355253693234913
Ni 5.099587208805898 0.8192664290043941 11.176555696567714 1.2088087792642537 0.4928251973005383 0.30108517904764276
Ni 0.7337924185419481 6.832565038970052 5.314660216422174 -0.4926423918657709 0.24387144884081224 0.899952183801308
Ni 5.524326508214696 3.704590407568574 11.93416821541306 0.246556194761827 0.8853130937318946 -1.6053883292664803
Ni 5.58725713501577 1.6308310695803918 1.2191880164353046 1.1026165622761914 0.682202114637896 -0.17463421181054442
Ni 3.500824922826113 4.853503376283514 3.206684118090011 0.1384158529084584 -0.8190133420633959 -0.3111762447350576
Ni 7.6238370511465 9.417284481202065 1.7200399948279599 0.21495450869614594 -0.3298391112518836 1.2669486208297793
Ni 2.57511106514027 8.277640437591328 2.6732079749282476 1.7920347350465522 -0.9571096068489064 -0.22954269092296598
Ni 4.638545405174126 4.1935992832848505 0.4334707588660645 -0.37688361423519606 -3.2850555717521943 1.7041906815483747
Ni 4.716100755105026 4.207563960883351 6.11895964154264 1.9913800764505316 2.3770527497322678 -2.993980982863018
Ni 8.09619392102959 6.494650014596356 6.67661513836128 -0.20782355407831948 1.2324264186831935 -0.3252820880088204
Ni 7.269015431948962 3.192027335605806 6.286265154056795 1.0540216840866232 2.264551302696726 0.41280861026657933
Ni 2.997804223401956 2.676833510739607 4.727181033731627 0.5132145595901677 -1.7182659286945183 -0.39355490424329
P 4.241047127765372 8.357289074778722 0.2461479512311423 -0.5433476315301223 -0.9393000894713115 0.32283516913022464
P 6.240409905151147 6.753076698554552 3.120457655721853 0.87171941420786 -0.33153321112485484 0.8245152457182315
P 8.887447074762287 7.654010561150012 8.395151172300002 -0.09592040274840899 0.006512604307537171 1.3482954966393874
P 4.569664939369236 2.148947953228181 13.036616807489157 -0.2023252499679096 -0.5413452563881128 0.07922314459838614
P 1.5694751228326276 9.297175052944338 12.156192445396394 -1.2106376049428764 -1.3234856366845593 -0.8673660223351708
P 0.19271349378148703 1.4346749668919418 9.308269475403755 -0.1188279034742018 0.17892872542084023 -0.454866715778894
P 1.7559002685449452 0.7808781809024271 3.5786527772692316 0.48473187876944257 1.5297246198845784 0.5011548002121563
P 4.64008236833993 3.013730179150684 2.8225300754803104 0.5628733602678757 0.2219633359138113 -0.4068649910886348
Ni 8.823139781567303 0.2675305976795679 13.605547767827233 -0.26146936442823354 -0.954631320511743 -0.11378237063049436
Ni 0.22974393393329598 8.303759382188117 10.681485717029481 -0.03838374198452099 0.04135747990086426 -0.2053666078973947
Ni 3.9326172801982326 0.9255563896805122 9.010134452280939 -0.8731764583693606 0.06739607005647104 -1.962889939430639
Ni 1.701757676532395 9.162667202881812 8.839047821794468 -0.8872324222417945 0.5449139475759776 0.26340026290235924
Ni 6.437490071583455 8.779887940821645 7.794714352907321 -0.21200313937730586 -0.6921857082131692 0.3143952658929876
Ni 2.3952486578537164 1.362220825996011 13.23471155819533 0.4467949945143531 1.8191395616831443 0.6332855914428512
Ni 1.0892354234611206 3.3286190437029504 3.5471176876268125 -2.0964217247739185 -1.109528458904676 0.2604478651422547
Ni 8.073667509967594 3.672606486964852 10.725220333935196 -0.1971449913185508 -0.9396543874869365 1.2669108256133084
Ni 9.062406286673271 4.6672008104555855 13.741249357379271 -0.2679773407500804 -0.3994766690443636 -1.3023794508335633
Ni 2.2130006574325094 4.700005073362527 13.1763211017276 -0.03736687068423242 0.1439298407481521 1.1593422971030096
Ni 9.387195834195438 2.7107221341623 7.441887014136578 0.8700456260498628 -0.5240437889951879 0.2801350591585369
Ni 7.762408895837625 0.47522335333342297 10.194448491607497 -0.06611643201309904 0.3013163212218423 0.32618943031443826
Ni 4.443011631129498 5.5886243721878035 12.682176128855412 -0.1496734281001487 2.633754774678845 -1.4783848319600215
Ni 5.299571575576044 8.497897631395082 2.182319855292064 -0.2678457002682226 0.6317832958657119 0.7872543044842442
Ni 5.9027117528806015 8.71022484960104 5.2541161256779425 0.9799296900672156 0.8815184025761528 -0.28054309323023296
Ni 6.5828886729128735 4.735270363179131 4.239661032149585 -0.2672931701988623 0.2187288881369136 0.7577287842213015
Ni 2.8070887817360135 6.413511560352539 1.3475168974024248 -0.2452464748114679 -1.4748613921877956 0.028972990193582362
Ni 1.1186263080489156 0.33228012138053975 1.528418404939725 0.127132052464523 1.8855413861471464 -2.0043926866601156
Ni 1.2133522710161881 6.545096351633476 9.304971133591495 -0.06379215475529658 0.45301037929644566 -0.46815623379894855
Ni 4.022345755571173 3.6737002767024793 9.187762133982858 1.496286909051423 -1.041645679019774 -0.148972288268066
Ni 8.035903476353825 5.167213588101268 8.92176944239128 0.4685023042844576 0.5259448626726425 -1.0142341197760403
Ni 7.818503336778527 0.687912653659422 6.3787846791050615 -0.19503103029934152 -1.5061008098180513 1.236313669552742
Ni 1.1634339704041294 5.62588865704214 3.4359405612523135 0.34564136839146276 1.0902680680131673 -2.5403111156057023
Ni 6.47642332870986 8.28157242311366 0.18572738329348662 -0.04509020747041912 -0.8796618089833882 -0.3620686607095506
P 8.949114185831963 4.141427398644405 5.022128036938136 0.9265458751294364 0.8850580402982952 -0.4436371656116618
P 6.431379935807744 5.219592915622988 6.660703326445366 -0.019994440844055886 0.8105145605637655 -0.21596803756232485
P 5.968093977369461 1.1045484797879026 9.00799590475944 0.7087970915176052 -0.7289640533837832 1.2762819824155631
P 3.503059648410748 3.025394126611416 6.931374797931862 -2.7896284180524344 -2.645721460122418 2.3653483168111458
P 7.060601340821586 9.032779671538574 12.094048215699788 0.3780946038241617 0.8781440867872813 -0.9398616184017361
P 1.2943209992662348 4.384512738610191 1.2848983778454508 0.14696245692688883 0.7069960337531244 1.9232599837438424
P 8.248070397787888 8.112157593665822 4.954946716915318 0.021698568019356178 2.1615531671659287 1.8097344663191604
P 4.462690417184913 6.910601279216632 10.282689978690577 -0.803019794848617 -0.35707917791475924 -0.19316955161057053
Ni 7.479060778460903 6.115840454946027 1.1617763131983116 0.4055318740995081 1.0636736053540907 0.6535448559125197
Ni 0.4659912021945362 8.428573992162017 3.1185124072488137 -3.4504222422178836 -1.7114699888186071 3.2433777323974335
Ni 2.028659369754809 6.688005638387605 11.721956033713992 -0.03551079131210013 1.1686427485683295 -0.5459315902072146
Ni 5.937232134168993 6.401819325226179 8.466666162697074 -0.7854437336380667 1.6915953613818673 -0.7995423778229779
Ni 8.636969224845641 4.451111332721066 2.4252514989412695 2.276227196372757 -0.25797729211457504 0.6953134552088734
Ni 8.290002147470892 6.431304502032735 3.836655146243004 0.06081918816990171 -1.3427966783083454 -1.1241197264552898
Ni 5.157058316140711 7.809621009771243 12.062085982306382 -0.41909161506181375 0.6944459650022556 -0.008731723446043027
Ni 5.048150803471788 6.161902203810762 1.520455427065361 0.2301507568206101 0.19444224767540705 -0.907003691331451
Ni 0.9654485986717165 4.2526733583386 9.532142775796993 -0.1170219606137146 -1.4092630374616955 0.16129198617568352
Ni 3.088579342403144 2.112796316555224 10.853924497932987 -0.7042287554206323 0.5959035512499673 1.0307380309683345
Ni 0.4362995254288937 8.917960036753337 6.900267794962616 -0.6369586694190643 -0.14775075715613908 -0.666174371751072
Ni 2.9977005019613183 4.713451143757842 10.987377218067577 0.44042740042511247 -0.12893773821469406 -0.9600437497765658
Ni 2.8399967660835927 4.946032330553655 7.7422850505096585 -0.5288134424696893 0.5747161185390747 0.240781754171895
Ni 3.155856840489097 8.893462918319237 10.627511908088515 -0.3232899972794561 -1.2698141153030325 1.1054203502735735
Ni 0.1738305340524148 1.4913823072547903 5.208491892708258 3.110159364529515 0.08890694754505334 -0.10261324138755229
Ni 4.090160719304064 9.522288296014283 3.9456663803525633 -1.5263803860026939 -1.226576901880952 -0.3842572809914479
Ni 5.137068365763385 1.7816609027104429 4.512719982615109 3.19975022551547 2.001850379854236 1.1673831651296152
Ni 1.5617337316723516 7.708992353909534 13.799639813847005 -0.31220828554399777 1.1595536417828676 -0.6808741398550919
Ni 0.044593619018626504 1.8061014458132867 12.163258704270342 1.1212020385878625 1.0146709502031428 -1.8785305020469518
Ni 3.5264252602197175 0.6877919596194079 1.373247358057919 0.08541693211392386 -0.9162406365486866 0.09587309445024134
Ni 9.022435815140495 5.732768887007702 11.152115153464871 1.308624660412327 -0.7619299667868427 -0.10345707744508634
Ni 2.271914435714365 8.64552152908726 5.278944209799894 0.6296616215370189 0.2832412088876864 -0.0277242053881458
Ni 4.267826117893488 6.9345232151162906 3.892947600843304 -0.27378957655648334 0.4179819269374027 0.8449002371324867
Ni 2.20763543018501 1.3924414821089024 7.006726538710318 -1.2366440563089671 -0.3179174201136331 -0.019272989296999065
P 6.04088757025293 4.768272639745471 9.63421221676137 0.020965032287441315 -3.2632703575563027 2.3190957136015093
P 3.8311871404770548 9.465241503663895 6.778836389797862 1.2727372024870984 -1.1211722137911917 -0.12052174623685695
P 9.298334847235099 7.58619559741712 1.262617126552233 -1.3057990180380736 0.4208489640725527 -0.5337759286812872
P 1.0463796100342588 3.7199128931172316 11.678001715938564 -0.7020698000961005 0.04631019592044928 -0.29769415108822284
P 7.586921647501581 1.8613944028947207 4.740567700029122 -2.0829637994967998 -0.4001958065985753 -2.584370567818762
P 2.5863884145040825 6.597692551258346 6.41229236196396 0.3218118700720329 0.0780977727446913 -0.43521037500054727
P 7.881688552570255 2.369902909450767 1.1239255307432823 -0.1728580937467281 -0.8514434375676433 -1.4894922547270928
P 6.950279444871248 5.829814438556494 12.895450983859917 -0.76641962712708 -0.8246556279508378 -0.7272990069765345
