# total energy = -340851.4430689688 ev
CRYSTAL
PRIMVEC
9.47078119944641 0.00000000000000 0.00000000000000

0.00000000000000 9.47078119944641 0.00000000000000

0.00000000000000 0.00000000000000 13.86144560661777

PRIMCOORD
 96 1
Ni 0.021788479544667047 6.117064016406985 12.589838267828439 0.6495550180268361 0.9725699072680346 1.239693384658252
Ni 0.3134951742814428 6.032906653443448 5.538257214975912 -1.103165749911442 -1.903652751035876 0.926890660063365
Ni 0.03893059376523879 9.562079669424342 10.899864469369765 0.9655842199788209 0.29133992673542086 -0.35118980901351776
Ni 4.780424233925244 9.206735953647627 1.4066591630649077 0.9451174674840369 -0.6287010573959625 1.0521362941384524
Ni 9.146189248558061 2.2809998019711726 10.031514099659363 1.5528966871256673 1.35260749375118 -0.11798252475477099
Ni 3.854248114603491 0.5680366288942585 8.431418016091976 0.2697866260446773 2.4743168109927645 0.5734457364670833
Ni 6.067105644852556 1.5800293920698483 2.1497991739488387 -0.5503014371401361 0.9486835875687403 1.988887134825349
Ni 8.546792968499627 3.6380775305788777 12.88084601890252 0.07409379379162077 -1.570963314819391 -0.9557484648353217
Ni 4.5402925731171795 3.6870509408742236 6.588247699955013 -0.11868854968286009 0.212515303127034 0.19260108070161025
Ni 3.877640944506702 0.16706363571241079 3.4247197686114523 -0.5851825652880374 2.7995040252949335 -0.8945307556754207
Ni 0.7867463293954108 2.101092839687205 3.4322746108842423 0.20327270148284346 -2.932665828893304 0.8600381212151899
Ni 9.413123220550776 4.937004661775361 10.749315982153396 -1.831494997924704 -0.7588150753069448 -0.3603064266028053
Ni 4.111607126664163 7.625087057969095 11.00542011568687 -0.2865309353825517 -0.3112898874947865 1.7075439142913238
Ni 4.682666828961298 5.09667256434145 11.487769850431615 -0.39505899959264223 -1.2918263579080653 1.4128409846209409
Ni 6.462946421627704 7.104099376602436 7.56603484217456 0.01237883328032707 -0.6074316064942248 -1.2491560727330486
Ni 7.603152728391833 3.0551982931727517 8.377607877767653 -0.7582455759567199 0.4697783427834039 -0.41323027118503025
Ni 0.5384262310430886 3.3688137463771786 1.5706959370619071 0.22643088476686166 -1.3265758455741088 -1.1701507005724234
Ni 0.5941665146039588 0.23592568681615508 7.979354892985888 0.7942729018939225 1.7700826562554937 0.14920111644942047
Ni 4.098641627013355 8.980838877189573 13.252803379301183 -2.364945167835456 0.5397874249826897 -2.9825195191906375
Ni 1.9535096541075538 6.588093326219215 9.884805067197147 -0.20775387718264868 -0.2158572230160734 -0.5298760794062487
Ni 2.377705950206674 8.874643006054065 6.854193869454245 -0.35247356082194786 -1.4145849638952412 -0.7808332314492488
Ni 2.007900351327854 6.240184173792308 4.057328184663643 0.6284740289868209 0.7847716472717066 0.7390000974635467
Ni 7.06109255854961 6.31466239822909 12.059749165596603 -0.6721938384722747 -0.3425174780505004 -1.0207670357985517
Ni 7.174258924749396 3.4362362387176484 5.040451165088643 -3.1285162697701474 0.31599423494899126 -2.6284608732697574
P 8.303734836258327 9.230772796681777 2.286583774647664 -0.1104849308261452 -0.37675505907713175 -1.2592890474019924
P 6.343216803961147 5.059101974776251 6.617108011924267 1.5437276190318898 -1.1507347579396567 0.6243648919144537
P 2.327444513649451 5.537338549186191 11.870318385599814 -1.4268804934331425 -1.0761722520417336 -1.3865347426262444
P 6.281552546673775 7.957473599784115 10.654074016712645 -0.23189936408060063 -0.6817591135632065 -0.004560365677172791
P 2.88940279508141 4.288445555794834 5.218266031775193 -0.43597604952197816 0.7635906423187171 -0.8068939330920425
P 8.143309271185252 1.3829708447839717 12.269943686597362 -0.22140052143180577 -0.08050149709017748 -0.24842050166407542
P 6.674997215770577 4.113084568552787 10.804275873332069 0.3852237586697753 0.7461495640241342 0.2571239429753443
P 2.249130622771049 8.744353467196381 10.446733989206962 -0.023120645177863407 0.14927747821331064 -0.06672989722738185
Ni 5.472567875620174 5.923992668064126 9.652292649974969 0.8941857136311763 0.6886730670742204 -1.3865594252165927
Ni 7.123893309597461 6.065173605459741 2.280097236509725 -1.7012071734400185 -0.7571266318609284 0.6705460184562065
Ni 3.816810115977016 8.187509407686584 4.9541496172303345 -0.19500351949551575 -1.549252148394545 1.135974568911347
Ni 0.28644283446948643 4.0848995232928855 3.933850978821904 -0.6679726013020754 2.346686478735584 0.5687825266634591
Ni 1.5840260617942028 4.61346382972941 0.050632691185646776 0.6574400772018677 1.2054547751903562 -1.4195289381640777
Ni 1.9391045956934712 1.4141581277278077 9.63260952512159 0.7672074131356981 -0.42317966908825827 1.406175142564991
Ni 1.2246193808237733 2.8810306243792074 11.859326596779708 -1.483682075803219 1.58406128565393 0.1089317274064124
Ni 3.968740390190503 8.000196294396822 8.833206443546967 -0.4594911019247828 -3.7331389460606674 -0.9216795481760707
Ni 6.215645379347279 1.9449954216852918 6.62805812930649 -0.9369357030041929 -0.8929932359849717 0.2847136796681548
Ni 8.743870457348178 9.147714044353371 4.460641407913946 -1.6372275852642644 1.663142248247497 2.2102814856095674
Ni 3.6222613257455323 3.4483777803921085 13.089238250214782 -0.003943043808148049 0.5656280401948774 1.2519832577691987
Ni 2.336242869511833 4.795615367190325 2.4279427627324206 -1.6889620375240786 -2.1485014761882937 1.3870456208243918
Ni 3.7249340662235535 2.9371450038029026 1.4610792197073539 -0.1523376051958731 -1.0409697359986718 0.5787429803102807
Ni 4.8888741510190385 0.7491653219707418 10.531649014677484 -1.5639015228766033 -2.1285312037139534 -1.5539660089304461
Ni 0.7719103504304795 1.2475860255668045 5.611570533308202 -0.4620619479757526 -0.1204225016548313 1.0111832487648584
Ni 1.4437922025323209 4.076612589622719 9.404242468890759 -0.168956958920109 0.10854297660842598 1.408240766844768
Ni 6.956288892270689 6.3306301355638315 4.944682624205537 0.7090184634997918 -0.8806300864339285 0.151809500606545
Ni 8.731672090985693 7.146234882772228 3.528791343492997 0.48447425423268176 -0.20674291941963105 0.3980023984916823
Ni 0.2218644177646176 8.05561930678289 0.8047597554990171 -0.7376219861690974 -0.33514972483151956 1.0194614296132507
Ni 3.387603776550446 2.990427619606735 11.004948470776272 -0.1301806094828597 -1.1472653113338176 -1.21132074705283
Ni 5.432364408843198 2.1465715316690757 11.976108907294085 1.55713232247357 2.3410917582566264 2.1141715925581717
Ni 6.456089575939475 8.562031455671395 5.486790147954446 -1.2844166957075558 0.8315569830563613 0.8614056909866779
Ni 4.5641021173992335 6.133997773438136 6.036104936301066 -0.9740644895356904 -0.3188625576357218 -0.0665910576566724
Ni 5.587760989026148 4.328241778974306 3.2020768526209054 -0.26475189183424724 -0.25883424079823164 -0.18383850401763177
P 4.320068494680188 0.3223446723630463 6.394312616354189 3.445932838987962 -2.4824008735524794 -1.5388618062991561
P 1.1345238379617295 7.994788478253205 5.230228575682378 0.6106208028554838 0.49571588858477206 -0.2533207671791701
P 8.39397244084043 9.133952999070228 9.01522065467849 -1.5140236642095537 -0.32035636857242894 0.6584767459964982
P 0.393601884067002 6.324900312854746 8.145096407623607 0.43006739734702704 -1.4673432294338793 1.392048473355622
P 3.705954620423539 5.580203305518958 8.157031486264913 0.8990057607276388 4.901092124761139 -1.2927966922411347
P 7.176711857115764 1.0798774296453213 4.760241998895388 -0.4650961068163861 1.0405125938565951 0.4587560235309713
P 1.6488535600482432 1.3184842946580753 1.6661320535200725 0.20396869910860357 -0.057184419630791836 -0.4858616214985116
P 5.21280328509982 6.73605534305236 3.8066858507274075 -1.304062237852625 -1.815697882991447 -0.009687659601409122
Ni 2.9160441029833257 1.6590441207672129 6.661976785588013 -2.417816047692558 4.156534330704158 -0.8531707046713951
Ni 3.6621522567383766 3.8785785518590976 9.011145377469036 1.7406782349514471 -3.670111180275221 0.2704412289095407
Ni 7.93331363659258 0.32654022849548453 6.870217484398878 0.2507406651568198 0.7651772700795467 0.38934215171352304
Ni 7.8732783536952295 5.530396466465926 8.594983145178375 0.26033859325790004 -0.6650795960249966 0.17007513168495228
Ni 6.22054177329868 8.397713399468676 3.127391218072836 1.3799514329817717 1.2704905725447668 -0.7292486745037376
Ni 5.952168242542689 3.832635791591698 13.789254952435435 -0.33522043016845493 -0.6307921355970362 0.3547549006569568
Ni -0.07296005818840803 5.672988550280803 2.0464625316990706 1.2355695922978658 -0.7228617971407874 -1.1858043479492804
Ni 9.002167076761246 7.279318302124424 10.340901796074805 -0.40818165301752923 -0.17431822323202237 -0.6463210844705707
Ni 1.0112521480750103 8.90707096135309 3.186538141680744 2.5131163003584653 0.5124776814241432 -1.7036425223543887
Ni 3.6110479206421306 6.430764706643449 13.229155785379998 -2.6353262329310225 0.0007839293538760693 -1.4600268982781242
Ni 6.243498947260373 9.216462446081067 12.419342420959378 -0.5840890751135425 0.954201432063176 0.22257731534872635
Ni 8.288865709558715 8.436174242479584 12.550499483387561 2.098347223931406 -0.6376328126679536 0.20495780249475024
Ni 8.787151928059787 3.4617126405150724 6.19904688797547 3.785368335679029 -0.16041626843894952 2.7374375949814924
Ni 7.077609601201918 1.5566081498226252 10.123651542977736 -0.9044541854367197 -0.5261004144139003 0.40748385561955636
Ni 9.045486430598205 7.735800491802511 6.899811781921774 -0.8018573991093997 0.9608405346462484 -0.34418689533312335
Ni 7.182081790134032 7.809104339353465 0.675046987224778 -0.23566114511587802 0.4018983911119788 0.3199743026426618
Ni 1.569251642907964 8.186543387990174 12.83621212061594 0.8078848362504023 0.2783653688526238 -1.4580479201748826
Ni 3.96495207765557 5.3193874582701595 1.212693772963804 3.0618820175803654 0.0010500385310691595 -0.25693753799615104
Ni 1.8729417172708664 4.820921294923678 7.242453285768858 -0.31653288106128064 -0.13823741834906514 -1.1265656168926212
Ni 6.153517053774378 8.963478934998243 8.738476847376567 0.9808817695678398 1.3689393981419844 0.22068164098791027
Ni 7.760452935623587 5.301591860137311 0.19503748254848965 0.3217529918096394 1.114784565097293 1.085977925278246
Ni 3.5004670777474374 7.470770146858601 2.512012994507653 -0.011074255536290604 -0.4322849738236361 -0.48838387369973313
Ni 0.4444533503015411 0.8564086615221597 13.521881536188669 0.9307907664487195 0.2667511816524632 0.2064410719084961
Ni 7.8739697207328545 1.7394037004144787 0.7762233442515006 0.7160661143751926 0.16537695487833454 -0.5599183914046099
P 5.201921357343225 1.4709259910637784 0.20018579928346358 -0.19597102561510765 1.2406205244582118 -0.8449277479363126
P 5.117129452030087 7.274450320517036 0.28134755411000156 2.756436247571182 1.139983432960424 2.0511420270005125
P 4.018783998776968 2.348033992276812 3.4916431507754444 0.8778777204997721 0.6439734101740006 0.15285388271065936
P 1.3093355198862122 2.5927210989081333 7.985980651609485 -1.3681582970015855 -0.7073238494061883 -1.8640603334552348
P 8.019099973946137 3.6474536041028367 2.153195396136406 -1.6508562317912923 0.6469972846019889 0.42006991981468306
P 5.292462026928122 2.315568153852436 8.64232000445863 0.47836094224609227 -0.056886685884714926 0.6364467627796523
P 2.439057671709914 1.3257294423811345 12.288726140145558 1.2123900688576086 -1.5085718970663633 0.6126512030219513
P 1.8293382399937879 6.575137297349744 1.2426981553186072 0.14710978113803053 0.5336306613526746 -0.19137646426588978
