# total energy = -381174.1463827335 ev
CRYSTAL
PRIMVEC
9.18806693785322 0.00000000000000 0.00000000000000
0.00000000000000 9.18806693785322 0.00000000000000
0.00000000000000 0.00000000000000 13.44766470758265
PRIMCOORD
 96 1
Ni 1.08494530697583 6.602030289592323 5.075659931663496 -1.3902656704235863 -0.13923963436133438 1.3868754137951147
Ni 1.4058477289490166 1.446945951862779 5.038610889800056 0.37269657273704193 -0.6236431832570808 0.20667658495806987
Ni 0.5551650490016801 8.423932060567047 1.4965229228437935 0.5113628510934096 -2.4185159019730604 2.4750462329596212
Ni 3.9708987209635183 2.109929289843631 8.116405626279498 -0.308795660318023 -0.014781529184548736 -0.4474331423189842
Ni 6.785313846642118 2.1305381237348824 2.1354491454535065 -0.7816392722903119 0.14160556349034967 -0.6946100013839457
Ni 1.7951001800425872 8.187054509719806 6.581636456464805 1.2303551379764617 -0.4256481852334089 -1.2803749215380142
Ni 7.540499435224267 1.064455917953319 5.2866399973543015 -0.9329623201787416 -0.2986454592578986 -0.9311154967779899
Ni 2.447599933774702 7.699232477714355 10.561109481390568 -1.0968760602479886 -1.9112063950134182 0.040669709805220285
Ni 3.754391114270047 0.5606007093360824 6.100976522550406 -1.0965112207094019 0.962621280695755 -0.23726859881231396
Ni 7.944020954098986 6.341392397932431 2.946705830649456 0.370345298896046 0.31290736849355144 1.315329583236328
Ni 7.761729708266425 5.170593794532234 9.934314263411538 -1.8991245241482195 -0.48632596272943984 1.0116648163869675
Ni 9.071304873010119 0.4119671899013963 6.8252415098422174 -0.5968278628364495 -0.7534604958632508 -0.9010652143598288
Ni 5.461993333926371 4.998041899535485 5.925565301157332 -1.1404084363129843 2.280909689450091 -0.27512372198687457
Ni 4.821575888070759 1.1753283203455327 13.15118417340633 -0.2914736240998077 0.19817163281085226 -0.23982350402368374
Ni 1.770338339945876 0.5874537534424454 0.11396143045919456 0.4874688180846315 1.7975649208361622 -0.8813104003304048
Ni 0.8267266333112863 5.333957622702744 9.88907589758587 2.1045608089412853 0.5718976752536731 0.2885541364601676
Ni 1.3842925241746622 6.278077429432825 2.963314180244564 0.8880880853738706 0.7877816377426239 -1.6935185465465092
Ni 0.9341599422904387 5.460964270441832 12.37651804553919 0.4828117789285943 0.6574657882334807 -1.1077608254812923
Ni 4.357183426472214 8.737254327408587 11.151247069152959 1.615097071913812 0.09700489406183939 0.8415907131432796
Ni 3.5777964698697535 2.1266331953337314 10.957721574011956 1.6179327415903944 -0.5867231703022798 0.3168043895551124
Ni 8.841667518821955 3.4252194321532463 11.407075926635997 -0.8200973191561941 -0.1531899258938394 -2.701049286160445
Ni 6.973558959778081 4.577127370158698 1.1539504452609246 -1.1210032923134952 0.05058516914671933 2.026421641435697
Ni 3.8094368226260387 3.15438278631623 5.732241943486507 -1.058201526495926 0.5632343431517203 0.7642066786361613
Ni 9.093925893536317 5.8443363587666095 0.908603334413258 0.058757163434550425 1.5837522390539434 0.9212113502904006
P 8.722700429555825 7.498739671499015 6.556462990974278 -0.30078384575714 -0.015277752094676912 -1.9119880103744489
Ni 6.483201021328587 7.412794494406386 11.668686834572787 0.9665856646601418 0.18755503363727052 -0.09500534713330734
P 5.486700045622124 1.7490679652431353 5.955917161111127 0.7299567563143559 0.06345251202769071 0.9775917859626582
Ni 9.017141219069448 8.00435898894689 12.862435391291562 -0.45181301655423484 -0.4180582887012929 -1.7463074082127665
P 5.141890273767066 8.14232700040968 13.238970639090939 -0.4313040979676056 -0.3624509837496338 0.20895741057244657
P 3.815712272268359 6.090411164506915 4.08115092884496 0.32970644232876123 0.9083072406342229 0.7119762605765351
P 0.761481251971488 4.358717833632196 2.3544706072306365 -0.7550944319222479 -0.10618836033332034 0.47583869004487084
Ni 4.1282076130955385 3.5221443491032303 12.854595213868734 -0.483008982541065 0.7349902049732052 -0.6987983284336804
Ni 5.650955116274781 7.140285620406995 3.232348127370272 -0.4564091205653495 1.0583308529849387 0.23686416428504367
Ni 4.269033113341287 4.454356421226507 7.889556850373095 0.3574594440723134 0.5239075205276397 -0.1901420776381564
Ni 1.2963167843134338 4.228228908565964 4.7019628777067455 -0.7228643682439486 -0.8076017577923447 0.3892089685697684
Ni 4.386530111915218 5.803789419862421 1.6604104708234 1.0540687352744749 0.013256350789273945 0.9634792578206761
Ni 7.467187850017715 5.060658574956297 12.444441748358836 0.44428611204957036 2.0834787914600055 -0.34416529806656854
Ni 7.879566665312926 3.9721574861187126 3.451249225471978 1.5767434118362782 -0.61909464465445 -0.11010774999238455
Ni 6.912522631851382 6.960346519681951 0.9637335729840509 -0.7549201111279128 0.7633134773979305 -0.9584190696889493
Ni 4.436880718123002 7.5807156037227115 5.880354499532146 -0.4756294022475422 -1.6051330187225648 0.1788886162115242
Ni 5.332340522941326 3.3425635829844094 9.623646429076098 1.624598583646344 0.3044124436486628 0.09950657743777055
Ni 6.981699586986128 4.4541359076226765 7.820663806503281 -1.8104857426628884 0.8040752326963247 -0.8084898168242528
Ni 8.40677793980246 5.082663995005137 5.679634748066199 -0.02202818344463303 1.5850560454670315 0.39481114524789424
Ni 6.463501806053133 1.028999168070867 11.45930641131643 0.7951295934672629 0.6282014920517245 -1.093688406548626
Ni 3.4809909977885103 1.3456107628362006 1.5722068669048808 1.167554657710473 0.12727731979313564 -0.45616820819913695
Ni 9.077488441984178 3.702882811642157 0.18290133346982318 1.2196495786334995 -1.3747763165387357 2.130388825747983
Ni 3.0717453132810455 4.18017531906474 9.948353629522028 0.30850178322668803 1.7394155661889399 0.5826212323187644
Ni 5.303857515779988 2.7025320359354996 3.9390767703175253 1.602780716440304 0.27694329169411663 -0.746488692531108
Ni 5.46172687998841 0.9372655088777072 9.452377188208292 0.14340584992388206 -1.145092472052215 -0.7888201063094673
Ni 3.0855549777208817 4.283348121456566 3.2785007058451483 0.8383500947187948 -0.9210149180088782 -0.9152674740021399
Ni 8.816786233856503 1.1454027866924754 0.9349620605243694 -0.6535795658051969 1.860926158701627 0.5603477656325446
Ni 2.961589580101279 6.44892953206672 8.55368318386713 -0.4734961579546233 -1.0909707505071469 -0.0701774894563501
Ni 0.0801456693119084 8.575186016660576 4.048271431707268 -0.5064777550869665 -0.5884442667584446 0.2773104452255482
Ni 3.8199020307411238 8.602639960337374 8.148141209097323 -0.27626606312143387 0.5537379736255109 1.057983754058165
Ni 9.006914900691845 2.766986324721559 6.04818097176016 0.9643783725961779 0.560666582424544 1.0455159606084576
Ni 7.803728361729158 6.906311498676845 8.362202033594967 -1.191484171942877 0.5830518920982798 0.14556686213094286
P 1.8792444960372745 0.4216615192097599 2.914902256137116 -0.9228450292390817 0.34947591164620456 -0.006121796627021715
Ni 2.50006379535252 5.021094759202516 0.7820230129749082 -1.3431633176191449 -0.5639005159808095 -0.6434440200330919
P 8.814084942209588 6.744776095804755 11.037762499362044 -0.4829758153102843 0.4481080568988218 0.19916896372711507
Ni 5.30698145850091 9.026797877303823 1.7591426805181052 0.944139934062116 -0.033594291015677624 0.3051333809750874
P 0.04111476143404959 1.5661794950668688 12.43668242592408 -0.6216498069761359 0.5776798291530889 0.22987410612045572
P 4.904452250843425 3.3488114684262515 1.3244258371549438 0.795647670754262 -0.14564296678451688 1.7400799392458162
P 7.315290729246349 0.06660521523008153 2.7844464081114593 -0.19721723931738291 -0.7984933677331733 0.7784346493100851
Ni 6.896783473378036 3.434572884182356 5.609760418659342 -0.32996483819647043 -1.6003739067710243 -0.03006879436092241
Ni 1.7604060397067127 2.9267851829634894 12.126821303855982 0.7664227124508737 0.32861269504395024 0.9882261257480529
Ni 1.0601007742776825 8.097140087758241 8.678167707262416 -1.0904783842517605 0.24491043162828788 1.4440024978254098
Ni 1.649974664522159 2.600783383901741 1.62909018862612 -0.7534928917630829 0.1769716016944694 0.13080204511694246
Ni 4.971534326741788 5.900567327743186 12.893095970290718 -0.19809681370885884 -0.17815456625897705 -0.839414017206935
Ni 5.317079143942946 0.3070229282254716 4.256858005989839 0.5062604968698378 -0.6456806226730945 -0.9141192193303096
Ni 6.5995035712151076 7.789220404210528 5.3449493070469725 3.0905832421698003 -1.824547105851961 -1.5144314411709336
Ni 1.5353627189316668 2.5842172994140338 9.694891618053427 -0.5687118213265238 -0.552726244531545 -0.13342071368671216
Ni 7.027685861451448 2.706133758131385 13.17279450658164 -0.8997773487863407 -0.6431766253043181 -0.8997765774553923
Ni 7.08165656598877 0.148257727501493 -0.03347488386803273 -0.6411760499345215 -0.8377245453196541 0.7455713229231612
Ni 6.180619604606919 8.8716941212101 7.1167595752984125 -0.3205610283840673 1.7860492068870788 2.1355945383186383
Ni 2.8247241366576383 5.636336901954236 6.3063362477636025 0.8969902729595068 -0.24689738015132962 -0.8936825487425124
Ni 9.039890872531213 3.8907420259714183 8.395268967295914 -0.1309588824097809 -1.854655495201567 -0.18115735764104285
Ni 2.8812215595721757 8.20140627010239 4.341188839741099 -0.4829344205493877 0.09938085049318368 -0.9488072576307982
Ni 8.874450541257973 1.5608320401739983 3.185092980876248 0.7977027535110778 0.9805593532314145 0.9281481866195499
Ni 5.318668679503885 6.696869515372751 7.869049085216932 0.1820896396473251 -1.6499398906246103 -0.4881799852190431
Ni 0.9428059131739287 0.5049642082831637 10.93531831066954 0.34835671044009686 -1.2979813217658678 0.26334961217008196
Ni 5.007909883306865 5.9564032098462345 10.2855271990378 -0.8010027644185883 -0.849863237564717 0.07374463798231816
Ni 1.9001749122674445 1.0579048263062116 7.719322185829924 0.6774358035975042 0.9389612180746539 0.23269563472965085
Ni 5.717880995037097 4.8528612556140995 3.4716761356400707 -0.15967116274280888 0.4282938503863721 -0.040837602841652255
Ni 7.014142650949574 1.9872318454460491 7.893026264406682 -0.3327557706780463 0.1700440213367007 -2.019430297719529
Ni 3.4183283820335673 1.7218804755042971 3.7981584705968316 -1.9927098510055488 -0.6044995204490945 0.6850763508618976
Ni 2.018746914660045 3.723124122860359 7.625175740288194 0.206506892149425 -0.014931424498851705 -0.6824396845699988
Ni 9.044025502603018 1.138548488840102 8.894298603216011 -0.46820817008280663 0.8602355819379767 0.9082087673831455
Ni 3.069760690846578 8.010312856250293 1.8636845048670405 -0.04546533142165073 -0.19911239945756676 -0.4141733518245899
P 5.83461538406445 7.854602687746038 9.491227091169675 0.8922769266442375 1.3175764702889758 0.5966203748113338
Ni 0.6306872830866255 5.971784033713357 7.574962036276121 1.463895380094595 -0.7405286182929312 -0.6823008449992894
P 5.920992400297914 4.005611237433045 11.554232923731705 -0.8952159546679034 0.34069019503377457 0.5012640720965109
Ni 7.997017723552726 8.608327373702815 10.115387171582938 -0.24718971458076786 -0.14728487326331408 0.22625270731778452
P 2.8429440731740683 0.5281438632723968 9.882567989852848 -0.1700602192866168 -0.07734392529780228 -2.0704754372218024
P 3.0079158130391708 5.60753231245398 11.739636167798313 0.3644857547914755 0.08923553452906567 -0.15227409894778934
P 7.538643445725367 2.3933352110989405 9.860392590567722 -0.24650065893354323 0.036500666029195196 0.6351619825299577
Ni 2.2540624941468255 7.774023341679931 12.909717183179383 0.8471887760563473 -2.166608470201649 0.09972306432395082
