# total energy = -340873.7651853963 ev
CRYSTAL
PRIMVEC
9.22727447999496 0.00000000000000 0.00000000000000

0.00000000000000 9.22727447999496 0.00000000000000

0.00000000000000 0.00000000000000 13.50504890866736

PRIMCOORD
 96 1
Ni 0.6836109450631851 -0.06141858535199778 3.7523099803864635 -0.376957404895925 -0.48860575990255206 1.94942070129961
Ni 6.544942799872816 0.30207974845679186 6.3287634418003105 0.7204385324112754 -0.4400556189079905 -0.8680139403318147
Ni 8.20671959600014 7.657143119397124 4.490482723028582 -0.783916755470579 0.9279191013278794 0.755912299837853
Ni 1.3371797294056835 4.0392210120889285 2.160808107795214 -0.8719197031441243 -0.9816207046163933 -1.0404526871529372
Ni 4.675709188375016 6.6465350934826075 12.59491705709467 0.9805683520924788 -1.6040122748545602 0.06716672765448434
Ni 6.785405576573195 3.1660255598744134 0.26218839480249106 -0.2199015682887761 0.14772324635231332 1.1436601104810626
Ni 9.110208190805112 7.23896303343929 11.779887575927209 -1.10978788321365 0.6318668567184538 0.07333300436619629
Ni 4.001822868038022 1.9661292223239961 12.225094349258619 -0.973762127803923 0.14749596083285565 -0.8212625431088889
Ni 1.1796793788493225 1.8214455562203147 5.733595924007775 -0.8167674834520128 -0.6154472777098497 0.208576373083944
Ni 5.932297901215039 9.041298903913384 12.560424581822849 -1.1591294097612554 -0.6188187652852439 0.24737689089090945
Ni 2.848607312810214 0.8480354424973651 4.147278857027729 1.9413217263415599 1.1066819905948166 0.5155645478795831
Ni 8.549632802850338 7.796770239006876 7.3099586071234945 -0.0739886356723242 -0.48581842696540195 -0.2674597776837136
Ni 5.998863460352282 6.997485256530275 4.838062162656117 -1.2282020961892008 0.4370068047793377 -0.12837492373268858
Ni 2.5435167046436247 3.376711921363276 4.626776028316698 0.7130185857981204 -0.4677584841398977 -0.6977482899026112
Ni 1.3851615574502718 7.7989571030927545 13.669946223523821 0.5027470843999406 -0.33922312356994483 -0.21191495053887377
Ni 8.698007378803602 5.765025866831905 3.12582509252021 0.3131246267106801 -0.6501813387569254 -0.24482892765807515
Ni 3.2945338135622944 6.353975124255355 5.582366429285857 0.2290618946318055 0.10455828092906509 -0.567410328906281
Ni 1.9323112608271853 9.329328281300274 1.977611642866051 0.5927403230306373 0.6274592145690613 -1.6081658920116175
Ni 6.797825488217044 4.4612857806634505 3.500657287749609 -1.590673648764125 0.2578039997615044 -0.028722307635356988
Ni 5.777353505729515 5.469383987880249 9.654327657195518 0.7896618854844722 0.5589310877906761 0.16118194296038046
Ni 7.760128731475135 2.470934962451561 5.748127036085586 0.49363406635507884 0.23614502673083201 -0.15171128446578386
Ni 4.940448924611031 5.820657105539755 2.7320308479385753 -0.3835844232941394 0.5294742159821398 1.7239262123040888
Ni -0.19918825457994666 2.9678144736771443 8.000769594575754 0.06765060926943832 0.22173810727688262 -0.05255643394047723
Ni 1.9284911691328663 8.698099651549843 5.947934440792801 1.4380326533952201 -1.4517656867105966 -0.8494040385401114
P 6.168682222531628 2.2706846485623964 11.849667917543437 0.19785410157043345 -0.9000987366815014 1.5823137068352038
P 1.021348573576805 6.213637504499557 6.8101235998358565 -0.3006264942436694 2.554782055528368 -2.7637955161497305
P 2.4736016448178852 6.384231357747317 12.214817010782454 0.3212729668494273 0.38036617346715784 0.34324792845862173
P 4.325626389142001 8.67772582918014 9.472455306174894 -3.308613304467476 -0.9455797518324361 0.011646068879360587
P 6.692034784653351 6.616251178166773 7.670192331170328 -1.2086781672236602 -0.005033191548533268 0.2233692151224024
P 1.367186826482799 7.023072489062514 2.3362518165853263 1.4775803337808553 -0.7203986803122755 -0.137895204518298
P 6.646415138912496 2.4359728189013787 2.4839435742164184 -1.2276786195855631 -1.174154679525494 0.08507548961410509
P 3.1558201941403143 1.2929903112315426 6.735683484534528 -0.4391565041324888 0.38239168853761885 -0.05471898880943479
Ni 1.1189085481759267 4.099927251839957 6.368171286264316 0.03003408446824505 0.32605650428099975 -1.407852016046782
Ni 4.378184945400073 3.179054471643444 2.5160720217295824 0.11970850630694223 0.9068705081876962 -0.12835949711372088
Ni 4.754297886347278 5.512733724063611 7.317373645011308 -1.113810631219798 1.043261874466958 1.6305442597068176
Ni 8.683825057706578 6.23361455406043 9.307922849627614 -1.6840216627996676 1.292167543297568 1.0425332238310496
Ni 6.327972664365038 8.324514983849603 9.246542096101573 2.978553078343722 -1.1603059465678596 -0.019590006316785615
Ni 1.0871851780187547 0.2694705599357197 7.820827589406463 -0.7611280397108375 1.2832334740327318 1.987603383016919
Ni -0.04828079174240456 5.9005283946847475 0.40987646152373375 0.2885381956205676 0.0806400795505708 0.7021700731193907
Ni 8.031087650807699 5.007844938464431 7.175408334011845 0.8022705753874183 0.29263139185333475 0.49024355261629116
Ni 8.611787724717328 3.176572334769599 3.2028036310705907 0.8358934056481861 -0.6996619619855563 0.20414147724104198
Ni 1.7286191735032843 4.210903683742314 13.269116182041417 -1.009159019245978 -0.31435284269082636 -1.1976352791459375
Ni 1.5684060042074792 8.04663560854907 10.196244573133184 -0.45093986992066204 0.11090813440649286 -0.6232225507798944
Ni 7.644261844022077 0.6092022024955774 11.27760734086422 0.8211105909120568 -0.49809364478832924 -1.316698952780029
Ni 3.1939011565133946 4.286170562849951 11.218212296837256 1.559401835234037 0.16622310492871373 -0.46769703477434293
Ni 2.7415801544469107 2.372101623954333 1.0793152354919797 -0.19209020250346273 -1.1920888954064113 -0.4015836880850374
Ni 2.9446632416456304 5.71781912985573 1.1792069423885758 -0.26512804422674335 2.112042976250943 -0.8482025620328424
Ni 4.720618333969826 3.011062709839641 9.663092645360818 -1.1929851819684358 1.210267366087651 -0.20132534794848553
Ni 3.6196291531136278 6.642936456379264 10.043448287180118 -0.3793202487011467 -0.8501907961074648 -0.01708112385200284
Ni 0.4333072799763536 1.7772376834969257 9.919310070754143 0.05642337309505122 -0.23389068347901654 0.234979288557505
Ni 3.4788301696266335 8.390010179130467 11.735779357769756 -0.08832073602428016 1.1633884421479255 -0.0862967636157159
Ni 2.273434376400336 2.857327087329856 8.140654155147516 0.7214662023448414 -0.8029496037323139 0.3012682415927263
Ni 5.168796289730152 1.4765669398752126 0.6415668682391147 0.0744285514232202 0.1022957101471335 0.7565219083973939
Ni 3.2737170820106427 7.904341806572993 3.3118294171174436 0.28439949086184574 -1.2022676357116262 -0.4043918469577939
Ni 4.972578294851658 7.81598142477396 1.2496018204947614 0.28248453322732 0.2975180305216747 0.06853249765375939
Ni 5.0655246321388 0.5628591384242043 2.8190846476508566 0.10073016543222651 -0.22024661033302068 0.9209066745657881
P 8.840467271722911 3.810716783301201 0.5686843168943099 0.7713324910476651 0.09476854853215293 0.7315220439189466
P 3.451738891330689 0.05413272930891953 0.5009321302404264 0.9601805324647466 0.3384628483651526 -0.8011575448288977
P 5.583516147704002 5.417582068141342 0.8230073828073381 0.36188019884782835 0.06510444580881691 -1.3546890588705573
P 8.781348123207204 8.660747643872055 9.374624049701827 1.007065112831427 -0.019717533033585397 0.7521772582754529
P 1.8896904793391176 2.6062621720865473 11.642689074998481 0.19169296706504405 0.09118211673247523 -0.7451689452784199
P 1.2301156619438838 2.0041363665000844 3.1693510696488887 0.751435495013422 0.19828887511500687 -0.03564140335269345
P 4.237450552835446 8.35951403649828 5.178241328035237 0.2598400563549267 0.39468181875888153 0.4758068083656708
P 8.734482795392115 4.04465587684244 9.95474741894746 1.8845571678570059 1.1401829505657395 0.06487124675208827
Ni 4.032798828950653 4.174252948935949 0.0016535276126135037 1.2025028916508838 -1.3869204081004372 0.5159029050556083
Ni 7.144060513931867 0.21638328084169478 1.3728689821962332 -0.3764323856303904 1.785509789443841 0.15101400128844314
Ni 4.572861985416366 3.148779783602234 6.872206548960779 -0.6483103469864577 1.07826050202933 -0.8487106120175124
Ni 8.780462304843303 7.908780125667118 1.9706164459736277 -0.5067600622140757 0.44953887580807744 -0.19689636564285443
Ni 5.355657828139952 0.9493850587845467 10.433595912830365 0.1547842669641528 -0.17850269362701515 -0.010697846033478349
Ni 7.809356241593957 0.8844582636205196 3.735833758817922 -1.2964671991141865 -0.04373934986947951 0.1249324737100429
Ni 4.848812860320493 8.046091199346256 7.415554615192622 -0.2812141511553286 -0.30130732236077784 -1.2065554644537027
Ni 7.982238458948458 4.547699207516829 12.240922816148558 0.5056480600968194 1.6454867399492628 -1.6545581061229118
Ni 6.174347769150739 4.799502304730054 5.803335665615659 1.6942094019659466 -1.242634469564447 -0.34538245830312136
Ni 2.639120497022467 7.111866552768874 7.8254467630832165 0.134628103731252 0.4315498954298245 0.9460219815761772
Ni 1.8349173771712952 0.6603240720946991 12.607814018836578 -0.3545690098983958 1.066247536728854 -0.021037794506905703
Ni 0.2071560062177355 1.800545779197047 1.0805673766584512 -0.28603599802400415 -0.6657349702208083 0.4232868840900839
Ni 1.1072452730512423 5.2007411144783 11.056137986249798 -1.4536477342246579 0.3078224977714763 -0.5453294378468415
Ni 7.26683863007827 7.477349673349277 0.2174933219789571 -0.14054755453948056 -1.7545390520939395 -1.4223856908865826
Ni 5.67393421174418 4.304551293900878 11.861268447200679 -0.13905888580909598 0.93730182809436 -1.0344033956350636
Ni 2.5469769326276093 5.37460142294294 3.3682809605393644 1.6803763527375963 0.5599199340665066 1.6957716042467441
Ni 7.616496974678583 1.1555592829822932 8.482386270845847 0.17870838187991803 -1.8907206163552406 0.15508997113002967
Ni 5.4677692148210575 2.4876455567955507 4.458894993808382 0.4250228929445841 -0.4756643692505357 0.9916032697504018
Ni 5.0908811828054406 1.3276110456206378 7.979255281062532 -0.4224188796628338 -2.42666809876655 0.6541809468346217
Ni 8.990299757066762 2.3794096254565087 12.173235220417043 0.5039123083526353 -0.02202998321684593 0.7703223046155959
Ni 1.1552086465465825 5.103042730759818 8.430918378448327 1.6861585066370124 -1.9244198083798987 3.40016540294486
Ni 2.6873791433057734 1.0430511234923574 10.129881091310205 0.913164311616208 0.009244658526719561 -0.33697135142129064
Ni 1.121344548676652 6.754761797547026 4.513036027664463 0.13148184479278646 0.09448521296377922 1.6902802421148697
Ni 7.036876491899957 2.9074496430872028 9.940809620627968 -0.11567624521909756 -0.0030413579294850846 0.33725185877618696
P 6.728630155811974 2.9091382343433874 7.648530381263121 -0.8494022387678984 0.7126018099756759 -0.8877996075991741
P 8.659049825341247 4.575233394994723 5.094968865463854 -1.0181913046515754 -0.2304883426656869 -1.7166517901298628
P 6.720002654038572 7.6159156563772745 2.776394661603109 -0.41430730629929297 0.34122832692543165 0.1412425237239761
P 8.838261953087784 0.17147598070180972 5.8473220837480735 -0.7410266409752722 0.9978088843404815 -0.5785213512177778
P 6.943201199917523 6.748155068916271 11.504708101181643 -0.8077830205652153 -0.33375284448399295 0.009982308023692486
P 8.978045936366144 9.399363295696125 12.966400674363033 -0.9605818816682231 -0.8079766246332601 0.9918637225006401
P 4.417852999008474 4.508298744872523 4.72729426716026 -0.6241324641886735 -0.09299345890960113 -1.0120931621736378
P 3.499748401199149 4.628077996766138 8.900367970399268 -0.4859186999886922 0.4839458925330375 -0.08548069547232376
