# total energy = -340860.48677498155 ev
CRYSTAL
PRIMVEC
9.31934909985982 0.00000000000000 0.00000000000000
0.00000000000000 9.31934909985982 0.00000000000000
0.00000000000000 0.00000000000000 13.63980942189098
PRIMCOORD
 96 1
Ni 4.272940069149444 7.886405738943396 4.7299991442360785 -0.5939376857728481 -0.5633114762465589 1.8137767547093342
Ni 5.791145864816784 2.959536282981796 13.41345616937694 0.11464883239584772 -1.0800445905129463 -0.34769773669985926
Ni 9.307513239335103 1.3686861633223693 12.93576312408493 0.6903355423783079 -0.7945454388290187 -0.28400328386469154
Ni 3.2890684569856705 2.4685277521067364 0.5127449800449309 0.9114655837575464 -0.6674781781641601 3.3672889639318133
Ni 2.6705525956603555 5.479553437276639 10.927191832610584 0.3599313026515737 -0.7104299991353378 2.1884415069163405
Ni 5.957645350697813 5.965156745840548 5.9620561984906875 -1.1780565856830616 1.7805809846836558 0.44154171653521374
Ni 3.680714090823703 0.911848888737468 2.6983363702745455 -2.8762319142752917 0.18537628081839688 -0.33636919906091745
Ni 6.621928534040465 0.018303201067409753 9.64850075689909 0.5687534731977366 0.9205248657463373 -2.1488334056064153
Ni 3.033951283248226 0.45707119024009085 7.34591053394 -1.128155072866928 -0.8612714794016586 -0.2594412782546112
Ni 4.719402112701581 7.775859623331575 7.478898573426784 -0.9138816493982067 0.7886889800482416 0.7466820394888366
Ni 1.5707296455736135 3.8202992973347327 13.101364224740452 -0.5033109273232106 -0.9069026469772125 -0.6327860260986135
Ni 2.525105518746372 0.7489382840840652 12.91179748667915 -1.1990732971440445 -1.741571693299994 -0.6770372826075051
Ni 0.3069812137478059 8.058636624344006 12.427966718259347 -0.5674769204781581 -1.8729026143372132 1.9591302152778902
Ni 6.400528764306017 4.409412613157157 8.05534409840861 -1.1445358282177966 -0.688984170556736 2.7220778246959703
Ni 0.19054806549123907 3.914993200616785 6.4066320058432105 -0.3769705175220475 -0.23885008436682087 1.5936250180829652
Ni 8.082065467258197 3.0939865282972345 0.7205133382715873 0.6759044545546424 1.523783571809795 -2.115157867730841
Ni 8.630266841794505 -0.01703017801964592 8.201275781460836 1.1247573600392888 0.004877382696959342 0.31605619853517825
Ni 9.120035899277525 1.5012911775729667 10.173578963162253 -0.09756616588194811 -0.3058859428703958 1.0561258749138198
Ni 2.0903578966513288 7.9772880285612064 2.3878259191315117 1.189962078871396 1.1363597201649074 0.6300871391102115
Ni 6.124759913600457 7.134837534624492 10.919117548799584 -0.6737496129951687 0.5427027988572718 0.1305539336618784
Ni 3.3124227451093615 1.9928122726327047 4.633143152029566 0.3020411152030089 -0.9057610771736014 1.1567141154515435
Ni 2.904440292803321 2.8590177866920397 6.951773838164433 -3.236680779993232 -1.5768465130730458 0.26433228779832546
Ni 3.8934002694186236 4.617644143019786 7.669009561458725 1.1988012744295806 2.2378316273136942 -0.11967482485552938
Ni 6.872935874951674 5.117384903731995 11.870330434985437 0.5563882667641643 -0.8470666486561863 1.451381049677668
P 7.41195769090784 5.544089927802001 0.4854588586573193 1.5659645760532193 -0.8195427322043047 -0.44248762538825087
P 8.501687786230834 8.000521165150337 5.861326152982891 -1.4143635919130546 -0.6947771230894292 -0.4471858021948686
P 1.042005710055067 5.777185480295918 12.51973527794921 0.6278356240718735 2.5103294816419477 0.5372903695924488
P 6.3142875103967455 6.5301609062854835 8.1534824330117 -0.01878910768204506 0.7317444443423978 0.422705300555001
P 1.5423056316960169 2.3145721097270986 11.256770603358518 -0.6672130974282315 0.29897147513874966 0.48739425609295417
P 4.903496529140285 5.002822148782062 11.028139950880586 -0.9493582450382617 -0.49577296707495266 -0.4690080402762825
P 0.43369267180948795 5.174866647206428 3.549351345769788 3.092730627530106 -0.39609823949043393 -0.9473486708074007
P 0.7180576898595392 1.7219453994024274 7.448672197488883 1.0459463632776567 0.43456708498959346 -0.35355496681158466
Ni 0.06909924370387799 4.509847235307602 11.109978744410915 0.8002206348369251 -1.0595693533777302 -0.2481219965870501
Ni 5.743738337408477 1.9441000363906726 11.282072635383985 -0.19561852737169536 2.5880906969828263 -2.5344590277003
Ni 2.509160112928481 4.031997624955547 3.949542822468724 0.7660002802014744 2.4381938400179624 0.999655193520601
Ni 4.167892369336896 3.095561498246518 9.528607334428507 0.7893376693758342 1.1378810419054404 0.6155840603980303
Ni 4.973522116116107 1.703278743731337 6.9603532306810605 1.373907026559905 0.639001410880706 -0.17863561966045363
Ni 4.031606212305429 8.684626603416808 0.7923776327680827 0.2808626813531809 0.7743329684368857 -0.18322092503829093
Ni 7.08592027270859 4.068641304485617 6.127138211417363 0.09320377514819432 -3.0553462733443766 -1.7203595779987533
Ni 3.526367035793947 2.6358846180785003 11.994862097359917 0.5945130986603439 0.4542434803725984 -2.8287739779036447
Ni 6.727554033479375 0.20546554713513052 12.030584093292445 2.242991831358395 -1.720762726974443 1.6950740639590873
Ni 8.121225370967593 1.5092033047146323 2.2884462472666214 0.7117590023594065 -0.08726941194163035 1.5087652440240917
Ni 0.7537107226108577 0.3465912420048383 3.416499368775664 -0.27956993068368624 2.2099040476654905 0.6041223396153338
Ni 2.5547969640624455 1.361687332364312 9.616419830547537 -0.03092522882394674 1.0446860085079943 -0.24628031539262102
Ni 6.242053237752401 7.0490622481558365 1.4985102838873687 -1.2951209694989372 0.6205452610580474 -0.025306854195904803
Ni 8.331553754312996 5.602634077041038 5.006383071963254 0.04968862547437894 1.933452608006128 0.7856077700197567
Ni 4.681509640430661 9.094538160927 10.626325043618545 -1.9066982227304194 -0.10314340285940947 1.1579852688544832
Ni 8.265367739047852 6.262294863372775 2.434432914476839 -3.1956796549905224 -1.8081804915684794 -1.1179657910387522
Ni 0.8250400864855255 2.399275671082336 4.94616330380776 0.5427848170481169 -0.6453625772120434 -1.1000665421608282
Ni -0.041965027701907395 7.520164649967767 3.7870795465583127 1.3825382198723415 1.3370222377184133 2.102304408806941
Ni 5.562271977334851 4.6993095966622045 1.1591816104119765 -1.5050934515994594 1.7980865976675873 0.12067755508843087
Ni 2.1186793976919898 6.814456961154323 4.697222994463125 -0.10457576443056184 -0.4674808049984788 -0.2973861329295007
Ni 1.380941107010579 9.037606259032495 10.935880261508315 0.7407445909584791 1.2724885768114023 -2.7004401918215364
Ni 1.404099688809211 5.823092592545439 6.947082477972307 -0.09943818609368037 -0.43038210037396846 -1.836693768516824
Ni 8.50808085951609 6.779332335480663 7.672624536863026 -0.3769435209388541 0.08293556045296684 -1.1962756797942493
Ni 8.207550499016177 2.503810806710206 8.248797004924654 -0.7643213498371547 0.2155823720881319 -1.6370368094096965
P 0.0015088025727157022 4.82690080125177 8.615967232976871 0.6019075913522022 -0.24645617884885296 0.15825422779062423
P 5.946713754540954 2.0308352157869978 8.990298448656482 1.1646369698430459 0.17009775739277155 -0.2658600372967615
P 7.843024170222015 2.5880670393224516 12.104048519980017 -1.7859759304469822 0.8365765477581399 0.01882561734693532
P 2.3698172094865715 9.23792566175346 4.6297192232759175 1.4368939118050867 -0.7854321636738408 -0.017637767686421238
P 1.2577206770139946 1.1014911135241487 1.0458257111332399 1.7571026990560579 1.8151700355124352 1.129008422006159
P 5.352670503196809 0.3605553542652287 5.25885541450776 1.2125520483567698 0.4553341423336158 -0.3910923016354103
P 4.430977586308881 3.303560044388839 2.395437031306539 -0.8010647280047752 -0.9565385648367849 0.5966923656998498
P 8.209358452685768 8.284602874996494 10.46784392545564 1.3330563110921299 -0.4170846119341139 0.8419157005828661
Ni 6.675710496036402 9.045248125058604 6.948718955623752 0.3285191068888794 -0.19303996801124174 -0.8212283474368438
Ni 3.983975020525628 4.598772461674824 12.992449927105671 0.15951046879522848 1.4697700937078173 0.013569511154318566
Ni 2.8938814705989544 7.736839509854364 12.149114095031786 0.6212844532169172 -0.534685327869434 -0.7473685240329
Ni 7.7058619944021896 5.866623270847818 9.672875513717731 -0.8660814991957922 -0.41966265707393535 0.4278073976682568
Ni 0.41901376549519204 6.732838104255966 10.220294994888684 1.0334875686890137 0.8198456081567042 0.2868386964309576
Ni 2.3450277416457825 6.024660788007255 8.893128394394994 1.1009813406656135 0.22813038395647162 -0.04585819598469521
Ni 2.981119894831145 6.667900881731672 0.5475359730311091 0.39987776113752427 -0.9955915649741887 -1.1506735656844183
Ni 1.3646974820306936 7.888856727681038 8.007031662230629 0.3286193799121695 1.6401231616445042 0.16729345517475702
Ni 5.321748903837509 8.667786540112933 2.899046253710746 0.8486753879042028 0.03432217032063767 0.3148428949533674
Ni 0.6492771678850429 0.10313536943625777 5.989853952128096 1.1242809346235023 0.4114873203519946 0.051003487631060544
Ni 5.659519382191481 1.34189303548693 1.9204037281655695 1.9666440071564324 1.0886798975904413 -1.7482290507155118
Ni 6.046002096787483 2.3949887706286663 4.32508834929858 -2.210109735918394 -1.615809267489488 1.5588693597693348
Ni 1.3588728890229893 2.8572471104176977 2.5138300386183383 -1.7781728894627955 -1.7215646540504481 -1.546785432021607
Ni 3.9397081136670753 6.598714036148959 2.649028627643406 0.5712672407585259 -0.6854378479663743 0.3926748156311818
Ni 7.553127186716967 3.4985487795891514 10.166759063701393 -1.6029491236973685 -0.3687183048155844 0.05298195151367005
Ni 1.8440941042855943 3.5656574103867165 9.135384866771428 -1.1511337931502885 0.8251233116158757 -0.0037221860465935894
Ni 7.4809674688631205 9.134723193005753 3.9815007334159547 -0.3628379347754074 -0.13352535758537648 0.7879706138249785
Ni 0.9220088428126667 6.302079163452597 1.4407731902554792 -0.014751190167245564 -1.147394123602198 -1.1707893625976868
Ni 7.479606843936521 7.604197218208517 13.164952937491602 -0.13355389683046676 -0.4805841751496562 0.4440585694197965
Ni 0.09720267198233057 8.827920910755143 1.4789368555768387 -1.8266757221591896 -2.5311572170205765 -1.5596442902621463
Ni 7.971323645321317 1.6148847202464176 5.589948579437698 0.14602477560396787 0.2880905665601877 0.5788707641373966
Ni 2.6385406324900136 4.479121342273361 1.431306595731918 0.9345741447505517 1.2944175156740094 1.2656093331930656
Ni 6.818902290537803 3.5260967746783893 2.5999930099975863 -0.2676667514881971 0.7194715405123158 -2.5945742478246414
Ni 5.125679124174967 4.898836854734121 3.950907175134849 -0.5210880488009735 -1.1106666862741776 -0.3393529642795897
P 5.215238066261426 7.294067928431907 13.139800946982014 -1.0018455163037006 -0.17752233199161685 -0.617845088518065
P 7.954306514390009 3.574464195014365 4.205111984623567 2.198545171009246 -1.604867937986636 2.345652123933799
P 6.180154122940927 6.773274758752652 3.7604271408899397 0.3683827758530365 0.28790596135320734 -0.13632837425181038
P 7.405723046552394 0.0891358436503805 0.9307951248729283 -1.3072524626551485 -0.7680461069869096 -0.9452048849915206
P 4.380569228583005 3.6022265351262863 5.649718223045556 1.1688669487639936 0.763266426210079 -0.32493473197173073
P 3.0595608537844994 8.716256473285844 9.351302995534464 -0.6243324960146216 -2.346659482152391 -1.2083341536206802
P 4.7218251433927865 0.7565214382126554 12.751052698689733 -0.606230129986956 0.3696919815827633 0.9814314714237227
P 3.5434400828181296 6.407695343542697 6.3571602426729745 -1.0446518128359492 -0.3743037693231618 -0.2220780071148046
