# total energy = -340854.7252124835 ev
CRYSTAL
PRIMVEC
9.39379437995634 0.00000000000000 0.00000000000000

0.00000000000000 9.39379437995634 0.00000000000000

0.00000000000000 0.00000000000000 13.74876761434998

PRIMCOORD
 96 1
Ni 7.730679563291088 5.388449625175474 8.228252889583468 -0.6026814934037491 0.4617994383429853 0.11070681702896419
Ni 1.594455712912006 8.947777156526021 4.333763224161818 2.019938090593883 -1.6347212739026429 1.228258403348433
Ni 8.861852118048358 1.9368970983569307 12.129602843143331 -0.3953029972826483 0.8621222574377281 -1.0439650711815698
Ni 3.06514818301837 7.246711269602535 4.035826819015966 0.5933458178251202 -0.9699707790822909 -1.3665886385216206
Ni 5.616963070677565 5.108082433921038 0.28011919507909894 -0.09852698713332063 -0.9129475676197115 -0.2913072737252725
Ni 7.950109209491999 6.522693950740899 13.246195289425561 -1.570189412767844 0.9331988616695799 -0.713185707503604
Ni 0.5549215024596784 7.946896531766038 10.286483995483078 0.13878249221925773 -0.6514229244735104 -2.669950507873111
Ni 5.089642415277586 2.0903823070249676 3.5383417943920787 0.24507523934092626 0.3467597982666222 -0.4416412182275555
Ni 6.653361632518999 0.5721919936853462 11.22089225145814 -0.7184613540802465 0.7849827348412481 1.948258305560393
Ni -0.00937218879295554 5.824932287563646 0.9102718403344712 1.959658834087851 -0.03933993525020322 1.9735703019626205
Ni 8.403585246167488 1.3266198435477197 9.780598100419638 1.356126562648032 -1.4099924594285524 -0.6945439240327006
Ni 2.220176365912676 9.16051842102844 7.295095887038514 -0.31737517445691793 0.11590224518697458 -0.2035408675425656
Ni 0.362075355371913 1.0783512481693276 3.6587533313128593 -1.714466866663402 2.8916379644177166 -0.7505397226720301
Ni 5.22678242148021 4.788702814023578 9.766354289788428 -0.6643972252459912 0.33677286225723935 1.0081719727423604
Ni 9.234513340465256 4.588380145877064 12.389111113665324 0.27457761967541744 -0.1437992287075588 -0.06459073939719198
Ni 3.8798625879740087 8.024348367586343 12.270060737570542 -0.37022677104031076 -1.0705690469223432 -0.7356152401517139
Ni 7.2052376667951785 8.773578630940607 1.5846551670889224 -0.3212907074612403 -0.8849235716029598 1.2588650724906965
Ni 7.7403082026744485 7.882022986808485 11.321065797464275 0.3062440975407629 -0.2793989523234608 -0.517853858134392
Ni 6.0589129214765824 7.19724354765836 7.271998425071871 -0.4589380576347903 -0.7321848743139262 0.4539159218298505
Ni 2.4080334687306824 4.433758288072065 5.470772143454582 0.29214082537016134 -2.465038728124948 0.03005876705859339
Ni 6.070025780394159 0.3669601285224962 5.000426730579444 -1.8191303057117638 1.3598957998824772 0.0348297060846755
Ni 1.9709402096986874 3.699614458717488 11.443759087074048 0.5540691317126845 0.69317918247469 1.8330998805179783
Ni 9.179146315562297 8.643465183039206 2.3352559850637045 3.5627185152211545 0.01575109218666965 -0.20967654812665826
Ni 7.475534710323799 8.96165179103258 6.8062174569541725 0.42920196402293825 0.8166209305718194 1.3538264537599458
P 7.3023037455739805 7.807304745193602 9.063105711231838 0.43811803556564544 0.04897283035427695 -0.028699167706905414
P 0.46523988555332657 8.119469930899431 12.263640079015882 -0.9656109594516984 1.2797632560959442 2.7482858505499057
P 1.9607761240276662 4.569733463754165 13.33292255795526 -2.162633287603985 0.6739167347006523 0.9994412777375821
P 8.512374780507688 5.330085979820526 10.361345962154122 -0.2853903940202052 -0.6896667984460574 0.40983101569549424
P 7.285526428560631 1.3758527206288866 3.6735053462276204 0.5075681599376678 0.4855425475961961 -0.761462797342437
P 1.1104686316344123 0.5441796984256555 9.823439439709157 1.0390424370689717 1.3110636088711227 -0.700563133643587
P 4.240640660322661 4.042084025545973 3.874691304090555 -1.0427288847816236 0.9172063428960655 -0.4105828062598542
P 5.731341912757375 6.939919334362348 3.8574508730073522 0.46973180581618457 -0.8149435428693964 -0.19746226544865345
Ni 2.5522751835906927 3.1397630928935283 9.494128700244781 1.592498874898322 0.16938710447899216 -2.9930083345371035
Ni 7.710107153291516 8.570268736136619 4.4722540580164685 1.36412012237647 -0.5608020795611438 -2.7054666985018505
Ni 2.7525978517372063 8.8576718794868 2.1057608880342364 -0.24272190861740134 0.11393792237175215 0.6925258651614074
Ni 2.3818717509915013 2.271551028144483 13.171154840658629 -0.5269380798238473 -0.041213241013516116 0.4692371255679531
Ni 7.31270267610801 3.4831250702014476 13.392537456740321 0.9529827291647265 -1.734477248347058 1.2945208740210932
Ni 2.368044085457542 2.5053625737560528 3.0706360377771595 1.0069082755385885 -0.5526899919769708 1.1992494177105928
Ni 6.711856790997233 4.8433371229539475 11.73121859319135 0.3732395897247056 0.21995119057978893 -1.8452925659294281
Ni -0.07168686412316488 7.434474434475338 7.807251200564836 -0.5236995182818915 0.35874499565295637 0.3761698759976231
Ni 0.3622435042938273 5.619039099266563 4.408886338320528 -0.24222234327316353 -0.9228242033034751 0.010303695918853223
Ni 1.6463188524588712 6.896444853322158 13.48855894556846 1.6693735738691893 -0.35707326437748826 -0.600483714421482
Ni 9.040869660222711 1.4183408532444404 5.936868743068164 -2.213427230327401 -0.4011977655005284 0.47852086486272427
Ni 4.143762457434267 8.450131498015834 5.664905240391636 0.108143170066846 -0.5788867049769967 0.7381567756266448
Ni 4.202379735241266 5.986890698889041 2.3405212068923618 1.2134581051108069 -0.11990982368447092 -0.2739122181772766
Ni 5.244564874507238 0.9936943719519122 6.889095148489433 -0.9443155404080318 0.7716631349142065 -0.9017781812664534
Ni 8.05757421880483 6.913438227609475 5.963514241225144 0.39514641710012594 -2.836736684394147 -0.8932017524513521
Ni 4.800153849543888 8.104364709310705 0.8256976295088349 -1.5288856689230508 -0.4728829498506566 0.4519665114129635
Ni 4.832891223447315 3.130444448729339 5.839239036618142 -0.5808654259699222 0.6481704789744837 -0.1770289372949661
Ni 3.8365571952351845 1.1836368971534368 8.652456923154086 -1.6173020499849304 0.9807634988224206 0.44926633887298106
Ni 0.28103509004483324 3.3908404328335062 10.136966725620438 -3.0123366025520704 -1.4743736539180996 -0.9765684869044664
Ni 4.283936659266965 5.666036253251886 7.767504177190322 -0.5891130106906951 -0.7961937730657191 2.05604409228782
Ni 4.540950877343805 3.20324635626207 12.144107801262205 0.6960693595382915 -1.262493156161587 0.23691172969352745
Ni 5.478367026324286 2.9855827434309856 8.256809085545886 -1.4240635928096377 0.7972438115967883 -4.522693102322681
Ni 6.677259445778776 0.9353523323243599 0.3664951356937388 -0.6774957103011623 3.3357782949180423 -1.8326193413371341
Ni 1.8611643269338498 1.7692084723741208 5.618021751320009 1.84380415430936 0.5787846321814936 -0.9420465418681969
P 7.192819070439274 1.6315705950619181 7.281085981890861 1.3486852758786385 1.5032736247819012 0.8988062431223232
P 0.7825509918974045 4.970716976649925 7.506579322454659 1.1595374438329513 2.2519942919673213 -0.048723947568264474
P 5.013712374169578 0.11382836572091756 13.171938283121627 -0.39258097036579487 2.109199850375193 -1.7034067521944987
P 5.820207208919909 6.598764898766711 12.506910236329995 -0.30797933506431474 1.0925524931719701 1.759214860303054
P 1.8470924227423622 6.8678501428022045 1.9332278822172808 -0.02976257597441326 0.1618296038467084 0.8615686989271033
P 3.264127538548473 6.01913020168289 9.780254287540192 1.8656652160485094 0.5393626787404453 0.37773824892600755
P 2.9667857605957604 2.823924933530242 7.302575226235619 0.4965993196309899 -0.008230615439908405 -0.8957643709722056
P 9.292059725696934 3.226759023946512 4.450943295767598 5.10720615234752 -0.07338134110562847 -1.4571017542115292
Ni 5.2185910326584635 8.851969846212945 3.033775727458749 -0.33711996118401294 -0.02123936899475052 -0.35666291631294705
Ni 9.06776409393448 0.6461333684933956 0.16005241041721538 0.5180289502596755 -2.4241340194907863 -1.4714258841436854
Ni 3.6166672531027766 4.002630088560494 0.7402854922119831 -0.49987490505846816 -0.0357308777427062 1.5553808870001018
Ni 2.3327985684171804 9.38952973764011 13.507394442961218 -0.2765568548889753 -0.6653369634514412 -0.4602071541552009
Ni 7.592712903170673 3.4347470284216333 5.275511791175085 -6.477248553745697 0.2372220618450947 -1.0051810084348367
Ni 4.481056043482038 5.902947751055172 5.682970446633725 0.4547301902010298 0.23849347235835056 -3.424330687337154
Ni 6.6564521909161956 4.678325728409438 2.867002996441674 -1.1730218514726314 -0.2118553009455319 0.4611666898549928
Ni 2.0319998740809777 6.4908114121388225 5.966841523244252 -1.0197411656371986 1.571470850583429 -0.9001211052790047
Ni 6.339195568580335 6.729874088887269 1.5340460991105243 0.49788615676321346 -0.35577100062629696 0.61512383293216
Ni 3.0239470002521043 1.2885280067676912 10.886741829056879 -0.7197589898457475 -0.08182355833571069 1.4720306076072196
Ni 3.8671809653715328 1.6160238651307348 1.3314125575120037 0.47447112027338284 -1.0433009552350099 -0.5836908112338592
Ni 1.259303912014875 5.3555337691761595 9.650315564216871 -0.23990166555978687 0.6194062623575977 -0.09108518614329475
Ni 8.793700138803201 3.5953339457470563 6.971945598020585 0.5653477899502973 -0.6458035214042039 2.3821695021335425
Ni 2.155180701626358 6.935382131609018 8.030407365051971 1.1717874648448983 0.011967970995153582 2.7049308806030385
Ni 6.15881592620053 0.4734857583832919 9.019232933303984 0.6799169181481451 -0.6934892575159411 -0.09153744318936494
Ni 8.103866838201126 6.797997886748864 2.907988121933971 0.17696748792941133 -1.741051559130466 1.0432973556905838
Ni 2.276116412281374 5.008724269279271 3.0089864430989914 -0.657696416187048 -0.5310598153017048 0.43229680089817807
Ni 1.150317107989747 3.5189060335294697 1.424441183405957 -1.192305639402908 -0.02584498608756194 -1.065249948702275
Ni 7.007094358977388 3.0885669127576083 9.695768378383049 2.983876547439164 1.2886374186571228 2.1690427906747547
Ni 5.491649851776065 7.222212253493455 10.616358362618675 0.12619411403128591 0.11419426135693238 -2.1100817387595145
Ni 3.73059519304561 8.54840937628776 9.870405594172562 -0.9327766865304967 -0.981354338328884 -0.5014085680941752
Ni 3.6757448268412727 5.2802894750681375 12.401842523378757 1.0626706180108731 2.3444982128350143 -1.247977479043915
Ni 8.505423372562626 1.9018770323850571 1.9232047034640651 -0.998267569144455 1.720336952290934 -0.32834298632233133
Ni 0.9966252358422621 1.9523311027538695 7.844510747150362 0.03219381112372519 -0.32889731616390455 1.7209385904306749
P 5.025172803484408 2.4406111481272643 10.170073275648516 -1.1068380565567066 -0.8264219758226413 2.135790713489844
P 9.452317860214144 8.665484237394912 5.678598574663953 0.4470050536426301 -1.0336546903944972 2.0486825097164267
P 8.264463149321069 4.271997146431597 1.5560717291223942 -0.2852914065484958 -1.7242763965546564 0.028533074442686344
P 3.648333734430884 0.5334641970162896 4.193360753122276 -0.740150409017906 0.6778862608713616 -0.4759119664849675
P 6.171516336392045 4.760615368407724 6.635540664934439 0.3212254014409435 0.4757489585445419 0.8217734213070363
P 5.5094135172140515 2.943028854253789 0.7163247405289205 0.11368621137226227 -0.8255426585414813 -0.01286528599844236
P 1.2828071859047967 1.0737670764433958 1.4505089631999348 1.0728876677531909 0.9036563721257728 0.6347804308208229
P 4.488495928742157 8.635499245285947 7.8096024673332805 -1.061042595489147 -1.082371181763594 0.729687304703053
