# total energy = -340862.64959699684 ev
CRYSTAL
PRIMVEC
9.35650045844659 0.00000000000000 0.00000000000000

0.00000000000000 9.35650045844659 0.00000000000000

0.00000000000000 0.00000000000000 13.69418419049954

PRIMCOORD
 96 1
Ni -0.04927600844768861 4.928957537301836 8.627856222656213 1.7864556982968784 -1.0750178267223163 0.8897755003786225
Ni 4.85908319360349 2.777158971500834 6.439703910871607 -1.8067884963169594 1.749036891328788 -1.211144626486282
Ni 3.5850646966375597 5.645497037717841 2.944550503169405 2.142148794497388 -1.4656972091900242 0.6406991102981031
Ni 4.552788802158786 0.45042753484796316 10.497796768656455 0.9685147633620546 -0.2542867306368653 0.39345720232316106
Ni 0.37588616883618203 1.7547367656501311 4.6443000526330325 -1.456043488150344 1.4026031089430169 0.20961458454047127
Ni 6.633852226240521 2.469769869529522 10.781992042214023 -0.3057872125090024 -1.0732339953490162 -0.2535704212961311
Ni 7.195672638895966 7.162962314100919 6.200863336516416 0.801090181926072 -0.6901097995207469 -0.057301147714314216
Ni 1.935597915046091 6.647232021565725 11.74351559503454 0.040427511887427145 2.3223065072293227 -0.8547244223117603
Ni 5.342065735342726 2.1212215230578053 3.342476843941289 -0.9942525344477909 -2.609278129693719 0.6710106167974508
Ni 7.118406660017961 1.9602990756464702 13.328166156950605 1.7413899163064912 -1.264484732670319 -2.506289507244619
Ni 3.904009076389731 1.0616727243047144 12.85132054371053 0.6651554435682545 0.348211186001168 0.38140001404831086
Ni 8.916641795225352 3.09445660721298 11.718976301888096 -0.9398076252353492 1.1718928800745108 -0.5321661609920061
Ni 0.7975228168343621 7.108460700276218 8.898124345625272 0.458723627631139 0.11506278000481475 0.20726819579548172
Ni 1.971040337907544 0.23621514039137784 3.690650930403909 1.6457114543655593 0.9600854016477789 0.5437412674241152
Ni 3.524462644664584 1.860942399731535 9.009937330292967 -0.23648209835527662 0.6805316689140086 -0.9351169046278993
Ni 5.577840184573392 4.192788099408712 4.026076785306674 -2.344649650811214 1.4642759033624653 2.172570087101723
Ni 6.8602421057430885 3.053774544224173 8.384277516585858 -0.4867198557337488 -0.21924825097549336 -0.12005329124087066
Ni 3.2335409830935244 3.390879890917759 4.141765232368564 -0.909767113009201 -0.4262192272455305 0.3839148100503646
Ni 9.003367195833274 5.319132953285329 12.961654265692273 -0.24944585760479618 0.2036195432993009 -0.33927120319906084
Ni 9.459983119931652 2.653175986987339 2.648085115213602 0.6692717797294732 -0.665958399085524 -2.4621462370685014
Ni 2.4148939956957247 8.722859319015331 8.488956169830146 0.613558545327569 -0.3078862611298762 0.22277014808582277
Ni 6.625393950034936 4.769999954938259 2.14745340709539 1.2873976327127505 -0.3556139062231424 -2.1068578325055785
Ni 2.4547526866645186 5.157546194357846 9.906167481926481 0.009083193248190808 -0.779906091649289 -0.3886433258742855
Ni 7.485686719944966 8.878036875287032 7.943680856526841 1.249434523205416 -0.2685288423781762 -2.093892016373529
P 3.6443755515791527 8.963349444360615 0.8775592554297049 -0.0782612949057491 0.010200594682085657 0.7932634867928016
P 6.502524389048503 0.7528969889996995 9.176897527301053 -1.6785799229588059 3.440963667908145 1.2187180679581657
P 3.3901220143993385 7.923991973098289 10.481062667999721 -0.6154231093401337 -0.27298250727415563 -1.4332411455438478
P 1.907696831367935 2.047801065773269 12.378063148307673 -0.46516758348426984 -0.9237536570962802 -0.03627518028195043
P 0.9000981288275284 3.9078826674838814 4.20303253150771 0.5732274498086901 0.26929117446549755 0.7321625057164229
P 7.568875363466925 7.650950583461822 2.340432159935877 -0.327344626964804 -0.5389533591171686 -1.111157766977983
P 3.602439717559872 1.4032879041079156 5.00822300027844 0.35903887274429136 -0.5677538282886286 -0.06821856595776637
P 4.32812987519829 6.939304532664757 4.507166507049903 -1.7520000877221698 -0.06056670583946343 0.09869359461817197
Ni 9.41638182887189 6.117027223178719 1.6452741338395638 -0.37147375607353444 0.33767480524621846 0.84240292463193
Ni 6.0867870144437095 9.068310663911772 1.037051093956268 0.3440076894427817 0.6434324500688661 -1.1262066908913055
Ni 1.2478670788303012 -0.29195461919616567 1.4664414736929081 -0.7319416479548685 0.2974077301960556 0.5556940689106171
Ni 4.8216852621945065 8.896310120231176 3.071262778799237 -2.7771991911501464 -0.34375546422265957 -0.5531191090945893
Ni 1.9624323576983211 4.1218096886835305 2.027957800090964 -0.3904976054742049 0.9891584077543353 0.8863523336296865
Ni 4.045778767835545 0.3548041025237673 7.016297301736121 -0.22851939186477419 0.4911236412283994 -0.9370650294932055
Ni 1.5636302485051508 4.451214635689953 11.819586748833503 -0.20095356643136358 -0.9788480269672626 1.9789647335053147
Ni 2.9976636123603564 1.731832053093416 1.7804905325260951 0.3235082839378493 -1.119869178709052 0.889620462857997
Ni 5.576258936034959 6.683516529447647 1.5963995192516314 -0.17899711676493046 1.7548864081310294 -0.5250092382322507
Ni 3.0634959479604587 3.3330099370111888 0.13504236778230128 2.0631341663653826 0.8739853274239013 -1.4744857540159315
Ni 1.5183541439046828 2.7349517989749583 10.287194111987604 -2.771672862015278 -0.8867451981927309 -2.8593585355587208
Ni 7.265415991591129 4.705627233373633 10.092859602264166 0.3827655269372698 0.4158301707017225 -0.2049724577827696
Ni 2.555260212107426 7.524684612892838 2.6630807781280814 0.09045372320688293 1.2735211318409745 -0.8160791991357365
Ni 8.287538789434553 4.222906673640765 6.826975069184509 0.006122825068286229 -0.5504904132224906 -1.3403034795728463
Ni 9.217284860532697 0.9234173343443184 12.108109403746255 -0.13420541437153663 -0.5695836824085159 1.294728619156525
Ni 0.7525826105920582 3.091116336631792 0.20717537063554547 -0.7560814784258656 -0.9050401398471769 -0.30717740798830967
Ni 3.6893335351718886 5.957227555794674 0.5682679769621594 -1.8966346678468302 -0.3871369165320881 -0.5743865031137978
Ni 3.798233841318788 5.056402426899475 6.020100430372843 -0.5293711147453722 0.4093183377251337 -0.6170192501826599
Ni 6.881556213261143 0.23493329986022177 3.386448652410055 2.054794279041119 0.028624862825544252 -0.7429480263677012
Ni 9.219418142584548 8.146994799518533 11.184737916253049 -0.113201815536676 -0.44577323811805813 -2.3004572725647154
Ni 1.9143493030296281 9.115299008053858 12.967529212185065 0.06135192074492015 -0.7825327306388588 0.21333291393232293
Ni 1.2330744519707557 0.3373149322986805 5.995067114014391 1.5461190020822018 -1.8386398364996013 2.031403925141637
Ni 0.9080165349699909 5.970728985622835 6.255010338982497 -0.4931836090812216 -0.12032685661723148 2.1033960992092227
Ni 7.021492030662382 6.612070293711095 11.533761572936319 1.6221166977647548 -0.29105659116704713 2.094654605571167
P 6.948923014898541 1.842332320779204 4.871390734002633 0.4920764920599719 -0.3331746033830198 0.8545166771763283
P 4.329009386219667 3.752639615710588 2.1490692746846647 -1.8186667358117838 0.3897596988669158 -0.21890295182093267
P 9.442299334501833 8.67556221036574 3.5364137024050626 1.0669281077356465 0.9787287277805791 -1.8552777021665983
P 7.017337744561409 5.019294546997542 5.3261203876551635 0.5279451809321231 1.3946715128007658 0.0589134865067566
P 2.287280689093992 4.713608328067619 7.710195007251801 -1.5198086463224472 -1.2373994464177527 -0.23535955471505918
P 1.485737384111909 6.056556162208927 0.026172938086151967 0.9552540416974065 0.02943553165229769 1.2214051278720255
P 1.794632882619835 1.2955197344885332 7.850067200451495 -0.671312721418902 1.1007013475313496 0.34977853048828794
P 5.283306913914551 2.8256537121795335 12.52800106445202 -0.7068708210291698 0.2948371412554019 0.05007609072078473
Ni 4.130894850404352 5.286572332493919 11.875706101547525 -0.5153514034275124 -0.9429248307080922 0.743591573488971
Ni 4.1772563090312005 7.741727348668216 12.450737892524083 0.4712618693074658 0.5533880464852599 0.9431528875584984
Ni 1.9811172886524717 0.39574066231875965 10.74701744436394 0.4960097656761071 -0.584717966946793 -0.4091409316070051
Ni 8.520646636100407 0.9592377598149594 1.1243079437771082 0.21632490668111132 -0.5442038088828305 0.5322504931756963
Ni 5.804417194080508 2.7143487854741872 1.1493253540851742 -0.5552137868400889 -0.27225745618267305 -0.3204054766428095
Ni 1.552084327224519 5.985371908478743 4.182450102307439 0.19265507386799724 -0.7440952525982669 -1.5589081834270702
Ni 5.641483099120279 8.464414069733634 5.2827782716517016 -0.6722275199236875 1.6108051294066772 1.0141808979406017
Ni 6.6979816787992315 8.290177322498685 10.167506696728518 -0.1548320894829527 0.8734515664076182 0.08070281446770616
Ni 8.358479774158825 9.096033974085607 5.255348755585008 -1.0643804016131282 1.2706841766128116 1.8739894196434888
Ni 6.319520601100465 1.3201086170861835 6.972517301522016 1.0119916035987668 -1.8540227467135748 -0.5771165004504513
Ni 1.3967009279478142 3.301834078253437 6.4745278690680275 -0.14736997677795263 -0.6390032106529189 -0.9811435078696585
Ni 2.7737251359173722 7.726307836293434 5.589143772498134 -0.8152811287144732 0.23638233955261873 0.7837259796160115
Ni 5.256930939773464 6.21089163346016 10.151210480282428 -0.9326507024755939 1.0024047312412803 -1.4326708748626744
Ni 3.4267901387905835 3.023534335489163 11.142806760483882 3.6173140910788475 0.28830036857814867 1.2963211604546254
Ni 9.388312328189642 0.4826878119820723 9.288833082121728 0.02499215116896341 1.0299561584969874 -0.33221326791101496
Ni 6.187696869396395 6.546621574620316 3.817336072183082 1.9744408774930318 -0.05199310523783949 0.3652198047440226
Ni 7.731070294909189 3.626906965654566 3.818143538152708 1.5372283844607915 -0.9485460335496115 0.9267366509840039
Ni 3.319489794182572 6.316301965022234 8.176865426494558 2.852526600238552 3.7313463729366187 -0.3703887505394718
Ni -0.21143632083911093 7.8378653885049205 13.339477230075529 -0.22563152879401785 0.15507994382770068 1.910514511152716
Ni 6.04861249351585 5.402424518309789 7.185392652096104 -1.417074048865682 -0.6856188536289288 1.3152601634509735
Ni 6.938116257135874 4.3754550533485626 12.565961321524671 -1.4889829191908421 -0.3404647092865298 0.5197842423878855
Ni 7.694261823014533 6.762045635856352 8.436918122515326 0.23055673400977714 -1.9895941881947028 1.5644463396364798
Ni 8.611891226318171 6.948193207880802 4.329169382373556 0.18749204160981903 -2.0132583645808615 -0.6622002175946724
Ni 8.716206847353638 1.631446162153465 6.962478712428022 0.30498194299888765 0.6114857219589404 0.45752703621987656
P 8.492408718414064 3.9674180784309323 1.2283138646550467 -1.7208812548301784 0.9571335181083065 -0.06453828889270176
P 7.273359660284205 8.856704054768523 12.295281512545607 0.6970648906823415 0.3189918841247345 0.650702501367718
P 5.1845022715130336 7.95603798637719 7.668825241496278 0.5202827792908588 -0.9185852255214632 -0.7400444795676611
P 8.734676578802556 2.9001501669902225 9.500764361822869 0.014555529216671708 -0.3962761598291949 0.11725824499423676
P 5.669421608799344 6.175458567098935 13.189676854484523 0.18164483880042265 -0.5920852059451416 0.1831201377943685
P 9.08704237736706 6.0630402168665265 10.516777365017791 -0.08777334816124238 -0.20633745645109622 0.9462191851886478
P 9.487210535593434 7.9033983160977455 7.001589819028645 -0.2680840415312738 0.41497373623869827 -0.34191918234486923
P 5.155749746314183 4.3577525549182905 9.103455550065995 -0.07568453531750836 -0.5617256198166778 -0.22011676962337573
