# total energy = -340864.12253029353 ev
CRYSTAL
PRIMVEC
9.28819090821603 0.00000000000000 0.00000000000000
0.00000000000000 9.28819090821603 0.00000000000000
0.00000000000000 0.00000000000000 13.59420625890279
PRIMCOORD
 96 1
Ni 2.9343159677629305 6.547320041541761 0.03471832860923546 -1.957141981203268 -0.05029232049664887 1.3366514846425561
Ni 8.172186862101713 8.846788164139962 1.944678737011985 -0.5514612617761923 -0.6344893819429653 0.6400079977683494
Ni 6.506554171864687 5.638888534645837 12.279292967331298 0.5835851388939304 -0.08701410139771466 0.36981950829956306
Ni 7.383201489643513 1.492946645799532 0.6151002225809006 0.8162337224357298 -0.49868756961858635 -0.8112619802527513
Ni 0.4561476971464882 4.041774828370483 4.547764815300774 -0.9733854611907946 -1.269102948168621 0.43813886150125186
Ni 6.06918255253825 4.949779078486926 5.730732952309955 0.708914848042392 -3.010222641532861 -2.5519157897241667
Ni 9.009303639587618 4.17081566396483 11.491549425990852 -0.33723797481911594 0.21175142837781596 -0.648186934034716
Ni 2.696872656661377 3.087190301099672 3.497054943199257 1.6929426194383814 1.8838107766092846 -0.8520623020985648
Ni 7.885237493725426 8.228584756993303 12.836383793906693 0.264463414059551 0.09157318152330682 2.130564174983582
Ni 0.7046643893893052 8.414645796266747 10.51596151273217 -1.3329318696991237 0.5948604546974335 0.5875934887223752
Ni 6.333245818639688 2.9286315949576514 7.3371329918054355 1.8962849978168956 0.7059812193353647 2.62810271859939
Ni 5.565901930881325 2.427626580061009 13.017934487699348 -1.3698194867540923 -1.0442265523730727 0.435473913074579
Ni 8.611620459798692 6.654542916809964 11.395656285931604 0.14422886004580968 -1.093715917352452 -0.7269642493449351
Ni 8.571365440618825 2.8846520112436065 9.093218728716005 0.35715476834770105 -0.7984162346383347 0.10624621015444928
Ni 2.0498758578539924 7.117531366523589 7.714412802735937 0.8004065255954861 -0.39403467209318593 -0.11572355351726522
Ni 2.359952821467443 0.07318537104888036 9.096522538204301 0.18892980249761013 0.692179280455266 -0.5848125835431283
Ni 5.9152215008710884 2.300471247210897 5.34617955911832 -0.793910119237865 0.7533365686908767 -1.09931860825121
Ni 4.242873448643513 3.826047307495633 6.856876866467148 -0.6143584155210452 -1.3337674782265416 0.8526294874559445
Ni 0.5680592511599599 2.63816200224607 2.536298413103106 -1.112301393664123 0.21799380974310198 -1.2700557990001933
Ni 3.785680830025466 5.017434260698774 4.534633171065312 -0.2638293800199779 -0.8277322099936325 1.128990167173714
Ni 4.156530426424766 8.974937333411912 5.947207243729812 -0.05959097218975543 0.511943663297544 0.03709536219040063
Ni 1.6159501573359845 5.666678801693868 11.778536875949657 -0.5981812915405504 0.5923263754216702 -0.6829068540144045
Ni 8.94714706636388 4.933914848500951 7.798003734003369 1.0959442924623384 -1.3980946795497018 -0.9706503216478187
Ni 0.22563337642522605 2.747075328250483 13.222023905428749 -0.4622635224635974 -0.03787080690384446 1.3925752923933694
P 7.410202260468587 6.884304894071704 0.8802706410326475 -0.601673363854209 -1.1203726007080317 0.25355962266285365
P 1.9337548957435395 4.973008843823531 8.250962795228203 -0.3747056327472708 -1.6315860707077707 -1.8855750675985592
P 7.836418762574207 6.722021623395506 9.062944799432465 1.9122898578855838 0.9255488013234899 2.934020800259302
P 7.077118448099131 0.4218928492610818 11.705318067413689 -1.848845059167377 0.7731859993166361 -0.5232480325667698
P 1.378804068341897 2.319363427416677 10.456473436742023 -1.2724932047970925 -1.4432476219372563 -3.26484978622828
P 5.262057343333793 3.7923404628708663 9.003266315529723 -0.39831015954008825 0.4659026618780815 0.8673889051533061
P 0.6837808210635059 0.5593998708227679 2.804349099540011 -0.8214839150910757 0.017546236413879458 -0.5248092064063026
P 1.310665900205416 4.723769530331938 2.6375071847905596 0.3113734483475282 -0.8488810761571058 -1.5649829288662402
Ni 5.385803910138909 3.7649124352663095 11.274667382992316 0.11220319906883257 1.0930078355418336 -1.4722756337384901
Ni 1.4337437172687348 4.759018214639182 0.2924303298017684 0.5613589805058785 -1.4617932461499277 1.2015616107835372
Ni 6.448530843572894 1.9687342225158933 10.373997088377587 0.14446205910253831 -0.47044708671565433 -1.1150231634706604
Ni 3.93914031938628 1.9158751283413142 10.56938625773002 -0.38850782873768575 1.1600730046214474 -0.601599316083164
Ni 4.461192374767829 1.3259171095947428 8.091217058294491 1.13111029884051 -1.0242933037842554 -0.3456020305130951
Ni 1.728337266721401 8.327522566015904 3.7326703383398967 1.7737608764380293 0.5607159476052408 0.06571302592709327
Ni 5.490974095227427 5.823937161115726 3.291021507123213 2.3553837493992664 0.776594767887869 -0.2938020151226682
Ni 6.257769979725152 8.000429636750049 8.37959123514844 -1.0571237200507149 1.9214992922989942 -1.0472010616203642
Ni 4.214117209746219 2.2786439986938944 1.5745489754042028 1.0048416228175467 1.2961671513752646 0.41411267378998357
Ni 0.7080973047305326 6.10920536694666 9.50725748378731 -0.7020438319541715 0.564657448751492 1.1782283353742353
Ni 2.5716492675097915 2.571259163493743 8.561101060901319 -1.2000546872207074 1.2184563296563466 -0.21438115269117916
Ni 6.97649018834032 5.936119930302261 7.455361444421637 -1.2938940390703717 -0.28399839876868505 -0.9463143160056154
Ni 8.187856040079664 5.948640411579247 2.807801520082041 -1.0349250724664885 2.012888897056585 0.3513456178650917
Ni 2.5791355493415806 7.338376680561362 10.420856011257705 2.794387787114291 -0.7114062470056781 -0.6042310972790562
Ni 1.6852586375206107 9.070410647244366 6.410089808067652 0.17082280848425418 1.6356543272398734 0.2982052863966864
Ni 8.652479211384348 1.658731564429309 4.765517161782735 -0.42325217419740657 0.952581894181882 -0.9342517284141265
Ni 0.6969932725594362 0.44092713878699374 0.4188453938404739 -1.9030122892383998 -1.5022757796450064 1.2813054037720837
Ni 6.571376455864756 7.813541948490218 10.643963928588558 1.0610199697813274 0.28517519268560565 2.233422442502405
Ni 5.438337917633447 9.146973204489324 1.8504844070607185 0.8803737474487484 0.11457812705891235 -0.22191808449817266
Ni 3.085211916446854 0.32781740815280136 1.0900769402353323 0.2670671702309852 0.2609021790708539 -0.6257496880771223
Ni 6.01174438027053 4.3811374577601505 1.1025091836991654 -0.8499146596279428 -0.03349890308839392 -0.012639543140881459
Ni 2.1962763221625 4.480530388134807 6.084495063987242 -1.5542498587194522 0.055792424379271656 0.9392468676358728
Ni 0.3849342090168246 2.644347937357697 6.8986384302042305 0.9820845316266893 -0.6054071198650283 -0.01417217773532398
Ni 5.5086773870033445 6.100335144676985 9.659036739421857 -1.4277680382444184 0.0057842107819448775 -0.3472588493902277
P 4.08781639045507 7.79468692104787 8.644922339302036 -0.5186344450541583 0.20154929103383354 0.3555815103233102
P 6.707095500686219 1.8121910537901236 2.56137931487777 -0.18439746184489533 0.2219185987188049 0.010462847204536819
P 3.8846743681932154 7.649363886878926 12.218499900525561 1.9680755973966362 0.5946817630277242 -1.1516292447294683
P 6.758449907941754 1.041865656766246 8.355230168165296 -1.0196331793044244 0.14592810212510351 -0.6938312142363923
P 7.930257354815601 3.4188065793135176 5.870997637737469 -0.045319035651773566 1.1822156021567574 -0.3748971799327866
P 0.7383182913261797 7.374266250037829 5.629972800240957 -0.2878185438457237 0.22160338147123124 2.064425117262664
P 3.7039168858998606 4.517989661866326 0.3920080951745051 1.5728371348033365 -2.4351229144021227 -3.909895346420537
P 2.067300503904161 1.6953827655561566 13.178467863217842 2.3479609745726338 1.1432057965524633 0.7404034055689764
Ni 0.6379055175952818 6.768555459595583 1.4069054897836804 0.9369925243840572 0.8522839311910677 -0.26977557030108373
Ni 6.5710978101390065 9.261431580436142 6.462141758456645 0.14137159310267264 1.1249329663852048 0.1564716819689047
Ni 8.240176419184461 0.04603227389372935 9.475963711147529 -1.5108187841190108 -0.25186243746608883 0.17423054861422252
Ni 1.8305073661626892 1.4265267929718366 4.548567314990932 -1.1975458047559246 -0.6413747962088889 1.2849743679832386
Ni 3.5634980165040977 5.275320879879444 2.1748558964050906 -1.3452844777272057 1.1880661474002636 1.7825512210361494
Ni 8.80044009175705 1.6260928617532469 11.192463178620027 0.26420527530215787 -0.24670686140707834 0.40515597881732807
Ni 0.945314912794229 6.250998888589451 4.00406477348579 0.9332353713344702 -1.2124929129840603 -1.1327365215900234
Ni 2.207097064512418 9.074228093687127 12.17646619279633 0.7346305076409413 0.20588828472881965 -0.12773214794236712
Ni 8.41244449503333 4.841367314788861 0.7311524520790019 -0.555543659375682 -0.15176476341153863 -0.5590766122296049
Ni 6.190987887453983 0.5133694545672102 4.158644418664115 0.6260037130694572 -1.9088036991091966 -1.1022342392361082
Ni 4.551259961520753 9.125396737125497 10.787220340291533 -0.19901906841281208 -1.3264295498042318 -1.4750074308473566
Ni 8.343098862085272 8.698047075735163 4.953035518201845 0.8074202379091578 -1.0076883482377226 -0.03350764483914229
Ni 8.342318654053173 5.9109303566945535 5.44150240425887 -0.45328600155533544 -0.008994490189126444 -0.1796352645695616
Ni 2.4622993965350384 3.26984257432812 11.729937346102695 1.7482100245521182 2.8730745995932323 2.8613259436977363
Ni 8.901374861814185 7.921108486820176 7.48881750789323 -0.407615238991098 -0.5034271411861008 -0.5039146223454805
Ni 5.3024423971856764 9.192596797985289 12.996292074180426 0.5681821740752989 0.7345924553141542 0.572961083521181
Ni 3.5128030707995026 5.07943293467792 9.650119147378804 -1.3443236564758332 -1.7325476354245128 -1.2158949966870738
Ni 4.60243789314998 6.1309397335550795 6.94746830718448 -2.1265455407424927 1.6105788723284844 1.6248369249093952
Ni 5.237239297360419 7.02055336577209 0.4590818366386248 0.42401193518156655 -0.718116569146318 0.6240918407587251
Ni 4.025130390352412 5.460248759868175 11.76966015194638 0.13487390119347095 1.0472537692351707 2.2255330124519994
Ni 7.305097092716077 4.800452834058055 9.849342481917544 0.9264006078008239 -1.4164636689751928 0.12103982352385607
Ni 3.9072632483605982 0.6453314261864919 3.487973878997098 -0.8277658914450455 0.334616735146185 0.27441538306594027
Ni 5.946884943507029 7.216320564492457 5.319834534567841 0.5838232230466655 0.7343764826486062 1.6525745000339798
Ni 7.354008705775879 3.979033099122674 3.295616375140814 -0.6623804519262787 -2.336260398306254 0.6694592131499308
P 5.119650801094354 3.3900967813705156 3.5867909415385397 -0.8716420240027053 0.7551360837934608 -0.6220544986137223
P 0.7417363455620336 7.610102704120897 12.905455425224433 0.008351457288488844 -0.48824683390123663 -0.45735091565332847
P 7.367077190313506 3.445807350138592 12.845233582156482 0.4605812496651681 1.3117822322047021 0.13881668789130286
P 3.226401705683856 1.7593505359972612 6.185798575221451 0.21726927287225165 0.2957974482861422 0.4290800937330933
P 3.8704077070348686 7.061198488968006 5.006990618897703 -0.7644951564108576 0.0391167634958036 -0.3244184544569445
P 2.993648930965744 7.666435581676479 1.8584778241133704 0.1838091934415931 -0.3678654698969858 1.4883198316855464
P 6.9193027972257735 7.744920794429105 3.64652329694826 0.624977071577156 -0.1312095649680063 -2.5287306098569546
P 0.35159982084547575 0.608649574029812 8.02301480164109 1.6758859210664103 1.329183458400285 -0.2226449353618682
