# total energy = -381180.7054595992 ev
CRYSTAL
PRIMVEC
9.08458844691883 0.00000000000000 0.00000000000000

0.00000000000000 9.08458844691883 0.00000000000000

0.00000000000000 0.00000000000000 13.29621347634648

PRIMCOORD
 96 1
Ni 4.947748432122616 4.2544762421433955 6.322841688478674 0.5255239730851401 1.7526827156114912 -2.711649173163478
Ni 8.243555320526317 0.41411005796620265 1.5192520464270185 -0.09482536991201734 0.01054126585095604 -0.0978009076005735
Ni 6.502230512131586 2.625237084685773 9.66423322425409 3.16937906942278 -0.305982359238944 0.8636790604018867
Ni 0.16681302801405337 8.080087237938997 11.817355154423698 -0.17659750618450232 3.0922855695728875 -0.8088068338440393
Ni 0.39837827633807876 -0.00948340176797281 7.613850720537551 -0.04690643474355148 -0.06714564460856177 -1.0128128139484815
Ni 0.898133290878248 4.673148580373872 8.82740909470501 0.5060200987242575 1.232191162743936 0.643906304381491
Ni 5.4279325180022395 1.853710250747056 11.722366698742192 0.16173678702258598 0.890098688045996 -0.9487411802795532
Ni 8.672175282988933 3.093093384188215 10.748778634030792 0.6545380730637245 -0.510181943411431 -0.15671567965891076
Ni 1.4055765925304349 3.7906444152755077 2.9175082776732 1.77327133839612 -0.714039570863467 -0.4541316373850824
Ni 2.564570203752233 1.4111726989477846 3.5644090949304736 0.9410430403043472 1.2879349932734592 -0.6881398202785698
Ni 3.605600435381037 2.057314044619847 6.849610634906231 1.3686437212784364 -1.871743046811473 -0.366958127591368
Ni 0.0517966888785073 1.2353041532765654 12.573045733968383 0.9237194614242351 0.6169755414289181 0.3371646983790193
Ni 5.958536069168049 8.989300092756531 9.859819868916961 0.07403414419827894 0.15352596907701946 0.5752336816054415
Ni 0.9831523193155985 5.839346270149173 4.870269612007344 1.2158052651867448 -0.055282317512072535 -0.49071097917101303
Ni 2.6862037570345283 7.319979731543476 11.394482102544872 -0.4176080885377517 1.0830779780226316 0.7680648760399869
Ni 3.4846391416358906 0.7416121929944143 11.065188486696043 0.07076472941838781 -0.5098165896522122 -1.4998828539327973
Ni 5.094319180397808 3.482504263376025 13.446859581860844 1.0722011832091278 -0.30617236376256307 -1.1595536417828676
Ni 5.306453402721721 6.349627597198731 10.123324712926241 1.4355407402113018 -1.1485619186580542 -0.5025336828375538
Ni 5.565627623469395 7.217587336364991 5.383038299344353 -0.8269246264906728 0.6179584741674777 0.9017226454381697
Ni 4.481045875339335 0.8138701001907731 0.334291047894584 -0.6214749719611684 -0.581276802475728 0.06417139247158625
Ni 4.592568281799374 8.756643785372889 7.412386347218796 1.1851402320027202 0.4624974928512745 0.35347783371674607
Ni 0.26949158772524473 5.510965655428498 1.247337598991535 0.8326592149816046 -2.305509490276642 2.5454057565197905
Ni 7.271086477098386 6.686983785199181 11.302858578384448 -0.015471356162721744 0.5820563609542299 0.6845163645933694
Ni 7.4445021839178445 2.928653250648532 12.942986523426217 -0.3347522322827848 -0.6819339485781739 -0.361735445739848
P 7.336768050795525 4.563424922405125 6.972135386304665 -0.5274823823630915 0.06874769898835902 0.6935707614861539
Ni 5.982728327917077 5.457630037285219 3.627419799655696 0.1449891352506019 -0.12266810315589842 0.5582805986908708
P 3.005935843655663 0.59268399404503 8.704804398929184 -0.7872548187048765 0.045892905877372575 -0.4280886763541015
Ni 0.3152969905936189 8.007574053810288 5.280777630696795 -0.2721564118284345 0.454104897912205 0.17225594138635494
P 8.114363389745264 6.529956675744818 2.9850267551326573 -0.37116830901797365 1.11912150190975 -0.1094804008210308
P 3.752907035311757 4.217193091596638 3.5039111873400555 0.005858258552989911 0.0761506763206495 -0.24359171281686437
P 1.9536316378971017 5.957545849039004 7.20878164488717 -0.013003097127887282 -0.739578852785152 -0.5758877702496727
Ni 7.246340058460626 0.7888947499268485 8.090093911995346 -0.3035287554921289 -0.8070302015595909 0.4974552398733819
Ni 7.340011248832853 1.5079144801788817 3.674940372802635 0.6367990039127485 0.1700134252090814 0.11502627033992448
Ni 3.117158458700487 5.669537144900637 9.523838179132332 -1.456229378908905 -4.832235153888426 0.23601698579339997
Ni 4.669941720689904 7.484692402733355 3.2314453053923424 -0.3751249796728765 0.7079000336246325 -0.7333714384228596
Ni 3.5457875057514427 2.701311427443704 1.603975825743324 -0.9796494398226353 0.6072066349676124 1.2873765496668281
Ni 1.6534950083250302 1.217634628955551 5.7826030229196155 -0.2545376703054068 -0.9823526976864114 -1.5465010680119688
Ni 1.9028397044889824 4.693588904138541 11.542935177524082 -0.9175161608270005 1.5995107874397807 -0.37543248361096637
Ni 8.393605466135673 2.8085277390306524 1.7605777764633825 0.5723746148900917 -0.4527653531651751 0.9448300181506051
Ni 2.32330170662241 3.0048002701131815 9.887728632755824 -0.020270577323577992 -0.5768941000269999 0.05933874696963328
Ni 9.008177867326745 6.660338687598392 7.414620247491565 0.18954146793968002 -0.8183957630840552 0.06463624792314675
Ni 6.989664099506412 3.4321756439732383 5.006955419709942 0.38617686661166395 0.7076557788243103 0.14988991498632892
Ni 0.813069747958032 7.6647580282175864 2.1476039512119804 -0.45702798509627096 0.7476284625625059 0.3293768269034843
Ni 3.4522707533809935 6.03766283360817 4.831432088395637 0.36094354596617195 -0.7551993329312283 0.6166916916399121
Ni 8.474594571185465 4.551860241448491 3.4041760342509764 -1.3772242638585959 -0.5232236070867375 0.9347836896581966
Ni 6.907493997972439 8.228665680237297 3.691374393109429 1.041891990702625 -0.2620537761767939 -0.144825355979228
Ni 0.8549369817810797 0.7904418553211255 9.700651521990896 -0.44331552060618495 1.7480272191173507 1.5293117007168757
Ni 6.3038685257308895 8.229810338368118 1.2951016391059815 -2.256026038834534 -0.4853525430725769 0.5857569497342685
Ni 6.343204793242455 4.343541546227316 11.338399304887622 -0.9859517278915794 0.3472040848928924 -0.21767602139236703
Ni 4.562289348862643 5.1943495826079324 1.5585292641143742 -0.1497446476577163 0.3039038794433605 0.2108633693459078
Ni 6.287843311899389 6.603814378947825 7.653220601025973 1.727147033234232 0.678540863736225 0.31602277419408153
Ni 4.126883198910156 5.688878233476184 12.205378816972013 0.6588084183043041 -1.7254408491764026 0.44542511075002
Ni 2.367171183715562 8.211105170976362 4.282191504250619 0.32903487018303335 -1.1369613583046483 -0.8671647049576421
Ni 4.132533812857544 6.278041041080687 7.237195511837729 -1.2832676697047771 0.345699732433224 0.2409074811164819
Ni 6.0827314763621825 3.2362210734826036 2.484570410372651 -1.102526059444914 0.7954908334614236 1.3518873277557042
Ni 2.4515034172744197 8.085955882006543 6.669793018683677 -0.04602608902112718 -0.4919322531726238 0.4240944675930438
P 7.701477934287273 8.321428411775539 6.464738416053011 -0.5705213637314368 -1.0176768269090022 1.2070200627949472
Ni 3.843162420468199 7.378202858213595 0.6561452943519089 0.05139043865683408 1.019045939342387 0.043189648013596586
P 2.3788176259672533 5.049523075293993 0.525701507297624 1.2060088479216133 -1.4005236007061685 0.27257704430562085
Ni 2.9403542004302627 2.8342643777974565 12.414913938571893 1.1610335687625035 -0.998525450791532 0.12065492938061155
P 2.14753309142293 9.332234217997652 12.537743932138547 -1.1379424912709952 -0.9074875729464048 0.3255399696558974
P 0.42527229165938035 6.366343239744061 10.8426097131578 0.4911796912773153 -2.5904779662680806 -1.9926874824080456
P 0.23626016357806157 2.491766312796649 4.346824716453339 0.2690140095447109 0.5431283164304647 0.13979679241638504
Ni 4.708133330070647 2.514050807994309 4.629515302577556 0.5537233183374916 1.2083344107309963 -0.26657634663749574
Ni 3.1394066155447877 4.058412656592682 7.51803829269362 -2.1990241675281936 1.6022253581574666 1.6836308551191521
Ni 1.6295662026378568 7.8204587877743315 9.346679621916852 -2.724601362448772 -1.6877880718206353 -0.8031452646828877
Ni 2.6772009299897337 6.294402384680763 2.568522908138903 -0.7764548998758951 -0.9592420798108771 -0.12751566105618684
Ni 5.33073650735415 4.404771671637928 8.655197095840581 -0.2494772250633639 0.3749655712768768 0.43605189706523617
Ni 0.8998748064629978 3.3204533765697226 0.1853583066510298 0.41668917626790813 0.43495814978042513 0.0533007683056695
Ni 6.915243151826335 0.20365012527332432 12.569441877773963 0.6140779081661489 0.2330332205747277 -0.3229202726448632
Ni 4.5696115270645645 2.036037938727911 9.125643411478716 -2.021228270160216 -0.5381853706028925 -0.46576459363832046
Ni 8.19318127818183 7.7939408744103 9.319927326173651 -0.2360727787319999 0.5268462914409894 0.8092632046551677
Ni 7.567643778864555 5.335233378582378 9.236188316233386 0.557237245028021 -0.9126940568480088 0.29516984200447227
Ni 3.699317048694963 7.577091750738003 9.385810577731935 4.022345885613485 5.799419885585148 -1.6079136667914953
Ni 6.351335499806623 0.5732229889033964 5.7385791078246875 -0.7705197653383827 0.47279733211538577 -0.9159287617352226
Ni 2.4155738703903 3.51007598898748 5.1771733514337726 0.2663403193672897 0.12176718860818384 -0.3445036552425938
Ni 1.3819839166118362 6.771633979349934 -0.08390889174222058 1.3399856912221115 1.2569891956242223 -0.575950248056492
Ni 1.4977942487682852 0.9882487733742563 1.1697007070391492 1.0821030157038718 0.40321428170992485 0.8109819871184873
Ni 8.54113009618655 4.879959233930632 12.26769818452457 0.5358420671816965 1.1376126187354023 0.4007365095933937
Ni 0.4913426857374651 0.43615381157285654 3.5691421654555375 -1.0725423685986302 0.9037836417322564 -0.056727277488715214
Ni 4.12354915498943 0.387282360139782 5.141951493981327 -0.4151321161934334 -1.2528749163455326 0.11248267798246435
Ni 7.713714874781056 6.215893372247751 5.432792772764061 -0.4500260998571411 -0.7822362824443625 -0.7698145117412419
Ni 6.057149275597155 2.530966311483116 7.015494309533117 0.6487924288291989 -0.8579154184452321 1.4469818921687079
Ni 8.48914808170591 3.003492089392243 8.334904490118877 -1.6485916041268318 0.08997061292287731 0.22757682544584676
Ni 8.419323935725798 1.7878560698714598 6.312403496476182 0.3074972532215737 0.20470532016431198 -1.3434183710527443
Ni 5.165742213925735 7.91591964204951 11.81614508725683 -0.8618607762462253 0.4237584244098637 1.0619278263075775
Ni 9.485036993873981 4.103581229818433 6.4055305200068515 -0.2906508710881962 0.09883551951267495 0.10420115469996247
Ni 8.184323804550473 7.298249396234548 0.4052180628991543 -0.7250847729340351 -0.419604035921858 -0.1634285729027121
P 6.129844151492661 6.293393995375039 13.197382250707129 -0.5179793279686629 0.2503578278961043 -0.024338319635048407
Ni 5.157838622070062 0.9549265033436746 2.878072079689897 -0.8889764015160947 -1.0730833287037647 -0.505906970185161
P 3.0925119705344652 8.809316228567358 2.289036456322152 0.34028807449934945 -0.2625469137631285 -0.4346635013581417
Ni 1.4724936702417941 2.183744260545585 7.778444383620179 0.1914003755252897 0.3233432191148948 0.7438651388653318
P 4.168926673746997 3.785811414278706 10.703199437412078 0.7173169560631582 0.15685863299467823 0.18198859529308656
P 6.364571745017789 1.686181357171822 1.141970909590581 0.3348864438678039 -1.090770975791515 -0.8263242739025124
P 8.001024065617255 0.8840221998099539 10.761742341591761 -1.0849962780912668 0.20352158426885594 -1.1991213767731608
Ni 7.190651531937325 4.990673112028422 1.3356579668315884 -1.5154634819798738 0.42726463779090934 -0.7292371045395118
