# total energy = -381168.39651228674 ev
CRYSTAL
PRIMVEC
9.23809218673335 0.00000000000000 0.00000000000000

0.00000000000000 9.23809218673335 0.00000000000000

0.00000000000000 0.00000000000000 13.52088171595139

PRIMCOORD
 96 1
Ni 4.399225631552578 8.323908949938362 1.974481435974789 0.15357867669182582 -0.845622460010492 0.05113307123038936
Ni 6.848197647378599 8.03004524136813 5.448496442515944 1.2290945260964832 -0.19869922317954813 2.0932407559427757
Ni 7.808783698332428 3.9984587216125016 4.376763210697861 0.3952639165145967 1.402269893973314 1.1584262130466438
Ni 5.3487814005814505 9.331119651541483 6.968919186858451 -0.05916776860940778 -1.1356896906810763 1.5581085703439101
Ni 7.347692047211479 6.497658243992951 3.7902136502956143 0.9948292328868671 0.1458622818841746 0.8741642762039268
Ni 2.4094052675139714 7.927446990900321 4.078425494140815 0.6005549339790496 -0.06449175192548248 -0.7617134799006624
Ni 3.8208748778575323 8.568866199119382 13.271962240566408 -1.8705035179774174 -0.08593758050408425 -1.0380584758891478
Ni 3.202680233088503 5.686692332114992 4.803293311787282 -0.9913034791217958 -0.8535373439821946 0.5443151376497142
Ni 0.273876172579583 7.591513011068572 2.75335144459322 -0.13589385781755306 1.5562437492210295 -0.6334018053057413
Ni 2.1843283924556522 3.562808776037053 8.3742528564528 -0.35018065102271306 1.4208330016874822 -0.46943484340105607
Ni 2.566083308927085 6.0565578240994755 13.433982670620395 0.16187665503455995 -0.21630536629708555 -1.6455862416416047
Ni 5.027563701408375 8.11025959476377 9.27485135658611 0.5998954460181797 1.3521045859728327 0.39462859692344293
Ni 4.745774179166382 2.330105485232712 6.7219193955219785 2.2184251977626244 0.6508156299068146 0.6457901516677652
Ni 1.0860208650049652 1.6326110581824231 6.444470852741072 -0.09794334671570874 0.9893628104556575 0.1848098667919656
Ni 5.131556903777916 6.04231268613609 10.104344262099326 1.4038665490364726 -0.8423119075800203 -1.223515489346809
Ni 7.390750794323892 8.343225800445131 8.917805564959467 -0.0324123548924345 0.6789316714167404 -0.45056474596943047
Ni 2.4652957245039087 6.357507149283143 8.78075754537411 -0.04444846012136216 0.9260982460690567 0.7518103618543375
Ni 4.554481006787765 3.743718332935225 9.12974494929293 0.3142605400873362 -0.3768028815959317 -1.956226411367534
Ni 2.71641478109192 0.32032529947964994 5.614708194939572 1.1052704549592707 -0.1956126138344244 0.8727020898361034
Ni 7.405014408471406 1.4676556862795604 13.163944001484385 0.7253321130581507 0.6726334971128544 0.3455981738583532
Ni 7.576685873305125 0.5392024909535152 3.920338643687872 1.8134520243800638 -0.8781080913430231 1.871870059307641
Ni 1.0057603211490023 8.115802450002441 12.332747591794481 -0.07556060814513438 -2.8762018323683045 -0.2136707568877159
Ni 2.8644829207009637 3.7376673826330085 3.4629145151165095 -0.5865146538358995 1.3000238061171931 -1.6890168020214136
Ni 5.341991402914079 2.0361771100180284 12.4491355422869 -2.2853458708445737 -2.4216696171106937 -2.116995435160212
P 8.003347155301862 3.814057165913966 0.05406408618879506 1.3214120419849822 0.5136925276678508 0.2713583414071714
Ni 0.3990125962570365 8.306920098631833 5.2366374295834435 -1.0110554649377426 0.8294412222649392 -0.002215776704396184
P 5.749261929667529 6.573632313131007 0.6926370382427997 0.4095137415653915 0.3946658779192816 1.2340523843223907
Ni 5.076821208296035 0.43519266001825807 4.790691630402163 0.5557622031443913 1.2072892572959337 -1.0625253506822605
P 3.7419908097191725 3.6397528448418774 12.749555524795273 0.06846359208903692 1.383012845515915 -0.37425877501783933
P 8.199056135687286 8.748648708785693 12.441523354425792 -0.2927388639654765 0.5463969598794074 -0.019767412434914342
P 7.1708287746375365 5.223318872254122 9.430733998272474 -1.6143583939755746 -1.0536193064418822 -0.5976110208593772
Ni 6.878932779677033 1.0907045776816426 10.806537182773596 1.473974618707468 0.07666001185690023 0.6941333188578432
Ni 4.590287851629583 7.503658755535628 5.408717218086412 -1.369826428732628 -0.2705404734915663 0.25288959317902254
Ni 5.864839699485894 3.797927457169432 0.03328854094504795 1.0771911802245513 1.508135580859893 1.8013004766191947
Ni 0.47890731166724704 8.799569072244953 10.045609396562746 -0.36418030773591475 0.057824367207635896 -0.13634380087077808
Ni 1.8020376666444808 3.3561064660949294 11.72434809604139 -0.5773234742549348 -1.3605678862488375 0.9420799662092936
Ni 6.913945148601307 2.4675036285073126 3.1677935022163046 -1.0219577136725433 0.02693204850415362 -2.5924507737237352
Ni 0.7390251937352411 0.4986315620340595 0.3940997788971607 0.18806874004889546 -0.12898504651286172 2.2798863903918996
Ni 3.0433785735290853 2.858672160792423 5.366464956411226 -2.2744824457675086 -0.638055759137985 2.2677214728945914
Ni 1.2458768100882505 1.9777923681706888 9.770716110046864 -1.4593995491067704 -0.9766412491239309 -0.7349446964472504
Ni 5.520231151205625 6.77445919652014 7.512958742816913 0.7559863476088979 -0.6892230260404194 -0.41944282775364533
Ni 3.033198196074059 9.119650486094102 9.343686228176757 -1.1566387821289177 0.5398303624054832 0.726522019601194
Ni 4.769054171168802 6.309709260941665 3.163548598912689 1.5815855704199278 -0.4145801003447054 0.13780058792196268
Ni 7.02094996898386 0.2269263410896228 1.770099734759256 2.43416672113644 -1.0914577174458944 0.7629062146571829
Ni 3.461919572601168 2.1175831772899834 10.440825136981292 1.462617541823436 1.5885208640871802 -0.5658725521055158
Ni 0.5864128366396931 4.13539496028388 2.8774596686239002 -0.3309004626368624 1.3914051833446683 -0.22203995478801758
Ni 8.651390075531136 7.288817686484723 7.199612821891957 -1.2722255529580027 0.9493428184192941 0.14547173131397526
Ni 8.215305939628658 0.7971106213996924 6.6068709683789075 -1.4415026142216916 -0.3987325917894875 0.045910132268553186
Ni 0.8866434382607461 4.271019389882106 6.041305734101064 0.7793149950325094 -0.5930825368614043 -0.9629154148974061
Ni 9.511077684957016 1.443128551848439 11.91787319146278 -1.1422776283112392 0.15023907079563156 -0.5591522026625467
Ni 3.0729866585956556 4.799678446362463 10.632672594883775 0.6752323681882821 0.5826261174147708 0.1534706903590518
Ni 5.640289395675247 5.315866078555807 5.372184259208328 -0.22276500587950024 0.46762581521677526 -0.8945366692126917
Ni 7.909903854069925 7.504194564875367 0.825215668887376 -0.9899729332358306 -0.20968451854645823 -0.8004381501643699
Ni 1.3223682123819165 8.6295697020749 7.803508747763626 -0.4084156234052063 0.6924003953271366 -1.0287680517261573
Ni 3.045115334837202 1.5979127843883398 7.775547814512149 -0.8068311981749071 -0.9925676905462002 0.7768696188158104
Ni 2.334715293172873 0.5213868304072188 11.576754794364462 -0.06585006572558981 -0.37168407231212763 0.05733277228319803
P 4.52428168382907 3.0035439205471666 2.481433747531301 1.4617649640151535 -1.170120104444804 -1.1699324139140304
Ni 6.245282806884174 4.199535033487374 7.254994260009144 -1.0295185567389367 0.295947086490129 2.019769169116186
P 6.087062004096297 8.202954610538486 3.4459044161982333 -0.8344954968593951 0.34983818008162976 -0.5993747976280194
Ni 5.156573657088453 2.9781761197381798 4.564568079512941 -0.44382871279717756 0.901475305314054 -0.7014913018848112
P 0.663837286231869 6.227120717885461 4.280941100759328 0.8034401702154873 -1.4152812186313175 1.2272759848305057
P 1.9916679824514965 7.893995859534938 0.867478092463833 -0.11401222725311332 -0.13338806067656384 0.78500253233559
P 8.345830942407307 1.095877909237736 8.953392543210152 0.27114262585193943 0.5118377338472991 -0.3284957098501117
Ni 1.514529765414592 6.556079938208548 6.538482296634972 1.3566333270811217 0.32032525822417734 -1.305455518655726
Ni 0.14337241741268264 2.2934672121050936 4.253223129329145 0.46511230476630216 -0.3815895043512977 0.6858134861382382
Ni 6.008621364377032 8.80416964209305 13.27235393566994 0.7855080112170988 -0.9392424967604986 0.5504274211950391
Ni 8.488467083882453 3.0906498906228883 7.5510741868656375 0.9486465636832179 -0.3482978321777034 -0.5703401009585661
Ni 3.6624785513204303 5.140767281566176 7.287024572815012 0.76027314790971 -0.641383023739005 -1.3509239354011702
Ni 4.048741656719316 4.7811653098653 1.2924598893232517 0.42380624692866364 -0.5535094025544725 -0.4110067811711502
Ni 1.7679306307425224 2.0079270244849328 2.198143959138041 -0.3121920875940817 -0.5708499507154492 0.3857181818076905
Ni 5.639347110284674 1.3027834572052774 8.996469766506692 -2.2440938061733227 -0.4977239201537364 -1.0093500522108618
Ni 8.632562843903782 2.2256226639837546 1.4400143910135121 -0.30079130195630777 0.3263020446329025 1.5127486541518722
Ni 7.353188711989827 5.61790549860308 11.919089848187667 -1.454487970737766 0.235769131448652 0.865397071534258
Ni 8.539803161484615 6.52305375907813 10.1552091970062 1.2108852021773082 1.9425519992042353 -0.15902761562153903
Ni 6.528605852408867 8.02388343396114 11.236987930135172 0.12179212830884832 -1.5360801297889608 -1.1009592291784263
Ni 0.296805117083554 5.369216060228021 8.069667418232566 -0.44352532262414585 -0.5385399257288337 0.16106675753875488
Ni 2.614204530490818 6.2545024227644985 2.37134617582684 -1.6557834938895806 0.23906091482604638 -0.0015573171847908663
Ni 3.046611905751644 1.77286377190494 -0.04115477633792921 -0.2256181590575792 -0.41683752892031434 0.7746561561042593
Ni 4.9260555458041715 5.815388192664879 12.43765628908761 -0.9326638151017163 0.23734907434126223 0.38077189354600877
Ni 7.9510318399408675 5.242608008484699 6.284113279258687 0.19111626862596762 1.3257510356799684 -0.5588141025968375
Ni 3.422223491000216 7.2646231233679215 11.039421169435585 -0.4020516288603915 1.0856606511481433 0.8675575695206866
Ni 9.781569020604184 4.3945881093362225 10.084171040458184 0.31433124542427154 0.03752885018339343 -0.058229830176170685
Ni 5.733030601910286 3.9993548165427537 11.120857722411353 -0.19605561490911397 -0.8310787578683623 -0.14201796843741993
Ni 3.6904145417233347 0.959708432207707 3.0753109625590715 -0.7156894477620642 0.899802031376689 0.26548208513205246
Ni 5.292604562737515 1.1983098740483846 1.2197200762169598 -2.819058036167461 2.9619095562497697 -0.008555602879494943
Ni 1.174567977442742 3.3002252471970563 0.45272193971055663 -0.2688072928505435 1.571044818789604 -0.5121701774860534
Ni 8.13414006275038 3.386573693723494 11.404133653666515 -0.12863074849723655 -0.6271414262183265 0.6779209707640389
Ni 7.3978733633055835 4.972975815399526 2.2824738825483952 -0.05813341380762246 -1.1064559906269398 -2.7896353600309696
P 0.6627933818285858 0.4798477494394083 3.3149553849938256 0.2285571870812451 -0.7881945569103265 0.24264426130193054
Ni 6.950712755017827 3.0623166622612126 9.261560513532983 0.831190086635246 0.48304549220595516 0.9136433081351556
P 3.462473858125035 8.060521707088757 7.475452089035237 0.2575749144698338 -0.46532596343900506 -0.8789084757571316
Ni 0.4293181572744728 6.095773524913076 1.0280712372938614 0.38321932664523684 -1.4842245785702504 0.5079214295120286
P 6.8187004194168015 2.6842754587996898 5.835436700063155 1.7044907292872966 -1.0792809728740442 0.6528604282509852
P 1.448070931102921 6.449888069927668 10.79815453803431 -0.2644078782312672 -0.26335526859703673 0.021357125519537414
P 4.437129523293026 0.34026479739156407 11.17602298917423 1.5573279834241438 -1.352388692872155 -0.014672771520826342
Ni 0.3369270747286774 5.328337502842818 12.410303222293972 0.620018699130616 -0.4057180219683851 -0.5519497713768365
