# total energy = -381171.86558984517 ev
CRYSTAL
PRIMVEC
9.23957457713963 0.00000000000000 0.00000000000000

0.00000000000000 9.23957457713963 0.00000000000000

0.00000000000000 0.00000000000000 13.52305134415283

PRIMCOORD
 96 1
Ni 6.370788108143283 0.6215045843914195 5.923840333107298 1.0986989723893401 -0.9182191004312961 0.854963792016076
Ni 8.640702042644524 8.525503030399134 2.6113550107218497 0.3123234709656234 0.9981706385552745 -0.6463020583071772
Ni 3.1320678510579856 8.93935280241415 0.33976409348700815 1.6992076265114864 0.7318637435290815 -2.4169174471376893
Ni 6.226244207953448 7.244999669148235 6.532796651655723 0.3649279845352167 0.7392700632954816 2.496357592842888
Ni 5.018982952097896 5.746562469123514 2.7717928266050214 -0.664962610831158 0.8926031996354047 -0.6821524923468834
Ni 6.1940535311277385 7.450450843056517 1.4236936638072777 1.1728956103074122 -1.5831269467651186 0.5124136609554272
Ni 4.567158529751748 5.04151827379075 12.092988591736848 -1.0031279825605497 0.2959092912736581 0.3921755073972601
Ni 5.24559275112985 2.7874964070679873 13.0271335753301 -0.038468845499159555 -0.6647402104077068 1.0042196729628317
Ni 1.7813806835016655 9.098837094230614 9.17756750675411 -1.566833608921734 0.8423227062132977 0.5682145699751311
Ni 2.541049242035804 7.389090830197869 6.366043586745464 0.39450621241296574 -0.2868268693564157 -0.832574111466966
Ni 7.541109545988163 8.399040977094463 8.586379813522425 -0.03181534473838391 0.744409441404576 -0.48076363815031403
Ni 7.605296868579494 3.1963383298179253 13.4500944915523 1.4648042650621096 1.193101395831326 2.665219935166662
Ni 0.48793914637274 8.085773210798353 7.305773892996908 -0.040896481104045694 -0.016110789518933542 0.5984561424684919
Ni 3.3285104400337007 7.714333084773577 9.86503895574508 0.7893852347843179 -1.2385531004062218 0.7180993427551374
Ni 2.0391740457617393 1.845697360133054 7.997086233020152 0.42512265174724206 0.8825859246087187 1.3058162444292545
Ni 7.7857642336081225 1.1384911044164736 12.925480702951004 0.31054092514390386 1.9594742288808704 -1.425067865704436
Ni 4.138710230358828 2.854196893866148 11.02945445770391 0.5057658166216064 0.8159131058715173 -1.5984430082968988
Ni 2.651369759056172 4.029655535016164 7.0638735224727425 1.2527993259125907 0.6376161004974051 -0.6584137539690467
Ni 1.5877284459614738 5.202231428987758 5.068439621398978 0.45186495283809275 0.5514345223033149 1.4398151992169397
Ni 4.97972400094048 3.438793998756909 8.314363974558043 -0.43249708983444224 -0.5184668091280427 -0.6431128619459182
Ni 3.5551849160856843 6.7406020690930495 1.1554568107274283 -0.06243769760993118 -0.10022751476419513 0.12199421701732541
Ni 6.512412302857538 4.983345914062087 6.658317192340261 -0.7726098150981919 -0.5608074788777825 1.7640001975068393
Ni 2.5465652678868227 2.7688324670025652 4.504379318282184 1.5044193083505704 0.005676738669803127 -0.02275554852896081
Ni 7.182706459286314 4.2410939530642455 9.155240999440206 0.0038276012762063116 -0.6937497102661794 -0.23941984082736184
P 4.459609885018324 8.74907300948974 5.963733119060995 -0.3909889432883266 -1.0501303194520173 -1.1141291909014812
Ni 2.416120958063242 2.4167584886892395 2.0855114347825805 -0.562081974714832 -0.1075091360272729 0.5491315852017511
P 8.898624758944655 6.913964201492813 12.011078841700224 0.5672655757983004 0.7463354547826953 0.7734220265868422
Ni 1.0942058248453999 0.8619478740500823 11.671501387613871 -0.6617893553094989 0.5231192202983893 -0.7872093101789217
P 2.044292769918296 3.8830512097597 9.094210839383704 -0.22560273243861148 0.15575100175279627 0.8508037471011154
P 4.971205113445272 3.412119347782219 5.7589665976075874 0.19588026567351427 -0.45437846328856585 0.5057475617891612
P 6.662767895275665 8.585763533917294 3.6091939236393573 1.460266525092756 2.009709470887339 -1.5694016267592261
Ni 8.142587353106412 8.522389293863467 0.12823697552574426 -0.7920440125634037 -5.017548699789688 0.9668522880579671
Ni 1.7842357119572176 6.064228272781576 8.461603058568217 0.41213498123832243 0.37315191510690576 -0.5544511976424515
Ni 2.7213780134500856 2.1861756727126647 13.196604922996421 -0.37000437061685953 -0.665240289972577 -0.40742806268095644
Ni 5.999384940415667 4.834764319907603 0.5195301748270398 -1.7425520549353926 0.6061398842659947 0.3941758256567405
Ni 6.269476176055483 1.263271555200399 8.620066377425655 -0.5097749377809995 0.5509400991653995 0.140590491962274
Ni 5.927482573292343 1.2756618243230382 11.312816493896184 0.4131742211361143 0.0003715244068058118 -0.34886501753508303
Ni 3.341279531702222 0.44884927942482794 4.141759289874465 -1.343809435843576 -1.0232180684422054 0.5979527204695121
Ni 4.179373596808294 6.376655237817315 7.672533250686463 -0.12862534918059784 -0.21232606993436337 0.3251327069151497
Ni 4.751451078536359 5.419139675015408 9.7722431392802 -0.641644762040824 -1.445806126693052 1.1172111722609146
Ni 1.7907126535343767 0.466391535171467 6.129296126802726 -0.8404812821291847 -0.2071249853493981 -0.5136552466720121
Ni 5.619804749441569 8.447825929344676 9.999957991397215 -0.7942538757305289 0.01006535465580202 0.3930517393546263
Ni 1.7554636776187398 7.771692361964736 12.00059839258329 -0.06699189263951688 0.42917599588100924 -0.413031782020979
Ni 2.60551375185583 4.614086327569709 3.0406441113751437 1.6871031299384684 1.4737182797222879 -1.0147421697607104
Ni 8.882797368186205 2.4027143357687235 1.988686239969914 -1.2557998033018114 -0.4605534817510262 -1.2046446205842352
Ni 2.526977370392419 5.7879188036447164 10.866947901137248 0.02737762068200446 -0.5086842758199821 -1.7057662535656108
Ni 4.566511759551461 8.648454045473677 2.3737011485412816 0.34044774000566524 1.0469169547210422 0.5436186258033219
Ni 9.17457388468421 4.775122867866861 12.323231391379556 0.06504119667104928 0.2681902280918349 0.34880356816952834
Ni 7.409029831515285 2.7443568347088507 6.618911331951638 -1.9208223208366275 -0.2629600900411471 0.8413811682356349
Ni 3.0766581240419764 6.988370493248677 3.8553269431456867 -0.06597553555986056 -0.19025109241219493 -0.7496616909424509
Ni 6.315877318138924 6.731057588851673 12.220862451993002 -1.8359808016101993 0.9603903344827073 2.3508478092021257
Ni 5.888260580432087 8.947927127355097 13.358448078129074 -1.4280971394490631 1.2591972590191347 -0.9079010063347396
Ni 5.38993338068531 7.3459420182644415 4.551493755500799 -1.6049299015728231 -0.7516630376431959 -1.0374236705186264
Ni 0.0215725580518555 4.247034999332595 7.423343780005063 0.8129002871871226 0.9637229984003661 1.079702119571863
Ni 0.4404976282242659 4.078606799603593 3.3783154412855088 -1.3083701211993595 -0.4699423791650939 1.0174436278522736
Ni 3.8526345311976353 1.4863795555765142 6.461786827408793 1.2656676972348269 3.087849388178405 -1.2139355589678575
P 9.172938480034913 6.163877081497209 6.060016874820279 0.2741158495476505 1.492029676436966 0.45833102017841065
Ni 0.3757263645378185 4.909336924000684 10.047194390996456 -0.6253781636703165 -0.1594916997421511 -1.0991900530931458
P 3.9624653507806435 1.3477305037835798 9.409189774838289 0.9501403746199251 0.7658547557625456 -0.2521360028424497
Ni 8.195437718044143 8.111523904344061 5.593999542407549 -0.3631927470116648 0.4411658212530337 -1.3872291975901077
P 7.1764974653635605 4.093390118467294 2.1396978421626183 0.26027765811297754 -0.45482300702515216 0.8903807380627892
P 1.0351464659849148 6.100696872503468 2.415676534539902 0.23791343148516447 0.24680559176847172 1.6186832466031735
P 4.423566305713763 8.027776402981196 11.988847502001505 0.22960491161946905 -1.239503637244949 0.18042279346786347
Ni 8.289644417503077 6.182032844976692 8.126123355679393 -0.9675372299401336 0.1868505513710782 -0.5667364427677078
Ni 6.357538558611692 4.913910513274142 4.403145922575847 -0.8066198534950496 -1.5067824092661082 -1.1577916647864381
Ni 0.7770260227949816 0.2645197723430577 0.4179909492117103 1.0863389081620904 2.566316795640845 0.7397117788185906
Ni 6.4398816446825045 1.4755415349345637 1.742945902370901 -0.5756980228363698 -0.08650090920672199 0.031193651993984984
Ni 6.706424883795031 4.041084888412662 11.715830093184108 -0.9238125353586735 1.5164096479432272 -2.4929040870766483
Ni 1.1267106471969621 8.161556199123398 4.41765575004057 -0.3387433557200489 -0.4037650120070724 -0.24865601471364918
Ni 0.9878121268982026 7.240416840300487 0.6837229537015915 -0.43426857991256823 -0.4165410807258181 0.03290652092003365
Ni 0.17144030094748106 7.43745076203075 9.703802840643268 1.1545374195151987 0.48053429574832723 1.7688436416420699
Ni 4.174070081165942 5.414039430007432 5.458255412771332 -0.5887335158640893 -0.3208865300442861 -0.4399121513515908
Ni 3.63794378299954 4.304865494812535 0.6747762739167655 -0.37053941718472316 -0.39116686362708764 0.6516116434455488
Ni 0.8419395759254922 4.30263875740869 1.1754632609371605 0.5668356873497334 0.020193187118423286 -2.075375959847213
Ni 8.35082887845022 4.387273257903377 5.290420393711736 0.8581146789402317 0.4013700294123346 -0.8468244507383931
Ni 7.8940335651361515 5.942293610878913 0.4619362124489192 1.7105472198940217 0.7952581486253272 0.4762690927140701
Ni 8.827018058198604 2.1799666787899104 8.394312162972938 -0.17981575601148386 -0.6768048548817247 0.7632527993633242
Ni 0.8933337839551482 1.220427649218536 3.4412110713911246 0.5335861812679843 -0.6181276527554903 1.19714496977308
Ni 5.254102399050769 1.6108828191317452 4.228184419866518 0.6064080503257169 1.526444663581726 -0.6259736311624704
Ni 7.721595390165371 8.72787742606891 11.201995191949308 -0.11984811720860003 -0.5414658411263772 0.16807507053578796
Ni 3.459342811977453 0.5599237457072445 11.423841066477435 -0.13975539765548833 0.20139579617510475 -0.5155745751819121
Ni 4.765375116991107 3.4722966951317713 2.602241094642378 0.8407196233922359 -1.3428704689690742 0.22897576267590244
Ni 0.9251585736389802 2.741825191353442 6.027034366477934 -1.022408942277349 -0.9221672864457666 -0.9026433574802261
Ni 8.637338837603032 2.899711036817767 10.881430933836532 0.029704726153284327 -1.4786841083679954 0.1089450971428511
Ni 2.1731293938154486 8.760049623746038 2.2349680166223096 -1.3261469855668062 -0.5014671892462524 2.19546267542918
Ni 8.114905588534132 2.1387489378830544 4.400833257131107 -0.22249015495155874 -0.5926927576221535 -0.41620889419737994
Ni 3.825183755982601 9.04464699102086 7.932432311927186 0.0897412705208906 -1.4320070160264307 1.4174049498425396
Ni 7.644343309528243 6.570750974923417 3.3801134624423064 0.3100182198712145 -0.9306868938810037 0.04628602755073319
P 6.0145563213995406 6.647809024500458 8.820829391339286 1.8849896274087343 0.9747345190195214 -1.6881266861069764
Ni 1.9827941634453001 3.5372139440919974 11.540706897924705 -0.9555530609950639 0.6299051050063926 -1.22290973744201
P 4.190645877441867 1.807445522573228 1.1102817601522454 1.7777967370702996 -1.2663652375224836 1.126899603193272
Ni 7.447521898006647 6.2117750346156 10.50785646615081 0.8646959317021753 -0.9714681895634237 -1.9311113614674613
P 8.762655183695765 1.0732597099303935 6.396551737092998 0.18479701127615913 -1.2622707557381359 -0.3527460977570441
P 0.5350166252941955 2.618985051170377 12.976057208656012 -0.6826569427871275 -0.3234059540320301 0.4449129470002918
P 8.88050595376233 0.7465298838940246 9.987598212869734 0.6347868585787262 -0.1356071798150697 -0.6713104074260567
Ni 2.254012627148472 5.638089866961108 13.021142635360585 -0.3365517473853688 -0.616647468665538 0.29820142974194447
