# total energy = -340867.817158523 ev
CRYSTAL
PRIMVEC
9.25941399377776 0.00000000000000 0.00000000000000
0.00000000000000 9.25941399377776 0.00000000000000
0.00000000000000 0.00000000000000 13.55208833579886
PRIMCOORD
 96 1
Ni 8.436826362857245 1.5011547492094075 11.466476133589445 2.9513112119086333 -2.201490883901131 -3.4120462135428458
Ni 3.3447041167695972 0.4285895792130675 10.682271344428397 2.3182567626399817 -0.774417557730892 0.36671721522515555
Ni 3.3117313427973127 5.298394216259111 0.3627153287578518 -0.22148639627739275 -0.2301111618319263 -1.7050879965516634
Ni 0.18772073381834006 3.1766920460795944 3.4734812716627004 -0.32373968322236507 1.1928288588962297 -0.011836587623611873
Ni 6.991413287142123 1.5576927323250405 4.842242138791818 2.4750408336429826 -1.60607969890655 -1.627897309002274
Ni 0.32931106608376765 5.911691515909283 0.2639108976356794 -1.1675752265357633 -0.6295145544361932 0.0022252897860929417
Ni 4.826821510380292 1.366837686799422 8.193741739644048 -0.9796173010331194 0.9158166616373906 0.29502740288933704
Ni 4.093559240332784 7.695230620028199 3.94971516665066 -1.1735478991794306 1.3828138421312315 -0.20215992803463892
Ni 8.504216379417281 8.827666236311366 5.303013738004344 0.07104266567012281 0.3871649415565461 0.5606745528443441
Ni 3.0829404772872944 8.090135376316871 7.494995787916249 -0.327774515413371 0.8356082703075997 0.3230585979949404
Ni 6.243724849768353 0.9367471565442578 1.3197581952908346 -0.9146586367735472 1.718835685155059 -0.7149294296675881
Ni 7.808186213874842 8.70607160901453 0.8562328462947204 1.3165955944329453 -1.0229203346961284 -0.22796943289857516
Ni 9.037725306891328 5.49835126594501 11.024800224285103 -0.9265458751294364 -0.3183375383701872 -0.493986307488175
Ni 6.331541134057358 4.437602034411469 2.6647066269174178 2.2326968771902904 -2.0214280448758477 1.701015883364819
Ni 7.241426730002458 4.773413209264836 12.547729411931249 -1.736448513140816 1.0875522117439012 0.46989558508755846
Ni 0.4387517862994427 0.34015291417254834 13.135524432987076 0.5745207146988169 -0.6494087222569589 0.34696882895363473
Ni 6.0170451306963235 8.338306195751066 2.6969877226488346 1.1795102874104524 -1.1404110074161455 1.0203710859117137
Ni 3.538031425887072 6.529220367849635 11.505859200013573 -1.2130495568184787 0.7099270913569903 0.03577844315119
Ni 2.771120444630554 2.3491781988728935 9.27243386401766 0.7767338645688946 -0.5222764126821199 1.334882051446959
Ni 2.7454996455344265 1.5959526318065007 4.723146627388021 -0.6076812606111857 0.26887337020178853 -1.1260781357332412
Ni 8.190683355133224 8.186201798659598 10.562998978213347 0.6156079716574302 -0.1737618365079201 -0.1707582737949059
Ni 7.579673130790875 3.9501216549341147 5.165744774346853 0.12981705549585384 0.06685459573070422 0.23588843063533568
Ni 5.23178199049202 1.4002641720675904 12.506734281494605 -1.5425803928013242 1.1289500579643976 -0.5625946526851924
Ni 2.9441048207468747 6.108648515393827 6.278642100722996 0.4740880259023513 -0.3860776220296383 -2.4302578730003375
P 1.9879591914500374 2.299890337077198 2.582472843450623 0.14513697368237585 0.04294436477200991 -0.09866197004928814
P 3.1320709290415603 0.804071788272235 13.462509534223374 0.48485374905928746 1.1896813144061833 -1.1614115209272127
P 7.643396419327034 7.04596049620439 12.780270340192958 1.0509366174033963 -0.30357606379029656 -0.14601654807385175
P 5.124502417551023 7.407401729568085 7.1343073449271515 -1.2301551061505136 1.2508476015028587 -1.9536799907965965
P 8.195507509932314 8.617829391672245 8.43143182814333 -0.08141115338864044 -0.5437929465976571 -0.3679785984360824
P 7.736703536237652 0.7050442052678016 3.041305521329311 -0.22403075996580127 -1.0741205117190273 -0.9302652329625527
P 5.580056336860886 4.628077443954818 0.6219909636441557 0.006931694122826772 -0.2894725345093789 -2.177282662086044
P 0.25521260393459433 5.171364312825871 7.1174218771889155 0.29764324324562935 0.16215304862439817 0.20809351991025452
Ni 0.6236039535980934 7.362002821737108 6.922108423725175 0.18173097075632574 -0.03713212896560702 0.23194615815813602
Ni 7.043756755624382 6.388616163196689 1.3945501875637158 1.1795413977587041 -0.2848275795381998 -0.5700446812053344
Ni 1.957273492785575 4.4819638878518555 10.201877194639609 -0.35224421841996106 -0.9837632048806928 0.4173491784494103
Ni 3.4041310371161635 3.9991687719605653 3.0971536780869164 0.8454319412662408 -0.8413040351407962 1.0217530538609048
Ni 4.768802020992386 5.6257978430173265 4.422697155370979 0.10666761396258403 -0.9476793146739422 -0.774669525840698
Ni 4.842136581469918 5.901358009660176 2.1049648530685086 -2.3449381285859103 3.2754234479790685 -0.4348524774404962
Ni 4.287581005515386 6.947144027843755 9.296231484457472 -0.2552534654255088 1.815265937660351 0.8801960842203035
Ni 6.809539873392162 0.4661726155163827 7.15760310511723 0.2520874089927013 0.10834757276816824 -0.48723947568264475
Ni 0.4760190765784797 0.9801923279786745 3.761355533252402 -0.6033700348303416 -1.1042016473751244 0.399563315220899
Ni 2.548348198351646 5.7004379808973 8.423354841135179 -0.6905432875137397 0.3185499114913095 0.2683493793775185
Ni 1.0696475285813818 7.570848909056647 4.611029936468052 1.8394443346787674 -0.09874244557823639 -0.5153475467727705
Ni 7.703452979839316 1.5193680169441686 9.108819089132048 1.154213717627193 -0.8129100573791355 -0.36258930909971104
Ni 2.570422641808519 1.4402370631763663 7.1616689138932 1.4804908225594309 0.7854511898372344 0.10639070615211353
Ni 6.178436720232105 6.308605565079725 8.42796232564195 2.5814058287634833 -1.805522228010026 -0.1470244205130758
Ni 4.297127461557348 0.7885956033754994 2.896041053508646 1.4096093650575208 1.2232606930235255 0.2639049704529197
Ni 8.739942546164379 2.0165337436765105 1.3632996646329494 -1.0234152720546763 -0.5253956750373919 -0.09259005282359538
Ni 8.943344097933313 3.781054011025117 9.110039479923833 -0.8043855648478921 0.7375008872102009 -0.6779803632470647
Ni 3.6034491872221435 3.6350978649635834 5.757116707108799 0.20608471701034187 0.3140530520622204 0.07858114013901304
Ni 1.578841234361743 2.2864086299995106 0.3444548380106621 1.3985492505886172 0.28190423524381775 1.0574206824658434
Ni 4.500556791568886 4.501417917089645 11.989167287451638 0.7999527258875191 -1.7190138626041362 2.5487389346580813
Ni 6.252150916691908 8.23981380688749 5.422136101709325 -0.7282307747621846 -1.4378151380677753 -0.9601275677396237
Ni 1.608462100393009 3.541938898680193 7.787341420623956 0.05648585090187046 0.8746610133346872 -0.8153070968564023
Ni 0.9675069305223337 7.190777734319112 11.927193102258181 -0.45983537263807905 1.0522985307479296 -1.2919083760989105
Ni 5.562481968706043 5.172623593157303 6.355739687132103 0.27130923333679086 -0.12262876527753075 1.6761764557236358
P 2.283454876869165 7.691573151418523 9.651689284364023 -0.7050407097989664 0.5061131726586962 0.5234892020432984
P 4.723199406048971 2.5332923908596676 10.489885717735236 -1.6506279178305703 -1.8332140374983397 0.3007167399646305
P 8.016948966466565 2.569357809175323 7.200346412955158 -0.7939288882909423 -0.1325254555659524 -0.9665458125611418
P 8.58989373902569 4.189181210793828 1.5278755667126984 0.32621539845636716 0.6307080605236621 0.5107254746197268
P 2.4451705459020063 5.83965327341999 4.057020665951421 -0.18698604850767797 -0.32547594918718137 0.2691433360337236
P 0.6232604293312101 2.089710894112614 9.94215062628168 1.4808736598201464 -0.24855548458004292 -0.37612693857482965
P 1.7013895813213569 9.212089335723704 5.970535093161141 -0.4393058852261595 -0.6293656875631548 -0.45443888421285605
P 7.212287353509681 4.751477657020989 9.997443218187184 0.9181070003334639 -0.2769756875939488 -1.3583695930459379
Ni 0.023278167303095516 5.588667592068475 3.5659068923413155 -0.10849566831025831 -1.6635268852804255 0.31009535296605306
Ni 5.945821716656781 9.126023080718822 9.514284207317768 1.147213632160276 -0.4645844572872902 -0.915427653729088
Ni 1.0509064742371235 9.258219737276615 8.404978607710468 -0.12254520442478893 0.5982406840235762 0.24168009761644826
Ni 4.499556774835102 2.8003431558511465 0.8716488449991451 -0.7399197810643386 -0.398517647565204 0.2350458801293823
Ni 4.264673214780359 0.24843008303184272 5.883544748618928 0.8325211467418436 -0.49940259340773996 0.11198542663107164
Ni 6.270929008692972 3.459687522326415 8.295884189585937 1.0844720301566806 0.14057377979172564 -0.20502413695631141
Ni 5.40124778921169 6.723982886168375 13.001033293590098 -0.1300505116628986 0.4285990403316167 1.026715797182819
Ni 2.481847085554975 6.743409137163559 2.002808514005318 0.061703904767700185 1.4566317565536464 1.0344705014275732
Ni 2.2207686427235975 0.06530850024749135 2.6645306980475847 -0.7833004620428187 -1.4333398759052411 -1.175250226582518
Ni 4.788561610898832 4.5844193059937615 9.872642055752296 -0.011106651436122808 0.6760191257556357 -2.0695729800121905
Ni 6.771122563869273 8.992631959729009 12.142874489141422 0.9121695518031065 -0.3228976469370439 1.111860963692595
Ni 0.5004861526650746 1.8916520243380661 6.098548346382604 -0.9367449271496254 0.19427024087391703 -0.2711822208406233
Ni 2.776000155914854 2.674766980447574 11.812976376197264 0.1868587789011943 -0.07220840384344983 0.20789143120177744
Ni 1.1148797669567285 0.14754413559712629 10.768476490646304 -0.5778479792998371 -0.620212560308977 0.47319431044348825
Ni 5.607241976957103 2.4365037342092073 6.090891736779211 -1.7474970576454936 1.391812703195732 2.023414736288573
Ni 1.6605740835202252 4.596299134414553 1.7665962280126295 -1.9155356185163912 -1.7462994377929668 0.625709064647174
Ni 8.519049960968418 6.466061903579781 8.72250336545688 0.5035760080591393 -0.5786295946608679 0.42908780704257715
Ni 6.39387551046326 6.395690355646795 10.763651409905792 -0.38172448726726516 1.8686952611240848 1.466192403658888
Ni 6.815243672540414 2.875057369044734 10.745965928780532 -1.4813236028733714 0.42913434400979644 1.4323446018715076
Ni 1.354541184739553 4.071836654615574 5.50171428518307 -0.8392458670601869 1.032518777017841 -1.3994650775346673
Ni 9.106809796250277 3.4984752084173727 12.615300913009639 1.1931628451968805 -0.1675780762947114 0.8490839361965312
Ni 8.764674441497142 7.604099465454982 2.857308923902898 -1.2673887936909916 2.122755220462125 0.10580295196944359
Ni 7.7336849672078944 6.209853912618503 6.30619348768018 0.4036066320523372 0.45076632045727527 -0.5833383129904469
Ni 2.436198173540551 7.979587230162671 13.362847681346123 1.9913934461869705 0.7854817859648536 0.9267016839810105
P 0.7470791679192983 7.888752376843909 1.1613814710191295 -0.2522802417297978 1.0391612220350233 -0.0962153082810085
P 1.6331754768973694 5.033649045403858 12.19537536766511 0.9906031106206616 -0.3055015629477835 1.1479463965612424
P 5.341811609450923 2.8468068963153206 3.863633170641635 -0.6857373814846641 -0.4925917411334935 0.37794882227491683
P 5.160160421641803 8.17651645140461 11.126048214815105 -3.276515909712299 -0.31875585685452845 0.8819503479072488
P 7.387012499495924 1.7312234138792622 13.029330063390518 -1.9455085107293977 0.7443701035262084 4.246827874184092
P 4.284479101757814 4.071957027000197 7.783344131513078 -1.7311816083149216 -0.300149811717567 -0.5608000226786148
P 7.002672734811401 6.182594197208672 4.168120673192042 0.47396589850219023 0.19141940168868324 -0.25468936539192266
P 4.4816953648400055 8.175284949315783 1.1930958906014015 -0.7278134847191079 -0.37639716151708075 0.6160332321203068
