# total energy = -381171.10761389043 ev
CRYSTAL
PRIMVEC
9.16068989070683 0.00000000000000 0.00000000000000

0.00000000000000 9.16068989070683 0.00000000000000

0.00000000000000 0.00000000000000 13.40759563176862

PRIMCOORD
 96 1
Ni 1.625903358229108 6.189218557492187 7.622244507138254 -1.3113490013220255 0.22783059332786568 0.1522555870050281
Ni 0.8453283052279545 0.5853314382315723 2.8894043298408385 0.20853652098494407 0.5552204717083082 0.2904935195747255
Ni 8.655761779887415 2.8076781514722526 11.805843615979997 -0.8631319296491652 1.370244232996337 -0.5263205008445064
Ni 0.09674879364271792 8.581688441813975 0.8057880196570435 0.5640792076505189 -0.7453782330757485 -2.1568750449639693
Ni 0.5584219118166912 8.156320969627222 5.008246240679321 -1.5006804101334283 -0.2049418616551503 1.1789469587078147
Ni 3.2896037227519344 4.6172716624404915 6.916428927879808 -0.15778705834621856 -0.780487932294688 4.047362205152165
Ni 5.473878609003595 4.588607863920606 6.172736644326006 0.12661217540531097 0.713183650621075 -1.4081489784619103
Ni 0.6398980033525531 5.3148765153923305 2.946627495016395 2.0267036914524903 -1.3513239990530663 -0.061088896891520604
Ni 0.018049307198379664 1.8136516965688485 0.5156744687316185 0.07456713388361351 -1.381557601126627 1.3188149706817673
Ni 8.127968634562011 1.4669287466873728 4.347989520218875 -0.05210571955630381 -0.7485509743767753 0.5056316050365873
Ni 2.5579577463421557 9.283626301061725 13.314439760419912 0.5183711640904427 0.41892629312854307 -0.9374555800634049
Ni 5.569873477872204 3.6896418875217876 1.1330051126550449 -0.6929197581657163 0.018438923431477922 -0.5585726760099928
Ni 7.3561438724992385 6.199899921849549 -0.10359091288672634 0.7525955767597942 -0.049710736961566006 1.4243009056314244
Ni 2.154924035993523 8.346936603887935 8.784213888940046 -0.6353314182282864 0.0580681077873258 2.154738715347257
Ni 2.389602588400816 8.400838102926288 6.561985348598345 1.4341096641917301 -0.4952489762506826 -0.7675959068233683
Ni 8.274695403783168 5.847717200821428 4.439858414382034 0.36735227770599316 0.17666872574206993 2.2954791026238337
Ni 6.281842292498437 4.680700278915943 8.352918534355652 0.37454236769652915 0.0213380993561439 0.7562606843162072
Ni 4.7641358420093 8.233591388455995 5.412297703669551 -1.0591435786942212 -0.6547275633667111 0.2394514653962457
Ni 3.6579825434231226 3.470041830596671 5.058336892742833 -0.14872469103363417 -1.3511864450339375 -0.8353313624971291
Ni 0.9982861756805683 8.585334396371636 11.585234967103126 0.5872057663656531 1.5378709031407967 -0.6680679892293591
Ni 3.4425597610665797 3.3483970301666437 11.357172264900711 -0.22388394997529187 -0.0600411723532966 1.5293541239190371
Ni 8.01706932331825 3.7027416739977976 0.6548601580737191 -0.3636974545622252 1.666717367193265 -0.5200174414446141
Ni 5.525306721784239 2.6337166513467745 7.410780058863029 1.3603424005015927 -0.5487045249666614 -0.06590971531893165
Ni 7.397641797489676 4.849156204445559 2.526125265205451 -0.3490593929340763 2.1107371129553263 -0.39555136584802847
P 8.76653284147337 6.9429509571143155 6.5368200175296405 0.2776508592841025 -0.83123430960962 0.5775371329276375
Ni 6.086838687802754 6.327719027234004 11.362963653019687 -0.169742688046198 1.5911580445997113 0.07250562336889448
P 4.268212736648957 6.964845005839955 7.663245006670198 0.9986326657933576 1.028615585308693 -1.7945143069352965
Ni 6.914488693770984 2.716016288899555 2.8065852811739394 -1.6842036969034864 -1.1563629027597118 0.7215232808350218
P 3.012859282583915 5.076387116010197 3.6287251322013874 -1.23030345880292 -0.10890704481606404 -0.5207214094901742
P 1.8734526798663274 4.537372125626672 11.940456288952292 -0.61470808555098 0.3018415975976931 0.1820652141672929
P 2.994556224276874 7.5140466833293 11.171691197297204 0.17889684374164028 1.295174448444692 -0.7232135240532512
Ni 6.32370664508261 7.05663511807046 9.121750499046597 -0.5071071611408493 0.33055696325451456 -0.02839834863703496
Ni 4.591520963290796 2.2183068490197573 2.8565421871657395 0.4844837673143785 2.908771024553577 -0.2998451359929546
Ni 0.19833901186765363 3.4566855448050466 8.941163071957414 -0.5092383485512391 -0.27547159224459655 -0.20350872875304954
Ni 6.154380454017874 6.596970023110152 4.4814891693752 -0.11045973401516461 0.7417563200524451 -1.0093654788298292
Ni 5.30264699445144 0.24537823814434231 7.520830174158312 1.5403787571643148 -0.8512722020971016 -0.5993760831795999
Ni 3.8830790142542577 5.350218456808028 12.709046411431371 0.7962410813638867 -0.7153770587279679 -2.143801242499147
Ni 8.722607333674441 7.9486389701883216 9.194754784615316 -0.2634619693782302 1.8698118912270312 -1.089707053303375
Ni 3.3731400534335694 5.333958232336056 1.457740574774479 0.2213658115391284 0.15025166920112187 2.1108078182922614
Ni 1.6231276692065688 2.8649324629932766 6.967954143972793 -0.5570408127464987 0.9272002208839838 0.6655403377114989
Ni 3.5860161640136567 1.5985312169771368 6.765646721264994 -1.1942234252509112 -0.6304450366702626 -0.22825765356295527
Ni 2.024026938821698 6.909798420571182 12.932148600083606 -1.5005608538364288 -1.4031114160380027 0.4246043173499268
Ni 8.196628004938022 2.3857734200462906 6.914900008744952 -0.28759820030480143 -1.0337611340653743 0.108609053959671
Ni 4.019014490839933 2.929964200191316 9.215522984559207 -1.3830367567753148 -0.13497211733423206 -3.589618939156425
Ni 3.5879765516401365 6.121209596095054 5.385616278431769 1.48050882028156 1.2037365069476689 -0.025435666464285227
Ni 6.321709614696757 4.177384496852006 12.079573273120566 0.21505683860196512 -1.1057985595485988 -0.1314011121535221
Ni 2.454414469042615 7.621941288304439 4.140426609747939 -0.895583108199335 0.4945030992235936 0.043745263406750466
Ni 2.305269277702809 7.762292217394616 1.7547054056337557 -0.9578793951353956 -0.15149685446213262 0.9763594562174539
Ni 4.88753033419941 8.530113757995839 11.601618860887983 -2.470490752378455 -0.7350369990507406 2.3624871932132665
Ni 9.129726711693214 7.535940732054939 2.9542162104826373 -0.9275871719097574 0.5745029740870041 -0.7274453027464117
Ni 6.739611124661169 7.384258029628523 2.066137713962657 -0.7403283293566669 -1.2572090249445123 -0.24853722974759773
Ni 6.47196324950761 6.531526054869161 6.7411510366238385 0.4791230172230974 1.3403363896933111 1.0237202048896046
Ni 8.011398856305206 -0.018567802243514054 6.2948394792482025 -1.6032792533432774 -0.7796335547141928 0.37270531448779043
Ni 3.1573783255528216 0.8680330750047317 10.773767319743198 -2.1845475711785727 -0.11548186982010433 0.35618186291147047
Ni 5.16046392739259 4.714961258930122 3.491552046417874 0.06748477311553538 -0.7321079983294038 -0.1617046482330699
Ni 0.5534229233691677 0.6299449138377382 7.802805368226892 0.48545615852997687 0.6217783621342001 -0.4284242053166492
P 0.3307631960363675 6.401325170125432 1.10951710389666 -0.22050989129673634 -0.6025357118545043 -0.7662936430721771
Ni 6.579299052402304 8.313243586644044 13.148989457227902 1.3891423554524205 1.30146850898352 -0.22316969751708662
P 2.385480277971303 1.4869082112357492 8.795422909032387 -0.6253167143047618 -0.12317795291278141 -0.760017066034846
Ni 1.0332891715720613 6.401380134264492 10.262293943373745 1.074215128315363 0.10291123224394536 0.8499488552999876
P 5.573556075189237 5.780954093242992 0.8004281000296913 -1.2456331471814548 0.4373143087174275 1.082743220391032
P 8.2941160662511 0.7125770844318327 12.154159609825236 -0.0350590484866622 -1.7329173600591061 -0.14308497624935357
P 6.68253086624717 3.1245555738440496 5.334091062338786 1.253078033495274 -1.0315630979727912 -0.5278114835677361
Ni 8.318804125378964 7.397046352649858 11.407168561858837 -1.9028454246432323 -0.2322644607295032 0.4404574823320995
Ni 4.896214668170918 0.3746612217657667 0.8994230948220021 -0.6302061811865791 1.6395757737814667 -1.2972714401830368
Ni -0.03612701253527375 5.255286227961249 12.500384218179232 1.0822647380927168 -0.5806975329334902 -1.3068243739787946
Ni 1.4288385983186662 1.0530762616337273 5.4153280598697355 -0.1487606864778922 1.0473332163228544 -0.34173534846883724
Ni 5.501040054389168 0.30984384471006193 2.9781219466978794 0.24298287558827186 -2.0418402899836123 1.8356882100704448
Ni 2.3980121016770246 2.807348366637892 3.112036575104108 -2.11596288013064 0.6522991564308767 0.44011526850133237
Ni 3.225497215228075 2.7629281815874207 0.9587312330059079 0.3458699394625011 -0.058757163434550425 -1.4773407069662234
Ni 4.160373095812879 7.459522257381599 0.34794956625150225 1.456329651932195 -0.6795536212714555 -0.025662180652794516
Ni 4.781962544444485 4.914755904413887 10.135565876149634 1.6686315534968426 -1.9180375590026388 0.8699813484708308
Ni 2.1685643031702915 4.420628294262844 9.610979888338393 -0.17360165678097197 -0.8343682272529115 -0.12390146134236726
Ni 5.595312713567226 1.142090684841693 5.327521931652109 0.7888401609141253 1.7104286920382863 -0.6732017109114987
Ni 0.47411699925719863 3.2368839527033764 4.833331112741148 -0.6197135091853714 -0.8759257389797238 -0.016250657530907497
Ni 4.432005871048302 8.713849714184185 9.407520050848298 0.09885763099986201 -1.0521542918605815 -0.6167968497592087
Ni 5.11231534157587 2.033453288670519 10.767841269483526 3.392003693069674 -1.6132939572668021 1.762757840459306
Ni 4.235408306319872 7.1401531273724075 3.0182906555920455 1.952424778233257 -0.26049003123409975 -0.8277286104492069
Ni 7.079710895785893 2.680042259884665 9.57929764251512 -0.7136508200654806 -0.8736402853796568 -0.5159826092536082
Ni 6.5984998583139935 -0.010473416697917815 10.544725339796525 3.176179637284381 0.9292805004517803 -1.3968746910996717
Ni 3.407492640346183 0.7031818809284788 3.9470087204641406 -1.2462502119401635 -1.1902500424254598 1.30148444982312
Ni 3.4270507131617647 6.293906921022148 9.420109586900034 -1.2718077486942936 1.971066304593844 -0.304392903264637
Ni -0.08304623377501438 2.982977112314862 2.5813907909614806 1.6923522941525502 -0.27582589026022175 0.34415629920550406
Ni 1.400330531526118 4.221364968789995 0.9240030578097157 -1.1269690229786269 -0.08976132512554863 -1.1732792188990762
Ni -0.0055532101830471255 1.203284092995363 10.049944572459651 -0.11841524141681543 -0.5150541839020678 0.16488124618883862
Ni 6.751721556634097 1.9382920425776562 13.297143461926657 -0.5121850898843889 -1.3861413638425675 -0.4109671861824664
Ni 1.4213451540267945 5.076515365668004 5.4337767731452855 0.31563119518261773 1.4959236121747332 -0.08912677686534329
Ni 7.534246004433918 0.40590741875249625 1.8913828980967433 0.30356577937765145 1.7324483908424873 -0.0501028301936621
P 4.620441261126295 2.1586157940003985 12.866759595981677 0.6137971437009365 -0.17372969771840402 -0.1493175874226267
Ni 8.432424161506207 5.754809484430032 8.86213929709262 -0.1160400563164195 -0.8086078304593558 -0.20948911470620052
P 7.2911762601301024 0.6944599881286121 8.419098105991065 0.793026431081331 0.09004748890739975 0.09557998868985475
Ni 1.5703254529494197 2.0913488484805782 12.397896252349646 1.5839970080748977 0.7038896269136588 -0.9504766749134211
P 7.169375727972738 8.59588751107119 3.874138180967134 1.0399292105492994 -0.6145054826218708 1.4229891287985363
P 7.932790976759302 4.410560696124987 10.498844940785023 -0.060241975510193016 1.1808462326130567 0.061381745541591065
P 2.6927481366974106 0.8724833381306378 1.828769583017352 0.2609219765651958 -0.2181264786662243 1.593384619937385
Ni 8.290103684099707 4.632780710345306 6.720972785105861 -0.11197359955652973 0.9226853637327659 -0.9257205510146639
