# total energy = -340868.70275654836 ev
CRYSTAL
PRIMVEC
9.22208781210394 0.00000000000000 0.00000000000000
0.00000000000000 9.22208781210394 0.00000000000000
0.00000000000000 0.00000000000000 13.49745769593843
PRIMCOORD
 96 1
Ni 4.523028210150677 7.416421315387303 5.302313981182072 1.2041756513676165 -0.9936454969914111 -0.3676988624121345
Ni 2.859723263303282 3.7204852563278017 10.628437548204602 1.2797360024024347 0.8428736936207613 -1.9628233478587613
Ni 7.399314342835577 1.510227514294239 6.335072519530566 -0.7729597422384429 0.7732279082981651 -0.5022714303151027
Ni 4.31010865097318 7.700157285467608 1.8761737845429343 0.08642968964915437 -0.9944458814055195 0.4427912726715987
Ni 4.511242382160863 5.388272137762873 1.105621330496168 2.0957452675321844 0.8184993785414548 -0.16197204296184362
Ni 2.3672268955661417 8.310401268051347 5.855210411845105 0.5765364595772652 2.2308773074830484 0.6752681065222241
Ni 7.953257480444497 2.339735852344203 9.361998687008287 -0.3205903389601059 3.0890711764006475 0.3539519451396872
Ni 8.432510930346448 5.349751477736695 12.767852135281231 -0.37239575366717154 2.1845043766454637 -0.5486700721843003
Ni 2.7688027013693355 1.433223082592398 4.662183979219153 1.0325113208186736 -1.5907379263431571 -0.7108436896339887
Ni 4.2869519889368535 2.8937251003912685 0.5380912911834961 0.8657061181342445 -0.09234579802327322 0.12349059905719377
Ni 1.2722699872041066 1.049077022407944 6.351727609788473 -1.5132690454317164 0.11516048192494362 0.6127738446427446
Ni 2.141553189197788 6.344897731690463 4.98172286010138 -1.4573287826206707 -2.1814229095066624 -0.3075085660754833
Ni 5.456008371397607 0.17290953199924178 3.0981114618856864 -0.5081160620213379 0.33080018961357227 -0.32746495459275216
Ni 2.9072077925048125 2.9002082279944297 2.532568782457056 -1.6061028388350018 1.3840214892860874 0.06435471212698594
Ni 4.260124936024201 3.462552687433335 8.339080116159897 1.0608561905099536 -1.0152067681019548 1.180104983571658
Ni 2.0700912321609537 6.500068578135395 1.9754882906367628 -0.8097753684048958 0.8593817185781134 -0.3059322227272989
Ni 8.43666086977948 0.9654880201390234 11.164071153034978 -1.2395877123183232 -2.595656939365859 0.49495715604187657
Ni 4.440084754015785 3.1945495988480412 4.607937815368065 0.5367319259858175 -1.5380099998218222 0.3920922036548344
Ni 6.979607912753841 2.186639975615788 3.6839150678351484 0.1078004420154466 -0.02041661598313903 0.32184452308218114
Ni 1.943693299118387 6.020141915836532 12.848108275081046 -0.40214187458135264 0.3403382110109945 -0.5406903964129334
Ni 0.8382748545500562 4.734896451338474 3.398565232419775 1.1494715749565172 -1.3330431984660074 0.0937935862133933
Ni 1.4687188978762766 5.255206635364566 7.021674465473356 -1.0461880469748177 -1.1471845786945534 -0.9316284318586665
Ni 1.470351207386603 0.4715935839173326 11.663612273511882 1.0429106617751265 -0.36827478952026255 0.8984228916409754
Ni 2.875105705468392 8.394036380758413 13.389193978117666 -2.1264054156202024 -1.716757719580108 0.5060262693718447
P 8.803082077541067 1.281169301766056 4.780272811308023 0.010974496733632712 -1.7281333084069015 -2.1060091113520376
P 0.9725521392628091 8.522407840553578 7.744355062638176 2.128230127533767 -0.10181414252502467 -1.0404673424409565
P 9.171873361823296 5.711395644106479 5.2695967809008 0.04183236265475376 0.05447859066385456 1.3918548692875772
P 2.301694740874731 3.459297290500311 4.586355363690004 -1.3458154105300113 1.6830698404093596 0.11588707567832299
P 7.9698572381766315 3.660495576301397 2.2093041781727276 0.8813499953190886 -0.9097102916293366 -0.26027405856855174
P 8.825085978623772 2.9370320238968786 11.303864168358615 -0.3948692521793393 1.2894586290068375 1.5752411162591389
P 0.23035760467510388 2.6673412932754847 7.470815954849216 0.388162529583125 0.7684101751945476 1.0225092153006388
P 6.404002091304488 4.195948428214247 8.38900757637434 -0.7912734529459663 -0.5736696795524314 1.011609794779316
Ni 7.220968390179062 8.611022880580283 7.1943875670061015 -2.021854590890305 -1.2656347871143623 1.5883200609302839
Ni 8.717464215993775 0.7026428451646087 8.125577721044248 0.3661621140526339 0.21524787156684866 0.8532799765557497
Ni 8.35858667591268 4.69988940669893 7.48213975624882 -0.4519883657898344 -1.5224872215958747 -0.9142948256762253
Ni 6.883864198989947 5.643207528177927 1.3400735420785315 2.179771489946168 -0.491648660493934 1.0338495800141225
Ni 2.747628788173236 7.146998025307149 7.704375468349096 0.3478450609110009 -0.6660810407063175 1.1211012513439402
Ni 8.94311025609924 8.059348376528087 5.5724796493163575 0.6151842538564503 -0.32260248429412824 1.9108315281725028
Ni 2.5780991512900098 -0.43599448125200957 9.528125373556426 -0.3358187258740862 3.5937697281000043 -0.7122775938670378
Ni 3.5283799489288734 5.355884166009956 3.3970804763115123 0.6801154073121964 -0.6157139011076751 0.19540384025772797
Ni 4.782334870101859 0.15103381793457865 0.026548545866258686 2.9083856161897006 1.9189256180345469 1.8911654172021428
Ni 6.8285408953037985 8.90905308648548 4.88817123656689 -0.7819935703059372 0.39318080873332284 -0.029795486094877716
Ni 6.067571112512288 6.588489954321892 8.150871140784204 1.6034090940529224 -0.852470593280577 -0.12153193266892619
Ni 5.7828852674062 3.567481600475676 10.691876289004238 0.8259337233323131 -0.8425823876325876 -0.021321901406227795
Ni -0.2554739603325846 6.884767963577586 3.352066544385781 0.22721507123105383 1.186389273918473 -0.5303321931070609
Ni 7.705672093869727 4.98597700912462 3.8053247736792093 -1.205952026541749 0.1149581361061504 1.247563274324632
Ni 7.119728312188306 6.7302795516171985 5.789073288205234 -1.0530194680743543 -2.643732711827163 -0.8143784143945458
Ni 0.9692414098040114 -0.22740377000754705 4.120004536589736 1.6446274772727612 1.1695032967964119 -3.313013233307385
Ni 8.120223376966873 -0.13353490665862136 2.7739430930137194 -1.07166973618569 0.7696659019785196 0.14829531680569943
Ni 5.9129812575879805 7.145882152704045 0.04143391750816787 -0.5417219230012411 2.2650308134363057 0.061229793344759066
Ni 8.799817458520414 7.766454873432223 12.736862232012864 0.03286152661471115 0.7875430393692566 0.20527096285979485
Ni 6.27627617764335 5.9824327995217015 11.657200155983466 -0.4726111842465086 -1.516439472739898 -0.2595819175975336
Ni 5.6908027224310045 4.291765918679173 2.8810327411875267 -0.45826468571684953 -1.0057741619341454 -0.2565297610347711
Ni 2.6663729740744437 2.8816257214220693 6.776129004682113 -1.2385579855022282 1.8940280834619188 -1.1445589681462482
Ni 0.7869769921139496 8.585837359265586 1.4618963974483696 0.9553468585215289 -0.6324515255773301 0.4541498922175276
Ni 4.7374786358745835 5.354980401422317 9.913504426856873 -1.2258166266761599 1.3646865364029013 -0.7492870812118514
P 4.881665975953419 2.1647282954093723 2.4628811550800345 1.316428986948094 -0.9310260223879772 0.8798225029309685
P 4.880854432242071 0.9672771051390422 5.5999199710563365 0.8193825524773566 0.7109637601516207 -0.15040593539079905
P 4.072381676073771 6.923878837212019 11.71673795371605 -0.09654312393407244 -1.310636291525717 0.1919012264211082
P 3.0080882090780388 7.868561827660102 3.760000057400382 0.11683247031072783 0.9319395353411822 -2.006354695482493
P 9.11109980434843 6.599593347827163 10.92019857893963 0.29433474769768664 -0.5635721861071132 -0.3702226572752527
P 9.183124308730632 6.5793693096568475 1.2024799946544031 -0.056607978302031535 -0.2850389242180575 -1.312413695141114
P 7.11559681693053 -0.08516321262718463 13.336324671949583 -0.3182763461149486 0.8266389769294538 0.09241238959515052
P 2.672763880801315 4.726255355230135 0.9278074922958436 -1.8435722408042121 -1.629259222346807 0.4013291488720701
Ni 3.083017671063363 0.5228287361575623 2.1631430185459535 -0.3898833689289737 0.04504315628256759 -0.11215717632224555
Ni 0.7589925672038613 4.615571859507321 10.794888852237278 -0.33381840761460574 0.6781744815357418 0.044090562561311164
Ni 4.408102554118541 7.711565007864635 9.362875707541802 2.4444627037458093 -0.31992056658659096 1.2730074254293493
Ni 7.647904936961904 5.236531907915916 9.82234316843581 0.43996177364260364 0.1700602192866168 0.5232516321111956
Ni 8.705558500864782 3.232314047688645 5.5156955669497805 0.7520978111877692 2.0234710434478056 -0.6480182696673356
Ni 1.919494541179988 3.228994096142218 13.053836450325477 -0.3697665435744406 1.045452968581006 -0.9090682871699634
Ni 4.018266465867017 5.251029029668646 6.789464143393594 0.5587300275234636 0.17170469686857526 -0.8034851645208098
Ni 6.893372171335408 1.8288229756120238 1.222384026383994 -0.14349301032104966 -0.2852824076874313 0.38974890023363845
Ni -0.03182265778126263 0.928479782483995 13.60044341722556 -0.9840959056297633 0.4035606093057501 -1.8254369646560817
Ni 6.067008565166921 1.671494160661915 8.199610796112038 -0.7528295471474712 0.04280835341477788 -0.3112978579145865
Ni 2.3076890978335562 6.670704865534097 10.241884523148988 -0.1639170825033564 -1.9588723336308136 0.6723766439070421
Ni 3.8519830038291847 1.9579967570309085 11.932589214550797 -0.5503366612534457 1.49015457090144 0.4277814295263278
Ni 6.338801931767719 8.328863887484532 11.338741181562588 0.42019076166326347 -0.6098762113799755 2.428200476250676
Ni 0.4866052981597585 8.395622579830595 9.833626392649846 -3.0435767915132748 -0.5284704573079737 0.9822133438950699
Ni 3.762768528106597 1.066054885732865 7.658254885907889 0.39243081794117574 -1.566502193724244 -0.23121802174285983
Ni 1.2844431428743377 2.213153477549057 10.136388451717464 -1.0397636315057126 -1.3500551596429717 -1.2708584974071468
Ni 4.020083217129923 4.583110111053371 12.313838617010992 1.1473635274745788 1.307912979057283 0.3927326654523107
Ni 4.062929036254085 9.054771293110726 11.44925867970808 -1.5572739902577568 -2.24822814005667 -1.0913543590988108
Ni 8.869103002876813 3.4483875608352483 0.14095776499117368 -0.6214675157620007 -2.4537613554389157 0.6701202437726975
Ni 6.306939619009651 1.9751959504589245 12.358366544918676 0.9561413293983664 0.2311717418859567 1.3709888244718453
Ni 5.563344249311107 1.0670877595473087 10.439716746965502 1.269543378140149 0.9890972154990966 -2.232974299221393
Ni 6.280914887720718 3.7888117035707882 6.284173051280031 -0.2953655029550462 0.03417536033012824 -0.21092713270430768
Ni 8.995823708986395 6.824925836953246 7.784591030963342 -0.8595364989884229 0.7186696134363106 0.5329423770363982
Ni 0.3479982433052075 1.878142700251718 2.111069578540251 0.07821038706315564 0.8370136352955584 1.536992100080269
P 3.5077132505523667 1.61310912388295 9.807725237335143 -0.46803539195036814 0.4232832845456581 -0.5700526516251344
P 4.796499996699946 8.158384375575523 7.318766785066688 -0.3698189940789308 0.636536237169665 -0.5278942730895295
P 6.84969636432464 8.479811017795397 9.42148207442386 0.6270547800417909 0.815082639550422 -2.5777749168791155
P 6.6480461962297355 7.322835570128587 3.2256225009050694 0.3863655855837024 0.4870852094929675 -0.13206034300407576
P 5.198546128972218 5.147741648224261 4.940879156201465 1.0550328989599573 1.4702835430091261 -0.637080025488277
P 2.7518340601320435 5.026701748094121 8.616493422961783 0.22677695525237074 -0.226205656129933 2.335810455253029
P 2.3017316292252463 1.3007846821528604 13.658212418550908 0.09567846194093199 -1.874091749549308 0.7571675124011928
P 6.266021216199943 4.06323336514584 13.344909513323385 -0.44897246178164607 0.49150904959227604 -1.0181110862329434
