# total energy = -340851.83175161394 ev
CRYSTAL
PRIMVEC
9.39460461114252 0.00000000000000 0.00000000000000

0.00000000000000 9.39460461114252 0.00000000000000

0.00000000000000 0.00000000000000 13.74995346959474

PRIMCOORD
 96 1
Ni 0.13822845557647054 1.7481010678142503 9.672652108385408 -2.2776402746702 0.5695944810417931 -1.0472859080246868
Ni 5.683275502218453 5.965423664892994 1.3404062264351577 0.38452493283053774 -1.6092830363351962 0.7218557244737761
Ni 3.245478925644211 6.801665612222565 3.618877823139586 -0.9783772579784311 0.4862308319124723 -0.8412024765659255
Ni 4.895847920861542 0.5105075161927195 9.583030398017936 -3.217461012531672 1.3890204851625756 -1.9950886356503708
Ni 6.041134784095011 8.558419110956912 8.202397413757847 -0.4989649916496891 -1.7721901895167997 -1.6927101917126008
Ni 5.481780020813212 3.371216314823982 7.720557533778671 -0.5666672800926692 2.9263386011236956 -0.1191598328923238
Ni 6.4596550284591485 2.8444796190281503 9.738115592790853 -0.15135878622237162 0.05021184496770062 0.4023827869475651
Ni 3.4174001914832584 7.4931273066644 8.623751070896688 1.5850660727693604 -0.6608910118649456 0.32977714766569655
Ni 2.321716841016467 4.9725642627654585 0.9925634720797801 -0.1910321935525936 -1.731019885926077 -0.4605100301076005
Ni 7.802275563219894 6.568153318031562 2.9358214815144836 0.04424997095731088 2.205235181434912 -0.2070249694364241
Ni 2.053801504448273 6.86765331556975 12.476734927243728 1.7535129248222705 -1.3673789956334 0.9607279203277843
Ni 8.872095566973304 4.138530047538193 10.180506588213486 0.051518479594266114 -0.7848184413492418 0.25857610204083853
Ni 9.193250128323458 7.29377379512863 6.600761051452367 -0.3795940711878237 -0.010506041737646422 1.2753851816329067
Ni 1.112631217328739 3.5568443089067006 8.238765807436323 0.43955245401932685 0.6296284543062383 0.3563440995209476
Ni 7.939953494961492 4.6655391868700535 1.9292149543431072 -1.3419844668196954 0.6698453928447561 -5.318435389673279
Ni 7.015684101680454 8.988654427370301 3.6310053183347573 0.6949663562820999 -0.4304746600877747 -2.3556241475448463
Ni 1.6093239673238455 6.000277648295337 7.583003610818991 0.8670708596922551 0.35092292850537626 -0.3908321059954882
Ni 0.9897685771843093 1.5073455334067491 7.053464504443935 -1.766646376880435 -3.177700444804282 0.8090886267505163
Ni 8.648503975335634 0.967832175231622 2.805031673932076 -0.8721490455461108 2.359459976351169 -2.0872984223164117
Ni 8.544900274807054 0.84631953978124 13.669598887012096 0.13972917240324326 1.4865660822192333 -0.8240696735403806
Ni 1.1152053390139793 8.84480424034694 13.014688781040205 -1.4167495756467279 -0.43595702335858466 0.6222617295285218
Ni 5.3060633346791395 7.8209614319496135 4.5993457416801435 -1.517352985693103 0.4102863580653579 1.1083915170867555
Ni 3.1920048357449837 0.38087982121054664 1.9658445180319841 1.153811854203084 1.4261808962629567 -0.160977026038426
Ni 9.225163600457625 4.688715676641907 5.298888675076883 2.692972679799898 1.0077809079515287 0.41193212119889694
P 1.6989672852821074 8.357374570576823 1.3565292470052657 0.8030581042857202 -0.022439817060754905 0.3173882870830405
P 8.927110372041799 0.4363145651087143 4.8007688846292655 2.047795736236099 -4.234994371884274 -0.24769879300670247
P 5.498737282279851 0.22684964054438878 11.435987467166031 1.318074492971317 -0.9954054171053114 2.653655884478146
P 2.5350401297272462 0.1640814682246932 8.822644246802616 0.44422697667686073 0.9866973478083524 0.993393014660973
P 4.347503634277197 7.514866421918583 6.641832384238987 0.5772674242060187 0.38144346569173665 0.32880835599452407
P 6.743118435790382 9.079011735285054 1.0335962869871684 0.7622647244184421 -0.2217334792911923 0.21966322702572494
P 0.6469895147571967 5.971680471616973 9.619096285425373 1.2624641026958645 -0.22959899808219814 0.44645638022801176
P 1.6967219747610398 3.1416027815796017 6.11885353031942 1.2362128823088194 1.9946163239996424 -1.3098215089339056
Ni 4.308534814020346 9.022381058209765 0.019955079823427375 -0.26974086040840645 1.1618236687639667 -1.3929398748216397
Ni 0.1146865156821498 7.574710053798077 4.511181134500192 0.5628530485529016 0.8802315654439291 -2.8386413576160274
Ni 5.323809742939792 3.632715136388457 13.757378315399732 -2.3345207899073275 1.034485670936225 1.5227931828720678
Ni 7.817804844773552 6.84626180068912 0.23355926721445697 -1.5941032432709643 0.04230441719516585 -0.7637220256902589
Ni 3.558864148915192 4.872436565972422 7.53632182011111 0.8105922078792364 -0.6554528715685098 1.281180191048129
Ni 6.792496478044483 2.1337308011563936 0.9191831543015169 0.8254786380727653 -0.5271399114220082 0.8084677053370657
Ni 1.8086399004408527 3.3211524664274643 3.2983254559501023 1.4872975610686194 0.3688545732831325 -0.6668870815473805
Ni 9.04828198334191 8.522071385408756 1.3572150531476834 -1.7740596386253704 0.2780334394345018 1.124485851545457
Ni 6.651812272801874 2.4929429061084063 3.4625271751148357 0.44161242187214905 -0.5448710101531842 -0.692149198548279
Ni 3.9795263631488003 7.390679142512771 10.962604610329384 1.1851764845572945 0.8550833483130758 1.648004107054478
Ni 1.7677639754317982 8.350516509152643 7.319333696110504 -1.0555738590650918 0.24548533029515143 -1.6638860683920569
Ni 7.2100021051020295 3.8757253759217165 6.028996954834679 -0.9098673860324912 -0.790396963878284 0.6727255426060286
Ni 2.7023392500584897 4.838606594481361 10.066134791788473 -2.2285414602610203 0.8855023269245653 0.5093669037093035
Ni 8.898250146432096 5.315955853418402 7.864024420930654 -2.18973194359299 -1.186941289767201 -0.4781346851678991
Ni 4.934328221674479 8.237771858260052 2.16279864752976 2.267718387570798 -0.18167877736215163 1.079581791943915
Ni 7.214736985866122 8.466521087872891 5.845861349376393 0.24377143292783826 0.2568825163884995 2.1805276513859027
Ni 9.29332145748835 7.900195527910626 8.864870176505718 -0.4394382970389658 -0.0660333853809895 1.2810290101822455
Ni 0.5781702775562481 6.530415190989187 0.7425692834194855 1.1549904478922173 -0.9840007748127957 0.3943362624940048
Ni 2.2193062552836005 1.911501427198871 10.247703377184358 2.2290554237829614 -0.35232623661080614 -0.43972908880650724
Ni 3.179453643878264 2.0751272570960673 7.657019003874343 0.8580246903295868 2.860798096218725 2.6005250660914374
Ni 3.3225616571310628 7.005312458101965 1.1927484061306732 -0.041178016900206504 -0.19508450924509627 -1.0290467593088406
Ni 7.435575958329427 8.752323751772101 12.247413566205227 -1.0862440344554392 -0.4561535529111176 0.9541577233094342
Ni 3.4340568255997956 0.4282981489261755 6.418671065496151 1.1091703042343093 -3.030870913910832 -1.705694519787411
Ni 1.3726269021427084 0.3198261642468962 3.1682646696916903 -0.5959086934562898 -0.5143538154009335 1.3478003021705238
P 5.4791777153139005 0.796218112965959 4.4970319203755915 -2.603784453569 0.5681937440395247 0.31738623020051143
P 4.692097734330544 1.7093107450465221 0.9603625250420795 -0.3219172853016456 -0.4098603262715328 0.36471895384820413
P 8.270972391236839 6.261269161206517 11.719181249342641 -0.40240412710380374 0.20828532420608645 0.6175141875412076
P 8.44210451028187 0.1343475443787596 7.701610495038552 -0.5925924845988633 0.32466476613979567 0.061959729532248126
P 2.423761037166398 0.7755001912416503 12.257863185002646 0.8389350206879874 1.501599065292956 -0.9305490827515587
P 0.8517421056086879 5.491230993132015 3.0916084532577948 -0.4987518471976185 -0.059134087157994925 -0.4939757659652138
P 8.716098156084922 2.4000020819037235 11.780396493506974 -0.4439876069725451 -0.5184560104947651 -0.7938065037804651
P 4.126852553907704 3.3999168321539432 9.66426460531759 1.2022416675696972 -0.7680522776344967 -1.12492396752414
Ni 7.3290411411373615 5.8337770693627995 9.59357678124367 0.5184071595347007 -1.1622669269489725 -1.444088629781313
Ni 5.540909662736216 1.3542322661583994 7.285921784528178 0.40422909612768454 -2.411189029294344 -0.7901390822312069
Ni 2.8973524542271756 4.819685860634376 5.320379772767233 -0.6049594908046484 -0.47669743850074037 -0.6873582049175389
Ni 2.376111602175379 3.0890399683353684 12.228122684933428 0.03140525378415882 1.1688602638957741 -1.0572095948963018
Ni 7.261296646713024 1.3187018712183296 5.508836482322309 -1.0120533100746378 2.739524045196876 1.8809946473167283
Ni 4.837281955219979 5.719519887115013 9.827916740107918 0.7942939849398449 -1.2414779873625006 -1.5018718593383682
Ni 6.4165901605571705 2.4502350331846734 11.988226756855124 2.985231261694846 -1.4160108977084904 0.21133156723157798
Ni 0.11290248025139378 2.3607232396920805 4.8091009595294105 1.6253223491862463 -1.1297234457953125 2.928974496084646
Ni 9.207135354056252 9.2914613257596 10.925658448462434 1.34100590495651 -0.3214956243831947 0.7323993043175774
Ni 5.840447238693167 4.629830294440861 11.801199906133967 0.1749527714922277 2.094301593107122 -1.079790308410295
Ni 2.6163316441155127 2.574074712216931 0.5833100657825072 -0.20231907932032253 -0.9502897557135958 2.18433057007176
Ni 3.1186987353437767 1.5983134906263938 4.432957898003894 0.44039886118002225 -0.19790886606776883 -0.14061106078756427
Ni 4.3882574294252725 1.8403560858765153 12.54344977299397 -1.7982295510033548 -1.5159594477796858 -0.4620303234068688
Ni 6.409234185084385 7.227710934943921 10.857334306928681 -1.4335296233185442 1.8805035666129226 1.3720738300059079
Ni 4.737295177497302 3.2653203307508814 4.592897285020476 0.16782464508787873 0.6417499201601206 0.13992303358160418
Ni 0.9355804973285919 4.868678724096158 12.110877078933544 0.2761421359490599 2.5951422045129693 -2.3505580458758484
Ni 7.195318337970531 0.2752074287290835 9.805586704218692 1.233420921385979 0.5559252110848169 0.4351741224459731
Ni 5.222629850421402 5.535404424387491 5.830777372085072 0.20738672365121702 0.19576276625904349 1.718695560032769
Ni 1.9053291719171082 7.927308357047866 10.490994515397867 -1.911883623586101 0.9442144960537933 -1.1540535379002448
Ni 7.573394809141385 6.293060503479704 5.22297463241355 -1.9692719316975829 -0.6221221186268641 0.7877302156793983
Ni 8.940215845585266 3.549892301435613 3.278071627697512 1.5180453837744372 -1.2020105253954976 -1.7611267326137863
Ni 0.02883486017703764 3.6245136464935124 13.484359829563571 -1.6947691311241586 -1.6494855766960106 2.367482075324697
Ni 5.226105854156946 5.7603488391006135 3.574451677017932 2.282961172662481 -0.9603324846615783 0.3690345505044225
Ni 5.366113647861827 7.108850396397711 13.266395606135609 -0.03539843410395194 -0.18170577394534512 -2.184094028580922
P 2.0193326998382473 6.822089482820057 5.310438402083578 -1.1326797002101587 0.5671113096086232 1.7623729463160616
P 3.91645098725572 4.670706219449916 2.4386364542335865 -0.9167923952870985 -0.562617792613644 -0.21303929395130408
P 7.07229598954636 6.801909871944522 7.538274958426297 0.7829343369526517 -1.0855488081606273 -0.7409734191398335
P 7.136508112607009 4.765873564966285 13.702351297345139 0.5005212803932154 -0.268814234829079 -0.930933719784487
P 0.5136424957779921 2.0356981012093742 1.1665487325693653 0.5011771688096593 0.20471200503253134 1.3495165135306824
P 7.936881459227647 3.232749236288369 8.175158696917752 0.38032632136815786 0.5179821561821402 -0.12902207039838423
P 3.753323071407129 5.272862801702352 12.912182370339494 -0.25808784955051034 0.6427372237740544 -0.24557737578832542
P 7.219180633884803 4.550427095595417 3.909428520249453 -2.1129454334605544 0.7300416027186782 1.721620189878732
