# total energy = -381169.4831125053 ev
CRYSTAL
PRIMVEC
9.18171207018301 0.00000000000000 0.00000000000000
0.00000000000000 9.18171207018301 0.00000000000000
0.00000000000000 0.00000000000000 13.43836371639684
PRIMCOORD
 96 1
Ni 0.8596386982861917 3.627455661854768 8.44138866730862 -1.6584623262733247 0.1415078615702208 0.18790316100530866
Ni 5.44745460203522 6.669779185379297 11.006261333759335 -0.38239168853761885 -1.4395295496557208 -1.6564802628462891
Ni 0.03162089774032621 5.876818997351831 0.469785963948688 0.2065344029532508 -0.9318546889368596 0.7724527206950375
Ni 2.9527100150180154 3.1850899624351636 13.12992611466572 1.0900742068348066 0.3126911387176873 -0.5585402801101608
Ni 5.365581276691718 2.3682022330995025 3.8322445649008023 -0.3427789592420032 1.2205448367542593 -1.601284848621068
Ni 7.687369955948964 0.49093879190947765 4.649202993418379 0.4247179601096556 0.4490092285568525 -0.6813027427520782
Ni 6.048728189950957 3.678561070496905 7.381262698018946 -1.6188449689920186 -0.27997205121811136 -0.01358570910423467
Ni 3.2939207940261177 8.476253463876338 8.75766099852425 1.1249226819725593 -1.0286526091942154 1.7945718996461093
Ni 2.6539830171430734 2.785951762815628 2.7866330458413633 -0.5390585172364651 0.011811133702315143 0.6907366344714685
Ni 2.979740974960964 6.655042537720184 5.631951003528975 0.5181405361368754 -1.683382743664088 1.0791835280642317
Ni 2.4786215008555827 5.722850869877883 0.9403964456293313 -1.7132530488609592 -0.9089299618198863 -0.8110290383063387
Ni 8.337793247864225 6.53007943825567 9.050119641659704 1.0244714812333326 -2.4094422218065663 -1.5424106999926792
Ni 0.7970175865324901 8.044887455357431 9.844393732665376 1.6258422262454582 -0.3409956420893353 -0.49765167215490413
Ni 6.027591889071654 4.399610090632669 10.471065772141634 -2.2744122546512053 -0.4534533803711352 1.058783881361957
Ni 3.6486654164295684 8.416205067807425 1.335252294801384 -0.8253881352414881 2.4103246244115195 -0.44281595526194706
Ni 0.057082703113217004 4.91548457582104 4.724915390052058 0.2536339275442148 -0.7523382093333495 0.17913364234279472
Ni 7.899430774849215 4.240426750778424 9.507292687920339 1.8719772743094665 -0.6529475886481529 -1.0038095820086066
Ni 2.9666570354505355 6.61999594325611 10.152387832398475 -0.0013027779718235628 0.005009794509765565 1.4615729026090054
Ni 4.478159636254926 8.130736461969716 6.590146197748458 -1.3164598401860295 -0.20125824215597599 0.14210358617269075
Ni 1.9104204393374353 1.1575659690514084 8.448833199347256 -0.927032842068184 1.166704651005352 0.3094795737589251
Ni 3.3355874027968717 3.383359850005826 7.163480754410662 1.5261178763699264 0.1424069763457225 1.1568678674205881
Ni 5.311969260690741 5.551106948093626 13.21960022247102 -0.482449253382853 -3.2517808688594645 -2.856128201546881
Ni 1.4381131772908078 5.148387880818605 6.565366593572497 0.9383531521770099 0.037159639769432776 1.2869752004633512
Ni 7.9673387163363225 8.547448458236945 0.46211188911162404 0.999989179821252 1.0419822364235862 0.5852280738139921
P 3.574605727944574 0.7866899969455917 7.388506150566158 2.740577169051738 1.999602207250008 -2.6372846422089737
Ni 0.23031406223129083 1.2922157746096083 2.1247261868063174 0.7886889800482416 -0.5313428937597624 -0.7597288453704658
P 1.6719438351940246 6.88315298908656 2.6911129420456854 -0.6774507159958397 0.278377710147798 -0.4645842001769741
Ni 8.128597123088362 4.362883242884098 7.061201992458052 1.233433262681153 1.3509329342622347 -0.4434934409449459
P 4.130145208701401 1.3444597155319509 2.418690630699464 0.7704053512477055 -1.7328841928283252 -0.9838423948580605
P 4.495962975701046 4.480041887202041 8.835401635324843 1.7380418257698647 0.9285909305839234 -0.7693913081608943
P 5.242114796272959 7.012927305606137 4.849663637457244 -0.6677124056621533 -1.7665923837140478 -1.443871114453868
Ni 5.270238379936426 -0.02554719529390622 4.095099532408521 -0.35227532876821266 0.6231140502264881 -0.8062843245325018
Ni 7.937736877050974 5.681606619856238 11.888973674143566 -0.6560966758000958 -0.8924821006765081 -1.2592126856381023
Ni 1.9400957323182808 0.16747167121990417 5.790886437160918 1.1092839469940379 -0.5192322265391573 0.18815332934290177
Ni 4.763619060380697 8.974829603775133 10.617207408360363 -0.06323936757562013 0.4926968992527902 -0.4803036677947599
Ni 1.5216392107829964 5.215028746058388 11.950709668866528 -0.8610133406442655 0.10357611952145387 -0.4263230998132464
Ni 7.208607950410525 1.1895550534404142 9.711179946854143 -1.7156796560245806 0.5774692558041797 -1.6359147799901115
Ni 3.323568541871152 1.8791383467675897 5.233973372298294 0.6491043036426628 0.10628606225344922 -0.7883210551858617
Ni 5.020550905517765 2.34243834940388 9.12521319090882 -0.4033376946616667 -0.5528915664648155 0.6006878600124881
Ni 7.995581662254975 1.8573868711884982 0.350112448731162 -0.15830307875068866 -0.9426499797801507 -0.27904902518320973
Ni 0.9923318810305862 7.482369873528376 4.8536549276363194 -0.7415056374942197 -0.8625076658016049 -0.17200063084243927
Ni 7.628698816670621 1.893553634508904 7.365983411184347 1.1537632603533354 -0.36878695326999067 -0.16250271865433302
Ni 1.14512474937658 8.193713824146581 0.8087352873066717 0.9831811071249776 -0.3196662844839398 1.0862280936158388
Ni 0.2787430018437507 7.493433836412633 12.234232669944754 0.5725633338621301 -0.23384080407768756 -0.8359597401097474
Ni 2.558832936338462 8.948441363667783 11.763231047335589 -0.9207439237356788 -0.49683149024645407 -0.14529098276173688
Ni 6.670431086926835 7.746041095227307 2.7297486677059886 -0.43813551906714215 0.6564301478801146 1.0888449624133956
Ni 3.4948901049062995 7.63342739831825 3.779875752696114 -0.32884383721814975 1.2127860187444468 -1.9575620994598222
Ni 1.3115891867969796 2.7616294078941364 6.454486403877173 -2.130893790408859 -1.8831024376883503 0.22453315352351652
Ni 7.32810793127244 1.7151621532821557 2.698759471746938 -1.3205039283484161 0.36871753348463593 -0.37467349395775473
Ni 4.435115770693601 6.503966649506435 1.4289553378047017 1.9144182170824966 -0.6560123436164057 2.20383598709454
Ni 3.751904585450802 4.73198806275724 11.680840791610025 1.07913981931049 -0.26933359766765874 -1.0936776079153485
Ni 7.159706152633302 8.062699976515487 10.041172510217445 0.08357705069170768 1.3526527451668189 1.2047834601549443
Ni 6.043053891973803 2.7309808534479534 12.988568150366243 -1.2132040801184718 0.9627197539468322 -0.5351108454426268
Ni 8.980384539497104 8.239806018071036 3.021575609060168 -0.2397476564804258 0.06622827500061497 -0.9093315681336792
Ni 7.332359063899337 6.244959737471573 4.622420857868927 0.4549711025672422 0.40584837689866227 1.4198588106996706
Ni 5.257944067652593 7.913607338080163 12.850905825121465 -1.6361420655095693 2.885178067724986 2.5633291737674306
P 4.614223425451446 2.6276957758670334 11.28158690242008 1.1099046112971724 0.5603027713272221 1.1520354790289515
Ni 5.928209039064019 7.169558129541857 8.496310913603027 -1.4008059078332777 -0.5843672684755936 -0.7901251982741361
P 2.1923816312151545 3.810768540679825 4.9140733466963 1.2381563791884354 1.2035444455415207 -1.8687690517848137
Ni 4.270625401339687 1.156252984244397 13.019005525437871 0.5521485176512039 -0.6930567979642128 -1.069104803671991
P 9.251768399223234 0.946680409279112 5.980394217029964 -1.8891525005371723 -0.15148374183601007 1.4105784138390094
P 8.956824266666395 6.487136571525653 6.487987716222226 -1.565084487441111 0.49848676646168993 0.21457321409732721
P 7.065777239516332 7.668014907185467 12.123002657024626 3.1770201309078057 -0.9708773500569602 -0.22885929170269617
Ni 6.010523086580505 5.853827990661226 6.547331874985561 -0.6452095965739468 -0.44313374361268193 0.39787050089950826
Ni 0.7272907479106336 3.0470521051721584 10.777205166063434 0.7033507236910532 -0.22145348615692828 0.7138179417709641
Ni 6.695818520433035 0.5608428375717209 11.84742275494322 -1.5481961963262045 0.7882480358560812 1.9199620297188613
Ni 2.1239778772834406 0.2544142197239034 2.9365511201798378 0.33335997992094846 -0.3569094851061143 1.5820712518070947
Ni 1.614640770994316 7.693815517728837 7.501253900469497 -1.5223771783805717 -0.7790339734569809 -0.872760968098497
Ni 5.710731010120854 0.37247083546929854 7.934627949389058 0.5608190488420083 -0.30691489835554236 0.7778697779455507
Ni 5.884807086737146 0.2819024289213216 1.1309711404254743 -0.2078441229036098 1.1016696249818896 0.8458356044625627
Ni 5.678943923394466 5.304972796194638 3.1500057229521468 0.25840358101871624 0.3747377715367869 0.5387049905517883
Ni 8.387879486481339 8.646656855717772 7.994993114519803 -0.6030234501242002 -0.3900175805139928 -1.8371007741472554
Ni 8.153461199014146 5.810205677247859 2.6481507937206 0.7627979712140928 -0.7699847187705191 -1.3765472923962292
Ni 0.9688175167595633 3.024749726876838 0.633218600087443 -1.6277047333754935 1.493361507874512 0.1852029884653262
Ni 3.3881710670608887 6.946001807296303 12.535560846811489 -2.0121425058088636 -0.8259823171820613 0.07007618799179545
Ni 7.2909862699105705 3.0338120765587986 5.1649002715663626 0.553946232981575 0.6160586860416035 -0.2837446308866662
Ni 6.795183007016795 6.648505158820939 0.791580176723314 1.6634376680007288 -0.4909912294155931 0.5814935464722243
Ni 4.519872153585366 4.145010400327635 5.11668342949965 -0.22191679894659203 0.5762335836248657 0.42942256467417655
Ni 2.681877058008113 3.8256153688821852 9.626867040648943 0.8282214909252253 1.5181695680571274 0.494516211849716
Ni 3.3081799926645004 5.350908901016164 3.215437356729808 -0.5500474121478011 -1.1865936766197953 0.9549660781433423
Ni 7.821523949062558 2.605430124419462 11.315693289581793 -0.9425147397538672 1.0214725465060086 1.010632518467711
Ni 5.650847884866809 1.5341814292891331 5.85860248086854 -0.32495118703196296 -0.4848660903544617 1.7989111504514115
Ni 6.66305817224131 8.108562627641517 5.843752898152598 1.5994503665154907 1.3214248975007887 2.3002508129808645
Ni 1.1179377003307 4.535370883335263 2.6412029922977642 -0.9955802521202789 0.143419733880953 -0.3148801759492061
Ni 2.3061889506760402 1.1740563236905173 0.7972177478527198 0.15597314506593138 -0.5078095865245126 0.5283984664194578
Ni 4.376003909242275 3.8744988032355336 1.6523142532436068 0.1138168234128556 -0.2814843740975797 -0.729785263733498
Ni 3.2901654738438264 6.035038257452676 7.935796781318657 0.8503764297557096 -0.48359647961341884 -0.22259428462959083
Ni 0.6591394910571909 2.065251647733475 4.279111139511994 -0.03449494845307608 0.7982424280646316 -0.9275614608781445
P 1.2052465991409913 5.591442208633494 9.475188832132119 -0.6558693902806382 0.16610354863171392 0.23839422777632494
Ni 8.824414798820857 0.23284454204116742 11.155978328606386 1.4959716918038495 2.0656263366596166 1.2665261885803802
P 8.246756574007454 3.590930811768814 3.2750505396529013 -0.20707382039648853 0.43152726972200517 -0.9442484346155222
Ni 6.663287715039738 4.209135476496641 1.2838888800538135 1.9020072450126537 -0.4143505008324025 0.32061476444013814
P -0.047807337714315314 1.158309687718317 8.987053216877051 -0.4048343338118512 0.9306974354039649 1.0929769823038984
P 1.3175572995561222 1.4457799067583221 12.367366574862132 -0.31900011165485065 0.41433995930944123 -1.0873282686585533
P 8.367624629948002 3.8354581640788017 12.993473020883064 -0.06414439588839276 1.012596069951985 0.6619443928301245
Ni 2.8555032307394845 1.820733477135424 10.559597674981953 -0.3864545457530828 -1.6410199624271609 0.8092691181924385
