# total energy = -340873.02295802993 ev
CRYSTAL
PRIMVEC
9.23917265134764 0.00000000000000 0.00000000000000

0.00000000000000 9.23917265134764 0.00000000000000

0.00000000000000 0.00000000000000 13.52246308513146

PRIMCOORD
 96 1
Ni 9.207020323509699 6.682351724242961 12.11359843928445 -0.5172722745993091 0.4788049717620464 -0.5117618863040413
Ni 3.9457734612062856 5.622840362083849 0.3173480259040897 1.1552745547915393 -0.17242846240847726 0.1257876226214866
Ni 8.286678618891857 -0.1423673351934666 5.1414702281425555 -0.774005409894138 0.2647747746523827 0.20448317685117684
Ni 3.245388739731577 1.667818489060608 4.209245099669599 -0.18925916081257083 0.05790252874373898 0.28128099983752197
Ni 4.454777960526717 9.461559529860493 7.063647759687391 -0.028226341835544934 -1.760956525584509 -0.7297117301830852
Ni 3.8773758661204445 2.404152831294334 11.421180656380931 0.36534578879892565 0.7199644209883344 -1.034336032732238
Ni 8.640409582751984 5.331335225983165 0.363419160294951 -1.2696976443298262 0.41578157685197425 1.2424670907486473
Ni 6.7131736041843855 6.075753844280663 12.247268017350562 -0.039620956825731767 -1.4932447797909896 -0.578133885971372
Ni 7.379835345507356 6.859254162863602 4.657745029094225 0.31779169316904626 -0.8953352538545871 -0.08780445850949395
Ni 1.3897933058479741 1.623063936771561 0.21142368328884706 0.01544615935174114 0.4011131762065221 0.057975548073519505
Ni 3.316890696825907 4.642758167147886 6.403900615171425 0.3277927702458161 -0.8560971342895708 -1.6860888297413412
Ni 7.779642063344665 3.478890349971272 5.446645644087763 -0.11429581993180317 1.4851074953958359 2.0897389134371043
Ni 1.7130257608092259 2.6460990453309297 11.047689873986418 -2.3944866289379987 -0.14800503925879027 -0.9199615370436997
Ni 3.4500179354577973 2.3853880716537366 7.390904798252506 -1.247239058215994 0.42096594926639114 -0.5673560786295777
Ni 9.178582150110508 4.8371226420662765 4.0136564343758385 -0.921456119311355 0.14396223664798433 0.050473840379835655
Ni 5.637595320796815 5.121097852461848 5.644072904737742 0.8183327710566036 0.052616083533819066 -0.24323972879408431
Ni 4.774240833049089 4.8890745098452415 11.169878856124708 0.18628490867559533 -1.4278796241216183 0.6164024425342675
Ni 7.833663505795957 1.6782957108392575 8.722448816247152 -0.8109318506068421 -0.21155216788281633 0.2718630489577318
Ni 3.9500789156585348 6.917895191637049 5.541126347465761 0.7428284700707013 0.508778378195685 0.99563861616204
Ni 8.498163280720156 7.65301920225437 2.1345482300297256 -0.37817353669121323 -2.602761154510808 0.12613780687205373
Ni 2.464854195567463 0.7126765167607008 9.81874132470327 -0.16496454993126428 -0.20353855354972045 -1.8304848114926349
Ni 1.9404110387583864 8.619769271064591 5.48265531946897 1.285364918553438 0.4557000103134668 0.5837568885851043
Ni 0.8426929259632513 4.680555622435767 6.399478747143857 -0.5747336020405714 -1.5759605109236665 -0.6933064520811737
Ni 0.686814224694743 6.897365750021388 8.81592891722777 -0.07888684430488994 -0.5592031105051402 -0.9287878770860778
P 5.112542378593215 7.578874841783767 8.197262829957472 0.9415420914279526 -0.17110742960420855 0.2779156829097149
P 4.206567587437277 3.6070284353752333 9.373514834146523 -0.2568676039901641 -0.5516144995246048 0.3186483847423867
P 6.914365827686922 3.5290221007393083 12.29907205836722 -0.8055225066658126 1.225656446949212 0.2844887081415423
P 8.36277244479041 6.067558698145159 9.998901495598293 -1.1158487446957492 0.4934682302011759 0.5930861364058302
P 6.457507218770987 0.4214319253285855 10.313650542237538 0.940568928881406 0.7558693624150595 -0.7194746258361092
P 2.65677028973511 0.9154430952818277 2.168624146576477 0.8411304856774094 -1.1641728857224336 -1.1313054455704517
P 2.1721756845409503 0.656542075525655 11.956629515643913 0.990291492917514 -0.3867869893918371 -1.0037938982793229
P 2.6631545580323293 6.364607337832431 12.056966006643876 -1.1415613189705052 -0.3463077983308681 -0.43017898322422693
Ni 3.806788587117901 0.9690413836260099 13.408292941104522 -0.2606970050385833 0.24575838145087994 0.9316741974949375
Ni 0.9065208262592156 0.5850428901831185 3.711064291101979 0.28696493759617675 -0.2150640376908167 0.7439093618397059
Ni 8.313869503984067 4.085349642343905 8.048650737973714 -1.0646786495798375 0.7580697125004879 -0.5395845649432642
Ni 6.271541151786277 6.69713440047386 0.9729550971581404 0.14157136781830457 0.26326887953081757 -0.13275222686477783
Ni 0.3900575428630311 7.167888725046841 6.324740307872225 -2.2046587401061517 -0.9446163594779021 0.012649827553526602
Ni 8.461234307660842 8.61809698081597 9.713131113957933 0.12425627357862472 0.213223127827336 0.44236318399524455
Ni 5.936399403286507 -0.07911595927050728 0.6788934819867743 2.686124546529813 0.009125616450352026 -1.7728550767943079
Ni 2.5387490983766696 4.206077911287129 12.546777048713015 -0.2586066981684578 0.048283003376103945 0.8447508560388162
Ni 4.052781558772706 8.036786716381153 1.0838501146560229 -1.4209664419415529 -0.42991338826766606 0.6253948758408648
Ni 1.6210590363077453 8.20823804314165 2.1908147914335854 -0.3737831209330014 0.6601356217561599 1.6329734379736003
Ni 6.500469371567037 8.383616018275978 3.0935604917503348 -0.3707620747184905 1.5438988545024315 0.34555600776650813
Ni 6.343421914959024 3.813801119154934 1.0894139444224276 -1.4265390509333238 -0.6736498541925109 -1.5794186446755962
Ni 1.0953963087096195 5.428974802488253 2.068585156935661 0.9712858983492886 -0.27315554251691015 0.9390733181724858
Ni 8.92673154299921 0.6386393306927719 1.7893330115958626 -0.9292151944314836 0.7334783963143691 -0.35420776990423514
Ni 9.129097141427573 -0.007297098554477543 7.490565905732169 0.6690077274348091 0.22863123485229012 0.10233170559139149
Ni 1.4664876779684073 7.843401593763062 10.730020324874305 1.5453409862655967 0.5249776136633668 0.2897332443699333
Ni 6.464122466384314 5.759700226464041 8.46093773021896 1.0085280705301987 -0.246046345004944 -0.44618075796912193
Ni 4.847202579421221 0.7286427310073362 2.36674249734025 -1.9856547439309802 1.4003539078975238 1.8221451812786877
Ni 4.397642916894292 9.145450477008005 11.04602682291044 0.024677705252338145 -0.03854495015273362 0.27179542894458997
Ni 4.014106382083616 5.631515945196858 8.36844344895949 2.0215362883189374 0.4766113065448372 -0.007285220807503582
Ni 3.9574702537739843 6.86289439688546 10.396759671924917 -0.09872573340768803 1.1404225773803713 0.1588517521653071
Ni 0.8658389012717814 2.3978886722414905 7.818687730856792 0.7792805422501482 0.6363454613150975 2.7696414334075463
Ni 8.228582701304425 1.8264643225360877 -0.08681865750407011 -1.4642851593338462 0.5343369433910797 1.0502951271646557
Ni 6.34951976890427 3.4966295614483505 9.74055482620078 0.9555178368817543 0.20231907932032253 1.3993740604827576
P 9.09690786393479 8.248493118352917 0.11568090892763606 -0.44485689695137576 -1.0315813528052362 1.9193521640490039
P 4.446665966945011 3.307115652168225 4.9910333995615455 2.1279048829838643 0.05079162873057059 1.1048444231654455
P 4.34329810340045 3.3548821747393176 13.41263350441282 0.5590843255390888 -0.4758106650204128 -0.8027770827101917
P 7.94539282058362 5.501955027205672 6.311852585950674 -0.9334999378497665 0.6786725042180828 0.4880252048087337
P 9.284998940627693 3.2110744525306028 9.67855443425386 1.1300129520112732 -0.12392742948429623 0.8927536091703399
P 2.0909910745153817 6.220513201271742 7.104133814214766 0.9233317390675131 -0.17843070273849918 -0.0500830326993202
P 7.790313307748845 1.6720223126137697 6.516650858536285 0.49004146390781406 -1.0973242035290005 0.5902003302176029
P 0.26684947998207414 7.594091759128949 4.161078520923008 0.3377072011460507 0.41569261668259383 -1.2090270659226467
Ni 5.554609072105606 3.590749013175956 7.562572321652879 0.011776423809637783 -0.174479431400235 -0.9626099678418453
Ni 3.5473156625750457 8.286835684826812 3.5626009497977953 0.25674239126620946 0.2828357459191516 0.1500801766202641
Ni 9.05812181717397 3.8863009068948493 12.09889891560735 0.9220623854367862 1.3457596175914115 1.667581000745141
Ni 8.197077122587322 2.1597028014711293 11.194692502095535 -1.4396167100528885 -2.7065483616018033 -2.988864230461743
Ni 2.24757657249118 4.350264439574261 8.646168359061184 -2.0723137759821215 -1.2498225026724539 0.264091632542429
Ni 6.455761015141212 7.474721648564439 10.146810486543819 -1.0361023806040415 -0.7756917964576254 -0.7969411927547049
Ni 2.0201266203335093 6.3085902340899676 4.332489195323869 -0.810499905275746 0.643498270309795 -0.008025441407637791
Ni 8.499881766831999 3.306080864832062 1.9782278963088193 -0.7951131384070307 0.27039880570737945 0.00948557089293205
Ni 8.025773622589133 1.9269865209062012 3.942757795255182 0.14142661471032417 -1.5966542918275919 -1.598849499706698
Ni 0.036797776807765456 0.17018463619096086 12.024323085774256 0.2835096320577246 0.7719233305541287 -1.6502121704493902
Ni 1.8468366982167952 6.94856000564352 14.049027716153024 -0.28443882874021337 -1.1346828466831167 -3.396122343223738
Ni 2.904481747501756 7.701469423601141 8.28836384398218 -0.08333742387707582 2.9070242170658003 0.3775240760326724
Ni 6.972757398798973 8.380992093244993 12.251121676260505 0.637861897959624 0.7217577654433311 0.3673875018193028
Ni 6.347736608583918 3.6733749341340376 3.600072262291331 -1.0191230724372253 0.3797470518259202 -0.6803853731441315
Ni 1.3928884286838186 2.5342865779894668 2.4758414196760787 0.27897806273595827 1.9555584387662321 0.29123991082244677
Ni 3.899014008453423 3.184068350891279 1.9423392540892541 0.6218102438134 -1.1861187938659057 -0.2626387021459864
Ni 5.817620599771233 1.563434316525172 12.045309866435813 2.2984117028895965 0.0635368442113809 1.1005925898676272
Ni 1.2159490333726013 5.095893389488164 10.823055097733468 -0.02405164163256503 1.0766016262696685 -2.1223970657917577
Ni 5.812465141435707 1.6220938236439082 5.503156119649432 -0.0877131843472683 -0.08694571005362445 -0.3435816576489567
Ni 7.135182053885977 7.787818731134881 6.986637407862522 -0.743947671276809 -0.5482476399349009 0.34673074480089966
Ni 3.197132541010336 4.43258546783508 3.7232747816687017 1.0081501183654895 1.191704001263167 -0.576524375392407
Ni 4.967496607250162 1.4924867097895007 8.915657470667737 0.8119374090532209 -0.005389803557003621 1.7724300734417473
Ni 0.7485568437248862 1.661064653857616 5.837431233755166 0.14760574693784256 0.2613444088145951 -2.8725999739496593
Ni 5.34765160487302 6.3656236468233045 3.1979409686167135 0.02758562292775249 -0.9909430104585837 0.8520376195082164
P 7.37273042174388 5.333127625476161 2.2128160332514852 0.47501490859199486 0.371264982496838 1.916216703743816
P 0.9964909655522606 3.838127860727407 0.6362020369492023 -0.029002814990253274 -0.5961830301635991 -0.8478318089569848
P 2.1697273037902076 0.5573087417394229 7.347200739893117 0.13284324391668734 -0.01149823044758665 0.6576884457672479
P 1.5775425331530364 3.4128764614276634 4.49788239658149 -1.9419503610644941 -0.5420463962201955 1.3294022592793104
P 3.393003001069748 6.3901998460571745 2.330014938244582 -1.8892635721937399 -0.7558397947287047 0.7711350303248783
P 4.697629613482455 7.600568419152611 12.647167126914315 1.9232291305059068 0.024054984066674702 -0.8659532011480441
P 6.740004161543468 1.4803649152801637 1.9294663148439344 2.385057108093983 1.625814458331316 0.4685763520555027
P 5.186769891617616 8.744470384244869 4.912291626783134 0.2422827641974537 0.0784214746326972 0.12340061044654878
