# total energy = -340861.40496530593 ev
CRYSTAL
PRIMVEC
9.34133831755906 0.00000000000000 0.00000000000000

0.00000000000000 9.34133831755906 0.00000000000000

0.00000000000000 0.00000000000000 13.67199286469694

PRIMCOORD
 96 1
Ni 3.6721080869617033 5.45207206496821 12.374424996676552 -0.17670369274506342 -0.6965691819928455 0.6158902787845394
Ni 1.8535924060302869 8.1889253671366 7.701528900618309 1.7685649340593865 -0.9068427402735544 0.2310529569199053
Ni 2.7569184967122977 0.44640387191073555 5.710955110606708 -0.8674953488241833 -2.496589763458352 0.8627233813568367
Ni 0.17664470615702707 3.590203233255473 10.941121817367545 -0.3247537263091762 2.6236169149138946 -0.3443758714154779
Ni 1.1911607459340723 8.763856711919601 1.045025784609381 -0.5899015680302614 0.7812240391297642 2.1472246663583987
Ni 1.4190520336869454 1.9042785073316106 4.714594895836898 -1.1539231829699674 1.9321775979484466 0.16296603144399677
Ni 8.952607792438315 1.8666329142161784 2.591102269845447 0.9893599822421799 -0.27550604502695775 0.42671005083901997
Ni 5.090627664368853 3.714060037006717 10.905191293953353 -0.42458760517937844 -0.13912779137381845 0.02187494569622039
Ni 9.290241121858706 5.61629279126332 5.095073207238241 -0.5655534782032002 2.288999665547077 -3.1700714675041146
Ni 3.844745359012894 3.0394566131811214 9.004005703713682 -0.4563489567513754 -1.042593901865656 -1.6007775699673463
Ni 0.4371438033113986 9.135380416482123 4.0685255238054445 1.9453606722976238 -1.5672413858831138 -1.15649120080746
Ni 8.50666164610144 6.7589066023534965 13.034221465254685 -1.0999603556002668 0.38554180413082634 0.06346151088875522
Ni 2.0710027122755883 3.5531928511405004 12.614149891714446 0.6856484213152837 0.5663276373650633 -0.25252269675790706
Ni 7.104853722809305 4.944921470469471 10.200099610373377 -0.28799003642658144 0.3890315624516397 -2.406591125511017
Ni 0.47524431959921815 4.0565415209747275 6.318716588641368 1.8983537074204662 -2.4597227152286734 3.1187797592086737
Ni 6.167936179808908 6.083695991542168 12.021810963117398 0.8305881913851889 0.34576863799794644 1.6187284980188124
Ni 4.4678219610953835 1.7394879594037354 12.958178301295339 -2.4705576010606483 0.738279160137122 0.1585362778074173
Ni 6.17946339119959 6.809209708786897 0.700728344487117 1.2330959339463925 0.2576276220846402 -1.551262236846038
Ni 1.181679287618399 7.687846642495188 12.64552651273564 1.2443445102770183 1.7604276496642328 -2.02922671498466
Ni 2.600170841010822 4.68114076119067 10.194781586512182 -0.03217787028412523 -0.7413693690266716 1.0252327848793892
Ni 2.499303070673245 4.2501033906880945 5.024552642447588 0.7403854078468475 1.0953102584227652 -1.1812074726072173
Ni 2.669661056193377 7.154568324933456 10.784207885845362 0.14167009817969792 0.060768280327308244 -0.997218044834018
Ni 6.095867755271549 3.7083057726496187 8.0485521432396 -0.9279370990500083 2.5892124692920957 0.7562043771569751
Ni 4.10731169432023 7.304749019850777 6.7200167429842255 0.5232338914993827 -0.04805288964316886 -0.5646546205380146
P 8.125918040694023 0.05925677913839774 1.7484294883690188 0.666583948484665 2.521414792921832 -3.9787224924965803
P 6.444327695714468 4.555770660644215 0.4378350623413098 -0.33182708821618984 -0.07398735012074355 0.09233191406620228
P 5.048526252911966 1.8884075736583799 1.8307070614711065 1.2477087987635607 -1.562541152193967 -1.6265654775647278
P 0.7048179823694832 5.912740160374545 11.402427926175813 0.2796246951810217 -0.23380609418501022 -0.7974803530876265
P 8.073354330406048 0.8694693443575516 7.440558065882715 2.350209661397494 -1.0282582019692743 0.09173104725740976
P 5.5093905164213846 1.6531833353855032 5.785864236103473 -0.3027371128287689 -0.057596310357229834 -0.6056493177828215
P 6.776384246204359 2.3256569340919135 9.886450166889432 -2.4493647690331173 1.425617310450003 1.140763505659558
P 4.738150948481856 6.146843438058376 10.575094556226643 -1.5891453850450568 -0.07025796498529835 -1.8772691188360249
Ni 6.231578717251946 1.1612310982065677 11.763259534986492 1.4089131103214445 -0.19652766944952604 -1.237063917455205
Ni 4.22429327312533 5.4555190187795235 8.457289871090772 1.5606580762386413 0.21524992844937768 0.7772102899846808
Ni 7.030300502299562 5.657469410234245 6.1879985719513435 0.9925903162540195 -0.1934847688581442 1.2223741766535143
Ni 3.9625489755832946 8.51032345069232 4.116404552965034 -0.9211866677000522 -1.0204592747501458 -0.831819749799445
Ni 6.215791855622893 1.5615728312457908 7.817878070824423 -2.746070330955826 -1.8523798117935129 -0.31465520442259354
Ni 2.3294495174181833 5.593948310188354 7.314119316241369 0.24718354393318076 -0.6896817108443929 -2.2777989117352515
Ni 3.914347670254354 1.741328203037418 4.297818012294624 0.6547357908968272 -0.22949255441132094 0.29274863415748936
Ni 7.069506098901416 3.816917512389849 12.055142726232654 1.2779619412211476 -0.9251546512088648 1.811322122521255
Ni 6.8622778513399405 2.303387183722884 0.1739170353903506 0.24655928008562053 -0.0722323151028498 1.1404202633875262
Ni 4.615966244275938 3.43008335444862 2.9994028230668905 -0.7376698086878973 1.6609059027178106 1.4453638969493108
Ni 0.19434747625952215 9.042555538370944 6.429021913004881 -0.28807925370627807 -1.2680783635588484 -0.6156444813223203
Ni 8.517796521285954 1.1975221972769035 5.094006426411 -2.5100836841797287 1.7435560707198747 0.10675220325659035
Ni 8.532023379428585 4.050292165690801 8.56309734109074 0.9925190966964519 0.620564287221441 -0.35411726707295793
Ni 0.15182009977879865 6.4332115032064365 7.256027401981754 -2.662347755825189 1.6289267787080526 -2.7169577298605856
Ni 0.7976223095365288 4.184471148199503 2.9195035546812265 -1.292721101808193 0.8991214603698968 1.3727083782661131
Ni 7.046526406825991 3.113916420308443 2.573670398551971 -0.5309163477453049 1.429446711498422 0.031849026189796764
Ni 5.361377011976218 8.284328454602582 11.052603216215731 -1.0033503829840011 -0.5915488738256974 -1.409963663073146
Ni 6.348644368101224 1.0940014868785863 3.7492432533615467 -0.42683269245981326 1.4028059689824421 -1.0386727124343789
Ni 3.4977146433210087 8.529006127176407 1.4982450969015106 0.07636587765524913 0.44838162227518263 0.97297665578815
Ni 2.9847911017886872 2.7812340001563354 6.621783230030903 0.9496845180294289 -0.3963710335358464 0.7746702971716466
Ni 4.218744518209557 8.245608607589315 8.850605983638156 0.24594890019513127 0.09429546555047631 0.5916458044148778
Ni 5.9251174335452514 8.82632224074414 5.274572626362036 0.6415686573872499 -0.5228590246584672 0.7968491472615309
Ni 7.605474721876856 5.693461586480835 3.0310942471868443 -0.22408912400756245 -1.756745315716639 3.368629794230424
Ni 1.284564787016257 1.801542469345625 0.527454927301643 -0.08413240897454544 -0.008997832623236118 -0.27479256389970097
P 0.07852048686113816 9.302907976514916 10.673204763515168 0.2953685882788397 -0.6341805924532948 0.12521426661651983
P 8.587492245909836 3.3720082545978403 4.747394202672357 -0.2013312614857565 0.39174896138280274 -2.7775648020196813
P 1.7886981292628166 3.953459853473787 1.068134387152546 0.7627447493786541 0.5536310157340013 -0.3008666352789334
P 7.967927987006355 7.765828134139761 5.28396534196441 0.6165245699344285 -1.596820127981495 2.6900110260684125
P 2.2564656417331035 0.46032059762373073 3.171423566794106 0.8498236425760332 -2.044436332845563 -0.3603244243249343
P 8.960239665782066 2.8992431261680602 13.039444207465813 0.14866786965376977 -1.0113544842354 -0.7353792128815076
P 7.546820459055071 6.278051875006108 8.317220240686638 0.564311378265983 -0.7310574455777022 0.6662939280480719
P 2.7452324825715024 0.04799205935231847 13.26015107197673 -0.49697547202348596 0.7804583646083333 -0.17136042615527905
Ni 9.039921280986688 8.467110419984632 8.694157250760423 -0.41937777884366484 0.6575583479472868 0.016787503870983992
Ni 8.690060139807464 1.8388050675931333 9.497332051748023 1.982688976434437 -1.5408497832634624 -0.7542536811885074
Ni 3.9898256832500594 7.723558578594518 12.775861534557741 0.012396316781823812 0.11721865000555297 1.5893616148209209
Ni 1.0131428630554649 6.866173189386873 3.1735291044338627 -1.070328391666447 0.36657914698539446 0.4333537814077827
Ni 5.820737320028666 8.240386799512013 2.462503802802542 -2.4279672771939476 -0.12307305190380094 0.37947014401544965
Ni 6.347887719703619 7.799298149061 7.448173124817627 0.3181081959682005 0.502611844373657 0.15811281711675348
Ni 2.158942070486178 0.3549418950490715 9.745574378995011 0.26841237140497004 0.3460745992741395 0.30518968813431957
Ni 2.3437791302814768 2.4369776619223362 2.650548678150158 0.6648181148334937 1.7395700894889332 -1.2443846194863344
Ni 6.51892762291542 9.328073541738979 9.384128110128005 1.123511917667962 -0.035103785681668574 0.3992033607783189
Ni 8.783809810404605 4.761887288954886 0.595918529411398 -0.16218287342106907 -1.2090358076733951 0.5673277964948036
Ni 1.570830097443655 6.451529867499082 0.7838176798824381 0.5689396210666137 -2.2386245555286353 0.8673919904770997
Ni 5.491333709599515 5.4211148700340805 2.518080094673575 -1.1730282792305347 0.22124034170485768 -0.6792661719380237
Ni 1.284340594898448 1.548522981721657 7.628055538809346 -0.8866441538384923 -0.18606405091404085 0.27390759019158634
Ni 0.9666603639630607 5.894776766935096 9.05340176620378 -0.3774389725180339 -0.17073410542518982 4.236093004265092
Ni 5.775273026804645 0.059764947938764856 0.3924613800982359 0.09041618510072816 -0.12762339027864472 0.3613199554689842
Ni 8.869796828922606 0.2130516378215642 13.303395863234442 -1.8018393798418 0.1880224601919923 -0.786900263578935
Ni 2.9648006379507157 5.704054664047311 3.0281825520568 0.8574446494564006 -0.10687741598054497 -0.6320468339397438
Ni 6.094849549403167 3.6418514923957273 5.042272226958919 -0.13420130060647856 0.3240998947752612 -0.9720317753763775
Ni 0.9721157054964136 1.6309789743841678 11.720493954380597 0.8889182945846498 -1.6618063030448929 0.11017228468173283
Ni 7.724464688403996 2.921531559213574 6.636111908760373 0.41824932166617645 -0.34833588450449043 0.07526158884747683
Ni 7.715515686368119 8.441823417363421 3.370979773257391 0.21422560094992138 -2.2315316532375955 1.9147722579878055
Ni 4.154195870957042 3.875739919299992 0.6154204412593106 -0.015266696351083384 0.20563040308174263 0.033679394530316195
Ni 8.006582444651928 7.103844858279165 10.301450327898069 0.4066623881595255 0.586985422824731 1.40888020020098
Ni 5.439199700870676 6.417546078974531 4.801220861890656 -0.34969008453953965 1.0463119741471916 -2.2445193237465153
P 4.089647223704527 6.515760909251368 1.1452854338274008 -0.8430223033834836 -0.8919961621790251 0.10976527905130128
P 3.3550724083650167 2.3035740104877247 10.950405239312488 -1.25077046840802 -0.3140543376138011 1.2681806934646676
P 2.4512232027414513 7.1767072965670975 5.452213119175665 -1.2965918976175088 0.22808461832020072 -0.866712705021888
P 3.383432711267859 0.5401937102623167 7.673570275259875 0.07438252867663318 0.46229514703248126 1.9800741645194093
P 8.575619405004199 6.67166784451106 1.71893888353889 2.672599258349868 2.2480386497536835 -2.488114893218121
P 1.5439363846448142 3.590707665520543 8.423328501778002 -0.004773253018927263 0.8513321088007595 0.0003383571760252237
P 6.8392794765880325 8.378227586611596 12.420445099525976 1.678756043525354 -0.4210032302622298 1.4707064894791577
P 4.57961909717615 5.011917548341401 6.033887976035596 -0.927518523455351 -0.9734541096452008 1.5446961535927461
