# total energy = -340897.4064439982 ev
CRYSTAL
PRIMVEC
9.02906797283041 0.00000000000000 0.00000000000000

0.00000000000000 9.02906797283041 0.00000000000000

0.00000000000000 0.00000000000000 13.21495365042159

PRIMCOORD
 96 1
Ni 6.428145732205482 1.994521148924544 11.414733923069608 0.16481876838201936 -0.04149760502315434 0.09782893262503152
Ni 4.344968163356582 0.3232993278359741 5.90123008325757 0.47178097503572936 -0.6533903326125263 -0.3479725876278007
Ni 2.5888505292179307 1.522291856892391 4.5516399211221925 0.17421717887778385 0.1416184190061561 1.7729126695051207
Ni 3.5715111005212576 4.3446250587678135 4.869618419111805 -0.6014180533102932 -0.30694523737284557 0.286177665808191
Ni 5.116646499771182 4.363902119215771 2.7641056444408387 0.3641227150251019 0.3426840855353518 -0.22452595443466491
Ni 7.231091731538713 6.258706239762214 2.6328022270392752 -0.07758020967832446 -0.3085033258885848 -0.22960414028852066
Ni 5.159444282686086 4.564880146621436 11.712797005494789 0.33836694621723656 0.3454066266728374 -0.6746430713437156
Ni 5.754541133770141 7.784131183294155 12.284924810174365 -0.1326339561193587 -0.017791519655466135 0.5449008349498552
Ni 1.9197965811178463 6.480089961131525 0.4187356750157728 -0.23958541987094867 0.2843033316036136 -0.1964068276009456
Ni 2.674852403113387 1.6085555737634871 0.294450552268166 0.3411054281943222 -0.19842797179603244 0.19689893674601572
Ni 0.3911121439925961 -0.031738077367970415 4.539707104687523 0.23247451985778028 -0.4805633492140498 1.212044512592732
Ni 8.593108600135226 2.404269289528187 1.344714465347603 0.6163556484567321 0.19295563582755157 -0.005715819437854672
Ni 6.76605860680259 0.5631122801562584 4.839845066967945 0.1367207245942226 0.6490924765681207 -0.3896463132175031
Ni 0.6735666763492132 7.384116378129809 2.4416740100517256 0.7182078433085438 -0.26805318829333835 0.2426463181844595
Ni 7.642681802039959 4.031090668109575 3.8026823317386187 -0.20453485602471871 -0.8589562010049206 -0.5783012647871717
Ni 7.53196736868499 3.997529621887065 12.642548140489456 0.29627644480508974 -0.5917872150887485 -0.4506709325299916
Ni 7.7415500980142635 8.532189477492429 6.918292307025891 0.21162570143322906 1.3169056694741965 0.993377073821373
Ni 6.902424622702124 0.7396982800208657 0.4573033395138769 -0.47870572718002075 -0.26569317270159404 -0.8142478023539526
Ni 1.8518799306777811 6.543419844963832 9.314282843989801 -0.04518379562548992 -0.2704206600842504 -0.28704232780133143
Ni -0.07841384504277997 4.873249910311884 1.333851593485805 0.16490490033792246 0.032723715485266223 0.6754187731674755
Ni 6.22786294304548 1.972002653019529 6.83884463368274 0.7975389742397039 -0.3636491178227931 1.0280836240646232
Ni 3.6695938675686426 4.414997615738017 0.754245914584683 -0.8654148121460709 -0.02793426451642286 -1.093359819564614
Ni 5.9145994244310085 5.503090615542891 4.73424379489245 -0.2281427252516458 1.3931810442981682 0.6394217862475762
Ni 5.300360948920877 2.7909933064117864 9.242327491377196 0.40770137094700104 -0.1609978519740324 -0.4836877537756444
P 0.13915328922987957 5.5992231038751665 12.4878142913022 0.7105462129982278 0.28749535617835004 -0.5745076020726945
P 3.959887436871825 6.245280015459584 12.65971420480967 0.5054346585344328 -1.0725092013678497 -0.1779553057639774
P 2.284146567186439 8.513318725110118 1.3149564626195565 0.5847272229181736 0.3852849509250139 -0.23228117290005157
P 6.141183889040612 7.6383478493397154 5.712295929824518 -0.690457669778469 -0.4821615469391051 0.6581628143005052
P 4.7407122192975635 1.0860253432041334 12.652803356066407 0.2881242480116005 -0.2893933445320112 -0.3261086976751738
P 4.063134830887 6.054757648943256 8.199257939780162 -0.11825249058670602 0.48879807841901624 0.455960463063705
P 4.68322414254246 1.1174284421446474 3.7648613711744945 0.11224999314636798 -0.1346245041868262 -0.1359409090054046
P 0.14902386650468405 5.576208009223248 3.494218665739666 0.8967370192981202 0.5093805305560583 1.0577644389585075
Ni 1.3527711028359932 1.0629651032115879 2.632049202757608 -0.06223689445303475 0.8191709506871828 -1.2731850886577942
Ni 1.8977295386191066 6.556114714748295 4.789601011569935 -0.5140152011145922 -0.4868862061082841 -0.3819818546937099
Ni 6.083623579740503 5.565400214677016 9.343659820042951 -1.0593644364557755 0.7465599120886754 -1.4218771266812802
Ni 8.546726277174495 2.3053648772813813 10.122020569777238 0.5356294369502582 0.4045795374885677 -0.3748413869941867
Ni 2.3844685431289494 5.119788615478859 7.101610380084877 -0.7207501501144232 0.110962384683196 -0.09227946356171204
Ni 0.6811032395135741 -0.03202339592073644 8.94101304152002 -0.27452722605345625 -0.04824546526994917 0.27264209321560146
Ni 1.3579447588719087 1.0155354083482986 11.262246506031978 0.5171316352563868 0.9877507287735313 0.31352803279668584
Ni 4.139611037910046 7.031720878259388 1.4869863947080326 -0.0983989461958886 -0.0636671991416581 0.6274867253728871
Ni 5.500399953241489 7.779535387618272 7.879628025230395 0.12869039809057836 0.45668988503056185 0.7221837972371562
Ni 5.542330945616346 2.8990261065334804 4.771140178880523 -0.5920456109564578 -0.05597857224814876 -0.35115201379704686
Ni 0.7525141393182107 7.363963498073677 6.910192330010499 0.35598105975457406 -0.4229948067709618 0.06259247802024058
Ni 5.180184052170376 4.442861319973332 7.16712981293762 0.12582053274195107 0.3438032867414595 -0.061940446258538485
Ni 8.25450951636058 7.061372337983554 9.145223475314616 0.1126757678298769 0.25748672563140174 0.2305953005571964
Ni 4.557367961941014 0.40454197992247554 10.540776108742888 0.23981887603799343 -0.6802647884058671 -1.292405113229671
Ni 8.044881641690678 7.099863255402591 4.942538076200214 0.7409402519090531 -0.6343392295183462 -0.9103576954053483
Ni 7.251795384750501 6.019652632071284 7.101465012088056 0.09119471513796552 0.0558081081085555 -0.27089117196276574
Ni 2.267271238859866 5.256615113852796 2.477393906463045 -0.4539274917940763 0.0461710992394237 1.2763889403070727
Ni 2.385849990552152 5.225248131184783 11.52741759618275 -0.29678912277545016 -0.7598959670759494 -0.141762143672872
Ni 1.0009895795981065 3.459695120854976 3.9155375571461466 0.4832722635047806 -0.5712343306380614 -1.19390537978986
Ni 3.4207888663021655 2.772564978367626 2.76315398066041 0.14076969785261564 -0.15331873816221983 -0.6841690085562797
Ni 1.1651922125285807 3.2582927272474125 8.207014812206786 -0.9748113950040436 0.8647769214517559 0.22017693343734981
Ni 3.7192266550545554 2.6758456006071927 7.060947971781656 -0.5722123782806146 0.2981726333865381 -1.1228596287959436
Ni 3.9660904066740486 6.639814176271747 6.090058596593552 0.8891805471071009 0.9216019008605998 -0.7471209267984682
Ni 0.9569367562137567 7.533159205677557 11.577819660272956 -0.07427299968196242 -0.3373927552294254 -0.296490874808741
P 0.29043532567275293 5.4361671625966315 8.059099715267914 0.08778388968420367 0.33293266257554277 -0.14648346040794125
P 8.430648577352974 1.4831869628408194 7.90674502553173 0.12294989606237536 0.2964055141837863 -0.41609088056227694
P 1.7716927766551513 3.173961230955175 10.38951754787714 0.8004142389049699 -0.12411871955949591 0.582410401859539
P 4.003064440648001 6.1006343440889585 3.666990787228059 -0.6292967819984323 0.6893405254548903 -0.05299275014694744
P 6.958016595150872 3.9259471697880435 10.303845234968264 0.22475426839538715 -0.43715849986585353 0.7950522032621081
P 6.356509105697707 7.762479477929189 10.118108274558457 -0.4196490302271805 -0.34289157356046757 -0.10779607114007243
P 2.2291595423021 8.612105759471293 5.66235705692915 0.304758771244488 -0.9936069304439918 0.41374937691329383
P 6.8756263485056195 3.8996725815428177 1.619691123482675 1.0005293685954382 0.6803141535865639 -0.042438885890501106
Ni 5.423345885858412 2.9091567209702998 0.38073774471638827 -0.6045892519494233 -0.3265732960164182 -0.07524821911103816
Ni 1.528467739490238 1.2432394774054651 6.948224570768761 -0.4551703630622419 -0.4536205020766188 -0.844076712789927
Ni 6.801362263173322 0.7521448504318774 9.240953267208493 -0.5633580132137781 -0.6907407482365264 -0.9156693374262488
Ni 2.7602403003763087 1.640915753925305 8.969438353792741 0.39998729013219503 -1.0180236687254596 1.9672037363146444
Ni 6.498003632292531 1.9600481668213574 2.540746362965666 -0.6251786460650007 -0.23546599838593643 1.0155862629285606
Ni 4.0550267277102945 6.583346384214825 10.451667332505444 0.7422422585499282 1.3999790410566084 -0.38643963335474735
Ni 8.279781878043874 7.301653898939552 0.37056288784575414 -1.0780792392564593 -0.7665209285916347 -0.25699435937601545
Ni 7.682256207634058 3.73230074570029 8.065892283218734 0.17525719010652396 -0.3544427687331767 0.7649690107234827
Ni 3.35757636035549 8.341802546997982 12.36977818660426 -1.1446903515177898 0.36656809124180095 0.7457160760311415
Ni 9.275290813289796 4.862315708811895 10.333208667419228 -0.3791878368883405 -0.7506718773745201 -0.45284454314254263
Ni 8.60011515700062 2.5008171149942355 5.797955602038018 -0.20172386893848485 -1.1799646013390517 0.21754026714545116
Ni 3.93041655851017 2.648153448666262 11.251608457966507 -1.6397392959425243 -0.063633003469613 0.5297310691879522
Ni 1.0938625743370738 3.477482385062226 12.726965412928886 -0.5674751207059453 -0.3661168626369953 -1.6777175749585105
Ni 3.003654947971858 8.207305548200427 7.9360687300829404 0.23579252848741972 0.5345459740780923 -0.16752022647358245
Ni 5.524823582520987 7.908452422314264 3.5858907944179403 -0.7152040234852134 -0.08001015927605576 -0.24083780422081102
Ni 2.970879430676267 8.269272042745785 3.415233280684541 0.48183578816857014 0.17576601142214243 0.22177230294892777
Ni 3.505237740480035 4.303624060409884 9.369785428664105 -0.5281092173138131 0.031242245843733293 -0.0038363430269546827
Ni 7.353742592955602 6.068770762674044 11.278263169979816 0.03498911448067523 0.284762016407587 0.93946155474984
Ni 0.42666951717765605 9.27836069645247 0.4086935454465837 0.8605330585737373 -0.3403994032662331 0.22900018815593465
Ni 4.610829074312143 0.43021432932373016 1.6130168363243003 -0.36477860344154595 0.2457712369666864 -0.06865205395075918
Ni 5.883340790580501 5.568804173360332 0.5939420332708026 0.645963701131152 0.9845329931671819 -0.29624173491241235
Ni 7.930420145063623 8.751514571329125 11.336408562894457 0.04445925875463956 -0.5114636383373321 -0.40911007836906965
Ni 9.124234503550062 4.856654483097202 5.729871913837631 0.4579646379779274 0.9290748121988773 0.6901110850723277
Ni 7.927232884015319 8.813146990353836 2.562352922990005 -0.5971883314996618 0.37416647241434914 -0.012957331491616396
P 8.409276773099899 1.6312456219628866 3.6269495788118724 0.10621278581335257 1.2549071162842131 0.17153500405993038
P 1.7417433576828438 3.291926006014927 1.498694387346378 0.15479532270774632 -0.3819882824516131 0.9947682977419449
P 4.649003974346788 0.9395648291402808 8.005645826151286 0.555865818601791 -0.2222289308703721 1.1512065553697528
P 8.493048467168354 1.5361153601925426 12.257331977982817 -0.6273250029840423 1.7941502387276584 0.5878855660414972
P 6.3021721737184055 7.855415676145035 1.383698369886293 0.032654038589595376 -0.7361065779658356 -0.1165794737596573
P 1.8433294031629257 3.3062731952663578 5.953085827315983 0.1731195749382309 -0.7298102034341624 -0.2713845666594165
P 6.998611285443153 4.09000533762851 6.013200459988797 -0.2688445738463821 -0.5185123176539974 -0.4846380335040556
P 2.4779103691598237 8.508722929434235 10.211723458697339 0.2468439012055749 -0.42623568230576275 -0.3185028603034579
