# total energy = -381171.4641793473 ev
CRYSTAL
PRIMVEC
9.18529061935700 0.00000000000000 0.00000000000000

0.00000000000000 9.18529061935700 0.00000000000000

0.00000000000000 0.00000000000000 13.44360128483261

PRIMCOORD
 96 1
Ni 3.5379443694855834 4.245772060942528 5.604570494035905 -1.4976063991937951 0.21382707995992206 0.21505246772659092
Ni 3.3236147948310073 2.212084389066901 6.927608753132315 0.6002325176426244 -1.4566844641684524 -0.21044942173694078
Ni 0.9991391879928964 5.29945350548376 9.522102515460512 -0.009181152278635802 -1.3258513087032586 -1.1097747705875274
Ni 8.923363011216546 5.200638147459679 1.3942362033845752 -1.1878967117019348 -0.34658933412702886 -0.8755411019467954
Ni 6.0380151798323745 0.540761030421341 7.891393756979953 0.33794245708530835 -0.5177720970538632 -0.712575841833747
Ni 5.070491762644358 8.063950466304364 4.0773505695194405 -1.5589984291480312 0.7162823441510567 0.22010802787262737
Ni 1.8342107123841793 3.032652339344034 10.310489799550865 -1.0511659598053833 0.3004884260039083 -1.343907394874021
Ni 4.62720963044114 8.051789141334678 9.957460497322831 0.48735414688363804 -0.5387715821236657 -0.4300103188568465
Ni 8.94829189034625 4.331562676665239 5.7061901213298105 0.3928313958137041 2.7552090600323 0.42509385539183564
Ni 1.7105215869749681 5.232446809370573 4.24980440358731 -0.18706755247789075 -0.37564537095272077 0.08040816604542281
Ni 7.099256118671229 0.983808937710112 3.7069390230522576 -0.31710186619087327 -0.2698516749546578 -0.7504481913994883
Ni 8.133676008483285 7.897347662452273 11.382374653325424 -1.0365489812231568 0.5037374733376678 -0.25344520857217645
Ni 7.699845540474785 8.634164131555993 1.7526150189527485 -0.5475611553908377 1.084968253066809 -1.002854674294505
Ni 3.3508583672328873 3.4845502742825727 1.0448828545197353 -3.8625489959260904 1.2396219079903683 -2.4988024548389545
Ni 2.16871144608589 7.515634534230783 4.382318756361231 -0.17187798922164593 0.12031734353553473 -0.36411294483308904
Ni 1.4410527118724858 7.872464709776381 7.066199175745697 -0.7921437713660615 1.497090378789325 -0.6601412781831146
Ni 6.145464711173303 1.8104116240182748 5.752691574344563 -0.561344325217859 -0.26666427836561174 -0.8936365259959255
Ni 4.014513995412474 4.315984423531865 10.079837963211144 -0.9875715228831895 -0.18983483081038274 -1.66076912002963
Ni 6.505941447151656 7.681181029645175 5.997916793008231 -0.956156756017334 -0.18786665134041838 0.4757469016620129
Ni 5.830877687844915 5.19700995760845 8.89717666578144 -1.1020084963785473 0.5860467130605456 0.11810156683113854
Ni 1.842587697559673 5.780588220919665 6.58196075056111 -1.0127770756145396 -1.1512564347710819 -0.7390396924522304
Ni 2.5440224266458458 6.729566536057987 10.692811912549917 0.13312709370569328 -0.12977128985958297 0.9830214416186618
Ni 6.505537294358101 1.351670647461597 0.9867950757370343 -0.7054623707174172 -1.8110202750101196 0.9481783657975476
Ni 7.293864874058498 5.760509175312614 7.1718392048063935 3.3142918429094923 1.0112647527350713 0.433236539103628
P 5.14570092340855 3.088673427705149 0.04635816247885699 0.8193416719370921 -1.1086185454958972 -1.401398290001638
Ni 8.202786136181109 9.306352894854037 5.947382078819619 -1.9563894193079596 0.04644954971179097 0.30708510538481953
P 3.7364476881561957 0.23702183548358732 11.401773987416043 -0.5791309597773188 -0.21171286183039667 0.12159723868922283
Ni 8.821709398346819 2.429665556651439 4.7211907699368645 -4.9149912513407354 -2.035526689060759 -1.6299395362432831
P 3.65829923434797 4.695989087671511 7.827805826088606 -0.35280471890912146 -1.3966265796446076 -0.07915243926145078
P 8.676838992439045 4.346470403572944 8.038950860435788 0.9250435795522972 -0.20830332192821546 0.5638470370350548
P 4.652083397826269 1.192838599594667 4.082095690727401 0.2543414951342007 -0.18188343717378996 0.2591358311990505
Ni 1.9856118600241632 5.326054107532259 1.4472169605032688 1.3185455190704645 1.331470454662249 -0.35240851191196726
Ni 1.9986825287793473 0.7945754144771191 10.280590759589517 0.9386282602152672 -1.448383657612241 -1.195234897234561
Ni 0.9323804947302983 1.0513391953967688 6.365316482634357 1.5744286476601723 0.015543604161553875 1.1068336856813326
Ni 7.198190885475225 3.329089228125518 0.65913554659531 1.055010273252138 3.0325570433640032 -1.625314635876762
Ni 0.75740621687717 7.688272074113905 9.55911280753027 -0.4882663742852623 0.15670616657721398 0.01473499221732946
Ni 0.4244954570064656 0.41560960672272357 4.097421348364804 0.4682284817977807 -1.4842587742422952 -1.3167801996399258
Ni 7.295610079303391 7.692644272516904 3.6548850617715103 1.0908699632632246 0.06638074141807923 1.3789569302789866
Ni 0.6106923231133422 7.18232788832821 2.7318202889326444 -0.8322313834155667 -0.7393469392800041 0.24760391930005096
Ni 5.932301668445577 5.842111298447579 3.99787208560879 -1.2427154593140275 -1.1676752424487373 0.9691727086610277
Ni 4.370774682930792 1.7787223708872948 1.8846315289673354 1.955701906322632 -1.3547029428276283 1.3993622334082159
Ni 0.7982623901892278 3.7469740313701387 2.7305839487959975 -0.24132168583576505 -1.980587870931034 1.7151029575855044
Ni 1.5734678635061699 3.588013389432532 7.05682834210969 -1.1763151775119225 0.19564732372710175 2.994391330927559
Ni 4.900775145223743 6.118166027026848 0.8377380142996664 -0.7948668267241794 0.38189572273780675 0.23216907280221952
Ni 7.90023184375173 2.6896460263961526 9.368778886463915 -0.7351524415826822 1.1346609923062458 -0.13333715283397035
Ni 1.2060654182928152 8.515187060307996 11.927660357976425 -0.1499665338605353 -2.536004774920865 0.6475914665425622
Ni 3.2483780781945266 0.5004357669153616 0.25942108553727083 0.02705494723526308 -0.9244421985228725 0.18380122302179314
Ni 1.4680666520053012 1.374982915417083 12.54680590417859 0.16162520114538617 2.8493803413000864 0.6926845022264586
Ni 6.981252688244069 2.8469349454149655 11.785938669742071 -1.0055227080449716 -0.7348014860011668 -0.2815185697696248
Ni 7.934226604864124 2.3686017436616553 7.089523384579175 0.5583333063056771 0.27022191380988303 -0.22051297662052993
Ni 5.076397904604711 3.465812281126863 4.156371625950114 2.544283469989889 -0.7621639371745197 0.606068407598111
Ni 8.758110445106556 1.8827825299368235 1.6081506028966823 -0.21338202200270348 -0.2919248527046134 1.6846379562274278
Ni 7.376826420226327 3.494957208716602 2.84356394370509 0.16302799503018373 0.737675208004536 2.416102921656194
Ni 8.381623747328987 0.877424900097645 12.996118179767457 -0.6819591453891546 -1.04264943769394 -0.391371523438726
Ni 4.369635706876228 1.4878609535987104 9.260288661679583 -0.4315195564125213 0.20049205341391277 1.080413800926907
Ni 7.325609238934054 5.470474434192664 12.699861322684917 0.002215262483763927 -0.3193464392506758 0.1879396706701989
P 1.557108860657974 1.6356430966782292 8.315700915525786 1.7162072463932765 1.096178005739699 0.2769155237799747
Ni 8.885308351587081 7.2089009345044195 13.861965939387916 0.6297966044529864 0.644663751372806 -1.894160752385041
P 8.656567055725981 7.5831831624989645 7.767753313611784 0.4682536786087613 0.10650949111816495 -1.8827841351169834
Ni -0.1480834206165319 1.4875578390035447 10.795373032146987 0.05797092008782919 -0.8400434232608177 1.5993320957700716
P 1.978355480321707 6.508017322864004 12.949065609306947 -0.5412691517345388 0.17278995951295403 0.45380150773917327
P 4.959322188544574 7.5422259509885174 7.693866834717406 1.1292189953550682 0.9077122873627013 0.820154911867007
P 1.9062325772537487 1.969565157061896 1.6183949576842132 -0.3486827263209479 -0.9559976047316504 0.25059514071789096
Ni 8.997506678252275 0.5647474987188024 8.693587451615576 -1.371975870975463 -1.0318960558321777 -1.018256353561556
Ni 3.7145866961412004 2.469428680362747 11.61775875146604 1.0302739468477224 -0.25904815658125063 1.2316661434784013
Ni 5.035367210768164 8.588981686294748 1.7891954394148146 1.2625702892564254 0.2720003458665445 -0.8119852315720208
Ni 2.9849071979600237 3.0173588302242997 3.5791036573928072 0.90865742488479 -0.3820031948499486 -3.2202493739100864
Ni 0.798616023883588 3.425075516594719 13.868150395658377 0.6466990366352798 -0.02602239220569067 -1.9841575905601634
Ni 2.8714504864603523 6.565783616470013 8.485426718237163 1.0487964311319422 0.8300266624547641 0.0674541769879161
Ni 0.76499326704708 -0.03972546401918141 1.605112108712413 1.5461922785222983 0.12378473325884488 -1.3374043036481806
Ni 2.8023403587625277 0.3595637180765493 2.900067259831242 -0.22058162507493626 0.29189322813572954 1.0244447417604552
Ni 4.966348935977965 4.831077158917112 12.10167477294486 0.19055705368838796 0.15214708645162184 0.5705933546199528
Ni -0.19028340196715857 7.169973672252509 5.312239430225304 0.25979094828454613 -1.0350307448064175 0.03394858903130282
Ni 3.1060244419557064 0.0601333430355326 5.3447057589548 0.40452323032933557 2.3214099635569827 0.23535569806031725
Ni 1.5836176097988461 2.7432421979959405 5.028188906037189 1.9312697414221969 0.17897089151268533 0.5887713110805601
Ni 5.422178175362899 3.0333044949881787 7.610772101833518 0.4341032579792975 0.6869573699346944 0.9246394021353431
Ni 3.263864478420275 -0.08755235449097862 7.729385435567315 0.6754611963696368 0.049848805201327055 0.8668872829265393
Ni 6.304517206018535 7.674448211516188 13.126547471538265 0.8864860309940733 -0.1281556086330309 0.24219586091060225
Ni 2.3768776906387603 4.602078674914658 11.868306846126636 -0.15470276299394 0.3184208421126129 1.3555362373622009
Ni 7.0342793718165755 7.688538447546021 9.003636941307237 -1.3977460379610314 -0.6922389300486078 0.6386278295913711
Ni 3.6687153540727615 7.052879585610847 6.104564448465585 1.009530543652784 0.2382906123189251 -0.4658039315166881
Ni 6.945898504098811 6.072377352575272 1.9654409615094872 -0.4630536224650606 0.5486729003977777 -1.23532225217375
Ni 5.460508393715241 0.5946079604589481 12.542624759823454 0.42346043355347074 0.7680134539767611 -0.29613940500659325
Ni 9.090057667976263 3.7583454213342407 11.629010732650228 0.5358163561500836 -1.1998204597227142 0.3024280662287824
Ni 0.19801098708573642 5.909568073808135 11.600510612472025 1.7234042783623478 2.1073699962553065 1.2161883595577765
Ni 5.138003649749489 4.1473424851304745 1.9751608361944737 2.2072858933163535 1.4977478098676658 1.2126716046537696
Ni 3.021951475605601 7.508010742897822 1.8744009521159484 -0.7783567448842982 -0.40473971721551594 -1.1389251668992386
Ni 5.304128818481925 5.314572494079005 6.537179702506192 -0.8041855330219441 0.5119225802516215 -0.8628452516466817
P 6.877201714485303 4.262424993095127 5.365059444755652 -1.4649119942845674 -1.2262799394658235 -0.2395635654940777
Ni 3.941794048444947 7.381722180202794 12.485489495692834 0.24696885681921338 0.8544984223438832 0.1672461468765894
P 8.551377105912652 5.5034863691934595 3.539498520682616 0.13984718603834626 0.2644186768645446 0.5013352916540785
Ni 7.721375862022326 5.148511622381907 10.123233869419062 0.5291852239868112 -0.06848621779685625 0.3592239921719039
P 6.123300604563142 6.558619089675183 11.05794007977045 0.1589751651170488 0.41433764531659617 0.24768362349805087
P 5.862925167315637 2.9847051215632465 9.941784880107374 -1.3260605965005872 0.23640265126759286 -0.434560143011058
P 3.5020941796391445 6.007207714614604 3.276985666274653 1.060261237238432 -0.3030402458914846 0.22044484238675582
Ni 6.78477013354123 0.5152066329907034 10.2277578856521 -0.17094005078840882 1.0064189946069957 0.8383125566126401
