# total energy = -340861.7939385686 ev
CRYSTAL
PRIMVEC
9.35615316939797 0.00000000000000 0.00000000000000
0.00000000000000 9.35615316939797 0.00000000000000
0.00000000000000 0.00000000000000 13.69367589787123
PRIMCOORD
 96 1
Ni 5.506339351778486 7.14476081194404 6.545083793513876 1.1817335203140165 0.3679266621522244 0.5154107959105383
Ni 8.633811288072962 9.145789341155869 12.61577787897254 -3.559665587327444 1.5323260620631676 0.8330973309602877
Ni 2.6068487977590262 8.355110199912408 0.6077270525463635 0.7135088951709777 -0.03632634523486002 -0.5279981456572455
Ni 1.8006665108501303 6.4118746283200165 4.231646763414356 0.4805222115634692 -0.10908162272071537 -0.5606105323756281
Ni 6.375104946687447 9.228984254406964 4.775025937488415 0.10149918238776715 0.5743641345162948 0.18817826904356624
Ni 7.515807131074939 5.204996373146987 11.976255811390056 -0.31002207652595637 -0.6183068586458319 0.5936548644251066
Ni 1.2640724189948858 8.704721572320606 12.312791959858936 3.0000657556045174 -1.0222338501520651 -0.06140874212478457
Ni 8.579115217125379 7.327271290215422 2.078905405048177 -0.20627343598238024 0.6572739839376486 -0.15953206606178333
Ni 4.156994953547153 4.605210823341011 1.4324682047189656 0.3661232903948985 0.5801401177681235 1.064751926019934
Ni 4.204776827363319 7.800879759487853 2.288924844626449 -1.149459233661343 -0.7133070635728167 0.36415511092493413
Ni 6.6964981613847465 5.432781276207173 5.234489774523666 0.10804109727134296 -0.49428995477152293 0.6752225979962695
Ni 6.156648128255167 1.335600209346283 6.765209749656907 1.6866678421732628 -0.2213925510120058 0.6304180400870691
Ni 9.196219006295701 6.6331570049846205 8.76352780131938 -1.585319069320431 -0.08387812687189425 -0.7883724772490873
Ni 0.021271214043675872 3.0349676507216485 13.296764545806736 0.12183480862132565 -0.25165417811002466 1.4754514603633107
Ni 4.472428298727927 4.821487658103981 9.24465487521266 0.3716532190741922 -1.1560392008717058 0.6513625035492201
Ni 1.7745067068184093 4.960847558337345 9.058968918583496 0.750989665725255 1.7394664740315333 -1.0862671743838905
Ni 8.154738825397624 1.0290084288328831 8.332943602018291 0.4311534313223543 0.2880373447247491 0.11087676694792518
Ni 8.777166265674545 8.799396485409657 4.140214692985317 -0.4165451944908762 0.9275072106014414 0.1258891811963574
Ni 2.015652196487071 6.106545928473383 6.496909896883357 1.5648780278572596 -0.5730299890859034 1.7570903577608836
Ni 0.7059675955769338 8.5320724794031 7.870179849789196 -0.40988449464124893 -1.227054612848319 -2.1892758298921775
Ni 1.2760389387933733 1.1857707738083787 1.3074101200946466 0.49667593850519626 1.1265216510285632 -1.1970462394116868
Ni 3.965156390647866 3.375737458462472 13.19890947628336 1.2623545737011939 -2.1081948061494464 -1.179177586661382
Ni 4.598408900046641 1.8526305850962599 5.041778282541346 0.8060920060160376 0.042968533141726 -3.2101608793258327
Ni 1.641471566071971 0.15211982181364297 5.6793973085859015 0.9450750442818757 -1.2115318346223716 -0.5371744128398749
P 3.4735653951418977 9.235037685454362 12.486577825376532 1.1071972396683385 -0.39700429624447114 0.29006208846426174
P 3.645419215046995 3.2226614378033207 10.448342682182966 0.24696422883352306 0.9090065806940926 2.1323744887194436
P 0.4506091737535556 8.72819616041631 0.8501309448052492 -1.631826725963667 -1.529090328734689 -1.3255574316119236
P 6.3643640829433785 1.7330028117237333 12.88744688247278 0.5607038634203827 -1.7348513438570252 0.507032856259488
P 9.147230188731292 2.7711615582758666 1.8671597552253227 -0.3686913082323908 0.7636271519836074 0.25443842572338116
P 0.46212192012731557 4.929663500097814 12.291306489909566 0.1689703286565477 -0.8108346629073455 -0.0903436799915799
P 9.066262039914943 5.972313200131788 3.656005702265125 0.8649594697762072 0.9501452597159312 0.15972567012982813
P 0.6056565358681734 1.4693651300335204 11.719184277936417 -0.0013577995794750808 -0.48318150356318723 -0.5433049512176449
Ni 1.5073511115674214 6.514736175360338 1.79814409197783 0.5695343172278191 -3.4613365751375422 -2.1975311279224345
Ni 7.420917026464883 0.5458211300298095 0.9814080643866085 0.5426107533640977 0.3637779300911735 -0.8278867332936257
Ni 4.55962764550033 1.35533233620712 9.932789643005453 1.2254420169455604 1.5265423655018548 -1.1793868744587106
Ni 3.348005820712107 0.6787711297831545 2.79593384480476 -0.11795989904695169 0.955003102028865 0.5743579638687076
Ni 7.348809154622082 8.440934192180999 6.893464831791111 1.4742643820337447 0.4406078918670347 0.16722969181635716
Ni 0.6122788210232707 2.9878500637746717 7.900676230776819 -1.5785259576579975 0.3129762740582739 -0.17358700149295267
Ni 9.119872797104414 9.03716440381385 10.311735362187846 1.6805414175605509 -0.2360982326532966 -1.0356442100207002
Ni 3.9863012966248648 6.996353511675386 8.745795084373272 -0.6736778792169688 0.3578253120521644 -0.40218301223193315
Ni 8.34426641848438 4.0971342860954545 4.047138746458865 -0.7697373786464033 -1.8498321056709948 -1.242364503732512
Ni 0.20003548861895515 4.647070252253 5.78623522068827 0.7230620860770515 0.8117713157890019 1.8901914833246483
Ni 5.93375649325957 3.389406798122824 11.70742172227523 -1.669314952717112 -0.3814709764955624 -1.0824812249788969
Ni 2.812122796491487 9.223267644870704 8.731730915052642 1.6441888470734458 -1.5645689812572732 -2.487393955891697
Ni 2.5722310313365058 5.051405764068042 11.533320554398594 -0.09173130436772589 -1.3058581534107834 0.5367082718367338
Ni 3.8779570438754627 1.3063528747957966 6.925918520004569 -2.0573926358959147 -0.39279668592102673 2.5545856232468456
Ni 0.8258245947000961 1.3863199152318195 3.381050817800675 -0.6069083870009032 0.47850775223660175 2.3185200436036975
Ni 8.739432900273998 4.888112824237703 9.938431403317015 0.05651490436759298 -2.8222233212693206 -0.3046739248401656
Ni 7.6305042117705275 3.547301237621867 7.687397107462977 0.0073664676674002165 -0.6159512139294617 0.4262459667184078
Ni 7.123335221374425 0.5600134786477342 10.751178902847176 -2.0643847509430318 0.14967574209299384 0.5310035081424725
Ni 1.2524146522482749 4.403192765882885 2.8164743432923287 -0.3746025315105032 -1.3393169472898612 0.42274103888894293
Ni 6.5611052700603425 7.624375931498434 9.074730294074138 0.4745449109341118 1.5839162754356333 -1.1338842620412215
Ni 7.381761525795086 7.280340826330188 13.065519737334917 0.07010395590593733 0.5389590155441234 -0.9020887705283367
Ni 1.516791470032374 8.350937355635532 2.6759767348435655 -0.27765368749757985 3.688512565600545 3.534808676184764
Ni 0.758672677147567 2.171890596889685 5.68117778451839 -1.2076150160664685 1.5523860660378361 0.43795991272122636
Ni 1.3013660452003364 3.2980720316858925 10.455490783141562 -1.731594527482624 -1.1716139153815113 2.599957880734058
P 6.962259689825746 3.7577959697769674 9.874290295827937 -0.25778728759095604 0.5386916208153497 -1.754719543535862
P 8.33720252290357 0.9063604892438187 6.102586404486894 -0.3950376594364035 -0.2766339879838139 -0.5723527605132208
P 6.194868013616247 3.4550121435700447 4.188402623845467 -0.07008055886716963 -0.016241915780159124 1.3669802175330843
P 6.165835870586766 0.282307885175656 2.702870996892629 -1.0805752662054358 -0.22831396072218746 -0.3476874522872141
P 3.285113759660165 2.402295222814278 1.4044914357577167 -0.004991796787636564 0.7447364857266916 -0.4502901521518052
P 1.5910138324728755 7.327870084013 9.635308884368337 1.8037633363373902 -0.020821307620725434 0.6003803560743982
P 3.622131750013035 8.727391531250813 4.548135482663362 0.31378180067870476 0.03839351217653388 -0.04705298762374477
P 8.184238776081465 6.422718409748044 6.896888248205705 -0.08763348014926843 -0.9589122072752841 -1.2317669307223236
Ni 4.922674453741701 7.681457821483244 13.408286148144542 -1.1148174752177575 -0.17030010321156477 -1.179737058709278
Ni 8.926518537405006 5.4274295566413135 0.5204790537779069 -0.28898608179126356 -0.6961043265412851 0.21410295932912804
Ni 3.269994216271302 7.125515205043736 11.169588875751245 -1.4784606795032795 0.23755476259416505 0.57032390300865
Ni 2.2773437983351528 1.8445655811351214 13.081021011769737 0.2616876510866267 -0.8703996669551719 -1.4803183015373087
Ni 2.005893728817155 4.3131397924188954 0.34871318171182913 -1.0152075394329032 -0.04642563845239102 0.06050422803264418
Ni 0.4583972355833141 7.452550180052598 5.702251583731926 -2.3135678418047445 0.08328111671784366 0.3486228196172899
Ni 5.306538702602018 7.215119083159542 4.319656353044108 -0.9299129918294565 -0.6739470737179555 -1.2567397986175777
Ni 2.5791826530802715 2.593750183436992 8.780658917621986 2.1394424513098187 -1.8826167563011837 -0.9042916917169264
Ni 3.485344791878642 8.124284547098894 6.628669793964015 -1.3821602677076326 0.6187151498278441 -0.524463907251742
Ni 4.604939494901483 0.7845967061214915 0.5571476889571347 0.7482254727165565 -0.08396168772463604 -0.4985474444962962
Ni 3.93504829001336 4.1101674073458785 4.945950691391956 1.0025201737732217 1.4147474576150345 -1.6411348907384704
Ni 6.462294937306763 4.954597648075117 2.59098076212319 -0.4309557134892514 0.8324558407215469 0.5674026155967969
Ni 8.168735630416027 2.608439343783845 11.408598355670106 -0.5412704372861193 0.09456928803715327 -0.9925486643828068
Ni 2.841061377990097 3.8714732297860555 6.885235159535638 -1.4887178384549136 -0.3088167433639456 0.2212251721962061
Ni 4.7795908045796445 5.247679143530647 12.489289238541193 0.9843409317610338 2.790021796836111 0.20599241440685168
Ni 6.5649880735915165 5.62237436236554 8.134084181842393 0.11688903458027611 -1.7553309518676155 -0.09674521264254951
Ni 9.344776005013752 6.6444031009953965 11.187719229203559 0.5011139196718919 2.2404847486658253 0.751301797649035
Ni 2.55120775534964 0.5015796245418281 10.703100438978149 -1.403613295375086 1.9816687627000387 2.1937297518984735
Ni 5.288004163336339 2.597502000824946 2.4235477245517796 -0.789563412233395 -0.9578223166452149 -0.014095815971433789
Ni 6.894249813035124 3.1603681705489577 0.7584780691633539 0.981392390655671 0.7233688186841929 -0.4293665146252606
Ni 7.509529152353449 1.917103836019933 3.1813418589244615 0.6582594877793696 -0.18470779399646256 0.116720884433528
Ni 5.2335045716035875 3.4960482310103624 7.1213685579955035 -0.0015002386946103194 0.32601485240978695 -0.1338205202282921
Ni 6.360874237841865 7.783393109367936 1.4821484419965179 0.13630317744082976 0.12186746163147398 1.4291942291679838
Ni 4.69998865411402 8.559233391815146 10.420599817048895 0.43624807223644224 0.8913587857053422 -0.0509752054962864
P 6.464643331731642 7.757701112990573 11.064777506407557 1.7825918444660978 -0.278457671456114 3.436207641280398
P 2.4273416446286262 2.5689189531436485 4.361381053351641 0.490235067975859 -0.07660524735956484 0.23995977249123188
P 6.663059270251209 5.7633248086237225 0.6579864357000114 -0.052581887861773965 -1.230303715913236 -0.9517995074899028
P 3.1329078612381203 6.17493940754058 0.24766672837041745 0.6535926784313195 0.635866207685834 -0.9346242812621967
P 5.046119537573791 9.096370140549448 8.067478663630155 0.4735954025366489 0.12139617842201027 0.0028804068715885876
P 3.555703063094144 5.672654329055979 3.247181108198861 0.7591791435145829 0.287469388036421 0.12198727503878991
P 4.307975195914779 5.5447650725074835 7.0443009894011945 -1.080519987487468 -1.0906398495302894 0.28408118829047846
P 1.010370971883245 0.907607664450338 8.765225943104703 -0.9809136512470397 3.7872776368866004 0.8633134495323518
