# total energy = -381180.24507400516 ev
CRYSTAL
PRIMVEC
9.09070106748498 0.00000000000000 0.00000000000000

0.00000000000000 9.09070106748498 0.00000000000000

0.00000000000000 0.00000000000000 13.30515991442138

PRIMCOORD
 96 1
Ni 7.6597245518025545 5.332686944178413 3.982061517006542 -1.8849099232107343 1.415946105908826 0.3291978781234589
Ni 6.351581787916679 6.738800191294874 5.572972349462892 -0.5485667138372166 1.6648031808896875 -0.49578556548044295
Ni 0.6560222463487354 5.795330892640042 3.400984826735527 1.2978486528427455 0.3572815237335524 -0.4163906711908829
Ni 1.8446032033776945 5.17526327728558 6.9294603696231105 -0.01010726363733098 -0.004107080189838089 -0.4545543267447978
Ni 2.4208627312599287 0.6519959749352785 5.607353380137299 0.7029457749431507 1.3262624280987483 0.8076871184172993
Ni 0.7838611363439509 1.613272138446014 2.308046224445426 1.4087511308222835 -0.8074662606557448 -0.40271677324821614
Ni 6.18437652689226 7.077283347331584 12.068698108447663 0.043198903984977215 -0.3307235707393659 0.424214795220992
Ni 5.786067468457805 2.040898707172632 6.578456591283951 -2.018837401330536 -0.5361570273189541 0.5033294392659718
Ni 0.2949714254127084 1.3709231440649998 4.475150222667692 -1.1781990247981966 0.12098145948209486 0.5556241349046301
Ni 6.441952445223467 1.5529189753980546 13.053679183536024 -1.812276258904408 -0.289150889503902 0.09340997762172945
Ni 1.4654209795648552 7.870710628196603 4.852417944878195 -0.9148476128559019 -1.762877910976938 0.8151006372725511
Ni 3.4690841759912234 5.842929802373302 8.64759556069615 -0.7125043651658632 -0.32223533076269667 -0.09169479470283563
Ni 3.0034766590473483 0.5235889161359513 3.124277528432271 -0.22055360005047822 -0.4456577955861164 -0.6644813003193653
Ni 4.786863082794833 3.643661995417796 0.22863021770445502 1.1822590538001831 0.33202197783581533 -1.0096593559211642
Ni 3.417067185637191 2.193677025923047 11.607846846196766 -0.5901072562831644 -0.5676761809731578 2.928796575745885
Ni 4.430207615727414 2.053043883529323 9.65631245574508 0.8481930489511457 0.8749032112524803 -0.9310723022448804
Ni 8.506405158339351 6.016562188909833 6.228557333099984 0.990905472352429 -0.08986596902421298 -0.4646209669521805
Ni 6.841688743693851 7.7532678637115025 9.917200116401693 0.3660561846023889 -0.19461913957290353 0.41877974024834974
Ni 5.855738599893196 3.021003530316585 11.148260100436303 -0.04223422607886275 0.30071622574399826 0.30141967956892607
Ni 3.479883928619779 5.11519192596446 1.858863785825854 -0.24069227978188226 0.9614426870066216 -0.5564427741511836
Ni 7.8948100761918045 4.133387141758605 10.200188179933123 1.0736697973348541 -0.3063004046999951 0.12085624675814025
Ni 5.898428531158932 3.9613547185744524 2.3084316701621352 1.1149951384462025 0.36015961661229584 0.22797766042869125
Ni 1.0013043375629684 8.093523706417042 12.426593547113175 -0.05045507132675827 -0.6806360557023569 -0.23864516744486644
Ni 8.162985751732519 2.5376691466844252 12.003835048700187 -1.6839121338049967 0.7088408002713469 -1.4499108928900448
P 2.2591391628575788 2.3000836795570834 4.131983537544927 -0.2587097994052254 1.0279273009924168 -0.22003398010158234
Ni 1.466275505446239 3.7052424030826367 2.4216854396882823 1.1739248229028751 1.5493341665853897 0.1626058198911006
P 7.29671468482995 7.048638548903489 2.200340509657669 0.1402423645942359 -1.3715871201774763 1.4554901867500354
Ni 5.99781716372458 8.274228658227155 3.3763308459875128 0.11748553051369444 0.9956779540404079 1.3185815145147228
P 4.502205966584446 3.9990084015605416 7.6411667950551365 -0.11324321029757271 -0.5456356562333506 0.6242134539382541
P 5.014412416166346 5.351886504406955 12.124220473055543 -0.8026935218574498 -1.205987764875691 -0.2750936400798875
P 2.299420058393881 7.25576107742958 3.0464293115681045 2.1966870347545844 -0.8555137509822751 -1.526994879658241
Ni 1.3485418385334325 6.172994969408294 0.9517472908632176 1.4944154030603232 0.3061541089301179 -0.1742791424639708
Ni 7.991116961163952 1.4858841472137416 7.852838310294467 -0.49645148119921595 -1.714072973659093 -1.154237885996909
Ni 1.1884000520817297 3.549882325286338 11.10540471841481 0.27347230242638065 -0.44965226145749015 0.5307327709795892
Ni 9.446874525708475 8.638447588414907 10.056079662598407 -0.6137290094671625 -0.778812087254162 -0.9688438645666991
Ni 5.846556992018751 0.4903596772612403 8.602503866261673 0.49252257845845493 0.26406129352512586 -0.268206426041751
Ni 8.301809844653953 7.113709785700793 0.37867859898487455 -0.5139133854294052 -0.14709461162937892 -0.6320746018538856
Ni 1.8111857869950614 5.833466382772018 11.361887934501947 0.8684116899908657 0.7203847963552045 1.917238203029795
Ni 6.326936897869531 8.573930884370418 0.946386504562663 -0.2699632608318576 -0.6348917595877066 -1.466918740301951
Ni 3.153445951230235 5.407012514457087 4.350055815263857 -2.011977183875593 0.5388721122572719 0.08880358919796966
Ni 6.558058876681298 3.1377372201341553 8.388783307047195 -0.4746469837296148 -1.023661069516895 2.3824106716100713
Ni 8.383144345300147 3.412712739922479 3.2277115228831947 -0.12198341838404797 -1.4935427706473825 1.148407909578693
Ni 7.734313752406337 0.8388889668247325 2.2076585238546276 -0.493642293885195 -0.1885438799131011 1.2169668895950139
Ni 2.4396441192486447 4.107124106957346 13.112261478055329 -0.39882360884139695 1.0276676195731267 -0.09118417361500425
Ni 0.7562017698897076 1.2807070286729303 11.484188769529728 2.0286235341830223 -1.3911809831490043 -0.12971626825193144
Ni 7.112155275852744 0.39596820296151475 5.497279537774005 -0.10762612122111141 -0.20136442871653706 -0.22759945115366606
Ni 5.365286197483125 0.19226741424130725 11.000080767253888 0.48862504317626165 0.5831493369080926 0.7243790051162621
Ni 7.072492547975315 4.479070132881019 12.644385831245438 -0.7281757531545331 1.3028476487192338 0.26314186703465003
Ni 3.879665680594491 7.856292776623465 4.769699839560228 1.1622430156895724 -0.3664120252799109 -0.8276203670061166
Ni 6.4946785102450315 4.880060948070881 7.018751051667043 -0.6419070145632751 1.3266797181418248 -0.5698775594998509
Ni 3.5375826070149285 6.732336702979299 13.228721537776838 -0.6320157235914922 0.06499054593877195 -1.035029973475469
Ni 3.1744454702302027 2.429898887920521 1.2292382075811041 -0.7730924111615652 -1.0801921718344043 0.2887737086701414
Ni 0.5697078597682617 2.58411353740773 0.26556209904180106 2.143942138952385 0.7516383550528475 0.7033481525878919
Ni 1.3017247290746297 0.4718873731019612 7.88238945159888 0.44147023986732997 -1.4188262556700983 0.9220765265041732
Ni 7.5072825889841726 2.96763202553355 1.2479750511355778 -0.23270463359071533 -1.5266711777702353 -1.9236819017726094
Ni 3.0674570117407565 7.864410772496613 6.9612460052003335 0.3481921598377745 -0.22303779992491266 0.6105814649771162
P 5.204753510894194 8.7177639534689 6.671007198658354 0.07750693323822781 -0.18950881492953167 -0.718242296090905
Ni 2.180086428128696 0.3002758493678951 0.7242934098507954 1.0707752493958784 -0.2766352735353946 -0.5849485949003603
P -0.6298101194723255 4.074279404729258 7.403363151107016 2.2333396529806118 0.040331609739511186 1.1168406762953735
Ni 4.344945932307199 7.876646855861962 1.915304311221179 -2.6297677650066382 -0.3709687914126579 0.1309406275773358
P 0.13926681005359623 9.044347382072296 6.061498432359504 -0.8130702371060836 -0.45506109117788723 1.7614658611207599
P 7.316659682529487 1.6185629263499022 10.215395104341411 -0.259086980238986 -0.3517649647906974 -0.6775602449905105
P 2.000908714064035 7.208125804892855 9.78557222228562 0.44575935416098716 0.6366750767403744 -0.7972109014763239
Ni 4.319010162737108 5.8273937945936725 6.365427834405359 -0.7367529533005828 -0.6097669394956209 -0.49445887624921947
Ni 1.0985566554251571 5.0123124642663495 9.334926180826654 -0.3682629624457206 0.5314470234377944 -1.5380796767174931
Ni 4.033507611346203 3.4061219817947834 3.2553599804963995 -1.6167446348195638 -1.5332822553288497 1.3952487254604746
Ni 3.642825650938144 8.941331559861197 9.062902411609453 -1.0431657152087261 -0.8375502245253187 0.3990352106315708
Ni 3.6261533055502904 4.3542002657885694 10.658696768570906 0.5731081506220065 0.2316743925539881 0.26459608298267334
Ni 5.298760448547296 1.4018315270086756 1.9833072990476983 -0.2100244183843802 0.46183157713250145 1.1680850762926462
Ni 4.590649395307687 1.3249332883849836 4.700965959384099 0.9941059815675977 -0.1298849326193118 -0.5845030227225095
Ni 7.545554439629137 8.1659402295139 7.7425381094796135 1.1483305193735382 -0.27272822517150447 -1.6546321538939568
Ni 3.11168327145281 8.668065091835642 11.417330300942211 -1.1762390728583485 1.010006454847938 1.0248275790211705
Ni 8.028552467329261 6.003026135320677 8.713149513709425 -0.3052799338552807 -0.1860473387434925 -0.12075828772769527
Ni 5.686624291686961 4.125278236586323 4.894901517234278 -0.2714719841669002 -1.1012852450592774 0.2212817364657544
Ni 4.297674287805106 6.882533262683831 10.66719839202059 0.1467523977986118 -0.5701364695881923 -0.8512901998192307
Ni 5.480610828666498 6.932795747770767 8.164245722872517 0.1673299648396473 1.1392964341957281 -0.5138979588104375
Ni 8.575103584782104 6.466970054006112 11.185661061938323 -0.3910262242841653 -0.3010694953183589 0.17689703970279214
Ni 0.44544979684407965 2.50162451775158 9.006808241917113 0.795567966556262 1.1348183438197166 1.621447439611872
Ni 3.397467634570554 1.87874787582959 7.663186290692246 -0.52109293389698 0.12350576856584537 -1.029790836563717
Ni 7.656633713508187 2.9803771881473833 5.742081203248608 1.31178968840387 0.0012611261006107313 -0.7553823954763119
Ni 0.6122105225961618 8.316018610107177 2.2170119459754356 -0.3964036865459947 -0.569840021393696 -0.21997175940507924
Ni 8.24709291614278 7.777394583809301 4.065591421911825 -0.01906113039650911 -0.1780643205380159 0.5465144592938781
Ni 0.8544267927445356 7.1725448017041655 7.82558893444927 0.3195595837027464 0.1897859798503183 0.35964899552446444
Ni 0.7816430053326989 4.050407224255701 5.118973657524628 0.3176520822673884 0.047909422086769106 -0.8143904985794039
Ni 5.862456627833013 5.0572568893467995 9.563855482589595 -1.2202129073361372 0.6746728961403864 0.603828976744631
Ni 8.519950302629375 4.951986573320987 1.3228606085875845 -0.600648007913488 0.5361981649695347 1.445448486243317
Ni 5.639734456621232 6.0969876194694494 0.9283260091526042 0.7976868126714778 -0.6736133445276206 0.7881531621494297
Ni 3.357995811411307 3.3941677101562733 5.762757093297754 -0.19985956203623645 0.03056013217504414 -0.10238569875777852
P 0.16555438974719233 4.774427004010437 12.653885613650186 0.5959446889005479 0.5609710010388402 -0.8234816622473948
Ni 7.621252705738544 -0.3513819514951761 12.084437747926685 1.6337365413918703 1.9881127185531697 -0.7994472470060103
P 8.989275916227358 0.4863034065349262 0.3946573238966683 0.134182274443085 -0.26233993995864496 -0.5232287492930602
Ni 5.156127351963098 5.780385780416688 3.4766385484106923 0.910482908129303 2.4696376603495405 -0.5747955656267585
P 2.2801114097549493 1.629871758226941 9.864219511755888 -0.12286607809931743 -0.47291097487511463 -0.6747919382167541
P 4.356136585072982 0.7226552655547807 0.0889925070555347 -0.4260320509353889 -0.2648215687299181 -0.4097741943156297
P 6.671419916477661 2.036226086927617 3.898997055985587 -0.6780634098791741 0.09809478469190848 -0.21502418559181677
Ni 1.081838856532975 2.3341647171029183 6.717748855299972 -0.47405665844378353 1.7718993977492583 -0.762992346613086
