# total energy = -340866.5850537287 ev
CRYSTAL
PRIMVEC
9.32193569288224 0.00000000000000 0.00000000000000
0.00000000000000 9.32193569288224 0.00000000000000
0.00000000000000 0.00000000000000 13.64359516223045
PRIMCOORD
 96 1
Ni 6.832437998317063 4.931667398227501 2.8943248509195447 -0.011560451144089769 0.26429603524375134 0.7023662482905969
Ni 5.214979659831901 1.128075372253661 1.7194207360306604 0.43018875341623974 -0.8114149608908477 -2.00665242922857
Ni 3.083006417194552 0.82950683112367 5.0010319197660085 -1.4121524431943486 1.3180413257405366 -0.584792014717838
Ni 8.1484342669146 8.660600043338297 6.144529501995925 -0.4706247499440992 0.24319190627528442 0.05677972799320544
Ni 4.598333631102924 3.7701542435845603 8.804839282448294 0.31446494278865844 -0.24476336452746233 -1.4426223296484315
Ni 5.213888993386529 8.171739105490904 2.1114826963675206 1.044707348664233 -0.6677286036120693 0.3972084418354772
Ni 6.444664128278243 7.8309384680864795 7.608160058587255 -0.2737507528987479 0.4794297498302388 1.320101807813991
Ni 7.210554343249863 5.139089783492027 8.353522439547325 -2.0636861822141106 0.18882515859894575 -1.0812465812408474
Ni 2.4780687393663094 3.764710233293136 3.8548887722609115 1.6728029112657126 2.2663305060843357 -0.251498883479083
Ni 4.1580865865257 4.3682123330650775 5.349666711706243 0.37819461973713575 1.22028644088655 0.6127221654692029
Ni 6.384407137655354 1.6996964528532204 10.738737244477301 -1.7898742370601237 2.467325724386912 1.3977429526372378
Ni 7.022997002387778 5.55495996691844 0.35543980480451476 0.22585778587221103 2.1481273806783263 0.3912100581601972
Ni 9.166184533348044 6.339037277915007 7.153268253448681 -0.6147224837286833 0.9858051750113861 -0.07250536625857835
Ni 2.98764301774032 2.053277463732889 2.225570135327497 -0.04724453480926057 -0.34859350904125125 -2.0511798222169833
Ni 0.842439152146432 7.329642068374771 9.558784369359245 1.3776662364920211 0.6637773322738052 -1.0434338812684483
Ni 2.75943271646573 7.724565862888803 11.675602009373653 1.7411708583171497 1.2272140212443188 -3.091581344417011
Ni 1.2831178023340895 5.241593785486039 5.713678036139122 1.2012330237995248 -0.5145613034260492 -1.3031968045285363
Ni 1.0373915843855508 2.8469656901583242 13.48957233989546 -0.6844289470858858 1.9034041253601797 1.3083788629501079
Ni 6.9378318002945365 2.4570757407767756 7.656130738312718 0.7764345881609209 1.2793498227076094 0.414439461001783
Ni 0.6233895168194159 0.5802103119052417 8.65456875111475 -0.7820015407257371 0.005275646576642527 1.36216428420168
Ni 1.1237313503430382 2.751891270702439 8.844992587121721 -0.9210635118586267 2.074874851841078 0.3350795337152165
Ni 8.577905154134143 6.475967187453933 2.0645486158619324 -0.6199119983494227 0.5930799657582431 0.49438945646386473
Ni 1.8457152494369045 9.023251297391862 3.004401061063768 -0.8819806869245521 0.13125918725901908 -0.7216279247336862
Ni 1.7242038211000605 5.577742777110633 11.4825997260266 -0.48312416796269053 2.1372230750609966 0.1786713579943955
P 2.9637136094901724 1.8090147896469426 13.379126981108188 2.0926067219032025 2.1786797995438865 -0.3803229789340482
P 8.30367245763907 3.1841680604865674 9.649350700840932 -0.5872129654545049 -0.8835775990980266 -0.4800041342764701
P 9.059942435246393 9.333587849809343 10.690902665009125 0.007746476714638272 -1.209534858797001 -0.18768590278818
P 3.3524196730720446 6.930439505498133 6.008625937547899 -0.5244430813161355 -2.223236503108339 1.4287216604069395
P 0.905021033465693 8.356900708947347 7.426262996918581 -0.11626785605650944 -2.1090245011395936 -1.825337205853424
P 5.6693587585217955 4.230452771272836 6.96540981407219 0.18395188966704448 0.2491499236309322 -0.16868287932311596
P 6.69036238042049 7.153737146800838 3.8568118875402284 -0.5423716407700981 0.6449776830687989 -2.2788191254696493
P 8.483091748870311 4.629944314147822 5.68656798352008 -0.7519725984638147 0.36755050975972825 0.49219810523950075
Ni 2.974247396526661 4.799901840917084 0.7790583809607753 -0.9500020492698479 -0.24141116022577777 0.5783300611425782
Ni 6.24340354233329 0.19383659656808544 4.39345613421093 -0.9576379685485507 -0.0341866731840379 1.1018354611357928
Ni 5.282684876863777 8.724725637164852 10.117352875968988 0.02759873555387505 -0.9210267450834202 -1.345647003272947
Ni 4.643861963745589 5.247457282871837 10.58071645602682 -0.5419178410621311 2.641771474335734 -0.2546957931498259
Ni 2.489292349624657 1.2992167848225995 7.425580631245067 0.712369896470528 1.0820762762309946 -0.5697315208402898
Ni 0.6782761404407817 8.02715588696352 12.333768870703715 -1.2263398461694814 -0.3322477206933762 -0.9660565316295493
Ni 5.0770336593310486 5.9580590988050375 1.4749818773650767 -0.39116197853108114 -0.14206733361811663 0.10513600780940602
Ni 5.288520408443283 3.529527124316517 1.471570981191049 -0.6518785239536903 0.17187850344227817 0.6559678635317154
Ni 8.581708503789796 6.695480122971847 4.7059348673903445 0.8671621338544807 -1.0330016301915306 -0.5599402457814807
Ni 4.591631159528379 6.314492621926445 8.17409569076774 -0.5504179081133423 -0.5212322876883216 0.007002656570078262
Ni 9.039536718588982 1.364218640579624 1.3562241487544087 -0.7632851952631564 0.417480561820952 0.8084854459488786
Ni 9.228995734278895 4.143050304676269 3.704058924801536 -0.6467499444778734 0.34237992403137163 -0.704664043185838
Ni 4.867168926983725 2.205532635119592 3.5890840375885738 -0.5976303041330869 1.5212489783133993 2.7487725603783373
Ni 1.190206071898085 1.9829900705867594 3.7789485574697137 -1.7777854242163897 -1.3000243203378254 0.3196673129252043
Ni 5.470074422888113 2.175152447551523 13.16151199164393 -1.3594399432919813 0.2648992160453889 -2.334511791046263
Ni 1.0883639273196406 6.4949093602487515 0.41817456586483626 0.540601693353869 1.262209306372581 0.2129333645010591
Ni 6.502404196334891 3.0797530617292996 5.115774690786751 1.7216279031882156 1.3045013822725728 0.41611813425578664
Ni 8.271716862983244 7.182094474380483 10.826874279585791 -0.19932271569615995 -0.3464214410905969 1.1175955521835268
Ni 8.07578842410455 8.769750585294268 3.1561043738729837 1.0732067416555064 -0.2820032227155272 -1.1718643408294203
Ni 0.1989114582164612 3.9511023322264074 11.478001215278722 -0.33206414392766037 -2.2761009552075384 -1.2374392985167526
Ni 4.417348254719355 6.566734872740918 4.168964352979574 0.31282920695744837 0.26103536221460855 -1.0623901106559768
Ni 2.6482220267796124 3.7179514051736415 12.192284263513434 2.239668937632749 -1.3428208466780616 -0.6937692506502051
Ni 5.504435076885014 6.887353519938263 12.032995691844405 -0.7224218813898913 -0.8020985685859283 -1.4745423182854798
Ni 2.9737719778197045 9.354748643236626 0.7083757377523914 1.4244765119773402 -2.712201189012206 1.5974107103776425
P 1.0966231621110825 6.886784881877002 3.0560837354776638 -0.3300694820951348 -0.28100229225483864 0.901543439547828
P 4.4751256105177255 4.577545715092862 3.140659791251696 -0.15935645971586748 0.22290487389147415 0.44875700333673035
P 6.945429177670411 2.353322599435075 0.8955135915201045 2.816906022821465 -1.1825421322582406 1.507615703800681
P 6.273420174419568 0.5878226043778053 6.830174632394533 -0.03277050956280163 -0.979242948412836 -0.33663993622380084
P 8.683820984495725 5.607936525970092 12.410432467684322 0.15319506810016198 1.7613416768380696 0.4448445556562016
P 1.32891647110424 3.4732599220578906 2.1170628069162305 -1.3710016799876519 0.26037561714342256 -2.093527176834943
P 8.636111318962318 1.1239737206642317 4.41157424791369 -1.5085528709029699 0.2866000980575903 -0.014257024139646414
P 3.980699477218312 0.09159640534675818 3.284940979071131 0.17591153586107122 -0.001109688124410992 -0.4455652358723101
Ni 5.022202035128722 1.3265673433757486 8.569310329667204 -0.6030154797044002 -0.8918524375123092 0.3339045395705088
Ni 1.2090550253385988 0.7646028556886661 13.141838046917814 -1.7083676957441996 -2.1781138997380878 -1.3304898359165345
Ni 4.680515813858399 2.200181844182473 6.224713061795096 -0.3038660842268896 -0.812909028937871 0.8465442004938132
Ni 7.1870537440295195 2.0510681650358555 3.086208502014936 0.7976842415683165 0.3400080813650854 -0.8415351773149958
Ni 4.955727313573676 4.6582084223731615 13.108179334658832 0.08907252658864015 -0.24092419328703024 -2.15768391401851
Ni 3.1902273185164063 2.3367575201750386 9.97262143866826 0.9570391586222874 -0.0050499037190816255 -0.4001914357232011
Ni 7.168978511229739 4.846940327099494 10.787267240328594 -0.011936089315953637 -0.16809178270633632 0.44367778904161004
Ni 1.3569568528792477 1.530093159630318 10.846808306310416 -0.3231794398435208 -0.7509613835904809 0.8925165534588694
Ni 4.355944666038512 8.719803655257536 6.011190401984835 2.1702036437520755 0.10844938845335518 0.9543261305664983
Ni 9.291415413921666 5.050727157546118 9.073536613684723 2.151979150324249 -0.06182320395438386 1.3995920900308347
Ni 6.8233491112723055 8.943744510104947 11.725155553735219 0.7283919829303972 0.47893892623674933 0.8864186680912476
Ni 0.8103111016851406 0.48558054876939194 5.678750608468046 0.8184651828694097 1.0491327314254382 1.3277564961457715
Ni 7.606093385502309 3.707594734910333 13.08357967925123 -0.6955425405005441 -2.526577310959378 -1.8156829705931115
Ni 3.0960384829264203 8.495778902991251 8.175692538306988 -0.09743118296598059 -1.097393109093723 0.49819906001794195
Ni 3.0205494498100594 6.941206340920385 2.1319070568957925 -0.44422594823559625 0.6774728274830268 -0.39980962690375016
Ni 0.2446905509222077 2.9615882082120133 6.612790826928951 0.6574056244195066 -0.15709697425772945 -0.27701682524452936
Ni 8.55387320459426 1.6442682247833413 11.935184352146118 -0.6949501583321838 0.5113008875072226 0.9337107683089919
Ni 2.2558524425735453 4.716778142683126 7.779605366251229 0.37938349783891434 0.25998480946290714 0.8525317855358157
Ni 4.212256353312458 0.48766400133811344 12.046271060091009 0.162402702741359 -0.304442782665966 0.7324730949783063
Ni 1.5280982654481863 7.722281988708325 5.07674095055853 0.24599260894887312 -0.8311908579661942 0.5784843273322553
Ni 6.225635933402717 6.4146102084502425 5.706952259726002 0.060017003983580515 -1.316767087013803 2.086614765985826
Ni 9.251135330926383 4.64171791859657 0.722744569024997 -0.09472175445461752 -0.7364382502736413 1.6847855375488856
Ni 7.536393274288302 0.6891622966365443 9.266388813871345 0.5731024941950518 -1.1511569330787401 -2.106529245521566
Ni 7.994575722633848 7.985663952362271 13.561515308774052 0.16909245605670878 -1.0154415098205802 0.8187618881742222
P 4.808291582804554 3.299340572730657 11.035526228133604 0.7603484812323357 -1.722064476505002 1.407326739670931
P 5.879242134739981 8.006656950951804 -0.005122403519071395 0.17843455939324107 1.4043136638762201 1.9294946517996445
P 2.771355471881367 6.246050971995558 9.753669683663265 0.2969071364105532 -0.4098682966913328 -1.5049731239715114
P 3.159977638044365 6.992747321915736 13.467332998538867 1.1772109498533145 -1.6318241548605057 2.548057592320341
P 3.265744317439059 0.12167363001333481 10.160739960043262 -0.8307239456321048 0.7899007409681558 -0.9129740499822728
P 0.4054333445183999 8.668654195550266 0.9767029881522287 0.5627376060209598 -0.31510540458613473 0.7690264686223078
P 6.495142408634515 6.81179923327389 9.793453839693642 -1.7866611294394652 -0.4784612152693824 -1.1049123002889034
P 2.4160405810116217 2.845436892747719 5.775838565976923 -0.20562937464047812 0.08905041510145309 1.2998376582483162
