# total energy = -340869.57949971734 ev
CRYSTAL
PRIMVEC
9.27137546349770 0.00000000000000 0.00000000000000
0.00000000000000 9.27137546349770 0.00000000000000
0.00000000000000 0.00000000000000 13.56959515581986
PRIMCOORD
 96 1
Ni 1.5673723334468679 4.988454151836703 10.074474693391515 -0.04163258793912185 -0.30708510538481953 -0.3444928566093164
Ni 4.196799238133898 0.5326238164285135 9.155582207936765 -1.6625493518585046 1.4491207928885816 0.4244978736790495
Ni 0.4946278666078519 1.7527905659546548 4.2202929028758716 -1.0585848779772735 0.9101604917928776 0.0009122274016242353
Ni 4.8746851068293 2.6807068808858685 0.7467388094372306 0.43323988153773774 0.14448494192067377 -0.7069530963303309
Ni 8.220010518507744 5.439460198156084 2.5571083238976287 1.9500768468263705 1.2505136152022076 -0.40454688447841947
Ni 1.0499554266117976 2.2731094132254936 0.8827100166220624 -0.09200435552345446 0.9850479851303875 0.28595500827442366
Ni 3.1622250229691935 7.014926442147444 9.43029861776452 0.5649749799919108 -0.30308806841028446 -0.43427963565616173
Ni 1.6136921239168367 8.608879808275937 8.380174452124187 -0.9276913015877895 -0.5521703720280748 -0.35747049981590695
Ni 7.5631057718767005 3.876334154548136 4.104409057186683 0.9930492581683091 -1.3528255232992572 0.4552441537229708
Ni 6.704956555281458 8.691061277996875 1.230829758136932 -0.6728227303055251 -0.02450929799527392 -0.8697190959483796
Ni 2.26268838750727 1.5790820803170782 8.268320873231895 -0.7979158979631484 0.42949481267300876 -0.1358079829719661
Ni 8.706247790564891 6.470464933871041 9.224379520427428 2.2651022901041893 0.045289982186051035 -2.293319890188986
Ni 8.499700093989638 2.1330838336682607 9.283869299360685 0.18454170073224346 0.3478764283695686 -0.278339657821011
Ni 0.7633614580228204 3.9262048817174637 7.57728912164871 0.8272580985706913 0.2588607231607929 2.3214793833423375
Ni 0.6826235414196122 2.111110674458127 11.939465587670723 -0.21708261078274224 -0.6951334779875834 0.4894326266792216
Ni 0.2173358687511644 7.456355157891268 1.4197052864546171 0.5520096780804945 0.5419990879220279 -0.9753562117639203
Ni 6.758341133649369 5.98846468027762 8.287982678606127 -0.3483603099845226 -1.0881152833362229 -0.25621788622130715
Ni 1.1462108438774532 7.574648633993416 10.587865969117285 0.7635752156997495 -1.1459609907000974 -0.16156940820678625
Ni 7.4443487270148445 8.228957395570097 8.018721545942613 1.6751235889790894 0.287459360734092 -0.044718425953297176
Ni 4.4361768742716325 7.067235540992833 5.088150176436907 0.8883693640597151 -0.38164246907642013 0.1418351630026525
Ni 3.4018622576123643 8.042769638921197 3.1205455557838966 -0.3059193672114925 3.8759390440797503 0.8155932606382533
Ni 0.6191359455026377 4.003945362720404 5.173041669127094 0.5529854117302024 0.9057749611306724 -1.056584045497161
Ni 6.8925721037102585 7.897728245383928 5.659023051228883 -1.544981546043649 -1.8224801960206032 0.5175946909357343
Ni 2.165459475846229 9.083231177334184 1.0084567512427864 -0.018613501336129237 0.08830556651562856 2.297769698430223
P 2.640190971287437 6.8739088254444365 1.4525982713684191 -1.4347179871996905 0.2972984583117009 -1.21043680178598
P -0.21494292681355454 0.6017956924770207 7.697080851982232 0.2354685694890977 -1.524859321372477 1.5755941287231832
P 3.0412984763119075 0.5940105187264938 4.711878831282523 1.4890816495522354 -0.0637571877523031 -0.7661789718711837
P 4.470063750606247 3.6778618257669873 5.475168899716349 -0.059442105316716974 -1.243700448935116 0.31521184825701193
P 1.9919549604629239 0.3584406363809965 10.664792423378179 0.05415077501079061 -0.1631840609920738 -0.9081588879818165
P 1.5917931357082566 6.175561031695548 8.15330482826088 -0.25325777515171866 1.0171289248253321 -0.2376043848851779
P 2.733368291988635 5.707328770265438 4.579520679010852 -0.12202918402031887 -1.4146952642208603 -0.0026369234022148133
P 2.059265144372446 5.980092628477303 12.009688837666245 -0.04891369498156738 0.5461305935918981 0.5501433142957171
Ni 2.425660620670022 1.5133016733145908 2.7967752269414206 -0.0743529609902784 0.33756759024439287 -0.7324183304809708
Ni 8.502462963797495 3.770102737573576 13.07410111961828 0.021873145924007492 1.085070325862312 0.0008610624487146461
Ni 4.56345431293691 3.5444838222239587 9.881732074480349 2.057192861180283 -0.625715235294761 0.7542734786828493
Ni 1.2060946562564618 8.942565872888556 3.4944823686643938 -0.960367708774888 -1.160372538139737 -0.1395484238510048
Ni 4.342192943928543 1.8581041167849939 7.024816218067042 0.12557499239004824 1.054380352977623 -0.009655263701576919
Ni 5.193434986004145 0.438003869747106 5.312306068780887 0.2592859836236696 -0.29250283669527044 -1.3933517655480776
Ni 3.845534646153173 8.417815308274912 11.357736859663918 -0.025263659662795198 -0.1053110999346896 0.39932703084037674
Ni 4.169253982432081 6.536949965388284 13.318991515446456 -1.2022162136484003 2.32338791321896 -0.31251064727576505
Ni 7.66978221486058 0.5419600912490217 4.916779931623295 0.8610706762447621 1.8675590906371127 -0.8877142469742196
Ni 8.169889464208174 7.948637366575 12.781879426286453 -0.6347416071630875 -0.1671039648717703 -0.3531381909891402
Ni 1.3207630246576973 0.46453854555276053 5.855497398655693 -1.6859139947263737 -1.4714523665062464 3.000589489318471
Ni 8.801984010819673 0.7055423808995487 2.259337712512105 -0.3356739727661058 0.7022996567187195 -1.321007607457712
Ni 4.160946830258124 4.421231417458664 12.298218669395762 0.5519317736547075 -0.5689175095794267 -1.4977272410423756
Ni 7.254776918420079 3.6470808601224123 1.6800510647314388 -0.9098676431428071 -1.664853831621965 -0.638567665777397
Ni 3.56582652792089 4.727631824874901 0.9629584046150195 -1.3737910698073308 -0.7803768606381205 -0.16032550849735613
Ni 8.804496553497287 2.2615850938591664 6.507136004176458 -0.7133111773378747 0.13951268551706295 -0.5997236963270058
Ni 3.5893758209140287 8.663757078050105 6.651177943467797 -0.49773009080132347 0.3624005901276727 1.8613629891287298
Ni 2.3117710477850952 2.459371340875948 6.104906662753496 0.1841336666605474 0.798843037763108 -1.353546974846314
Ni 2.704052203624736 4.747324225787274 6.61994082616367 0.8939471152578088 0.9442142389434771 -0.8155652356137955
Ni 4.484471467657955 5.269098678963595 8.244153179513308 0.2714982094191453 0.5002235466471384 -0.1880754249171148
Ni 8.761347573343718 5.744729497798635 11.313418759098365 0.3379152033917987 1.2111399985005915 3.343478234665461
Ni 7.9279343857664655 7.878907353739805 3.0991323876354895 0.6333948633272058 0.046295540632429945 1.8334436370106422
Ni 2.4692546268329107 4.041540789132678 3.023441807687976 -0.6390705735557446 0.1370238576569382 0.6991153454534669
Ni 4.412701752280047 0.60154351107174 1.6523018387753508 0.3486372177949931 -0.729949300115188 0.3097544246868666
P 4.906495195120426 9.442710207736926 13.146046991124877 0.9131812808970725 -0.6462125839171645 0.010651309066259074
P 7.532806917742221 7.472005239218992 10.608790535792961 -1.2194487754766032 1.2018567734264527 0.3698210509614599
P 9.01846135022786 8.180746244560522 5.293716034379099 0.6683999186474812 -0.8347886026197817 -0.8501959383137873
P 6.3664215614423005 3.600844512029191 12.47626523148668 -0.9867240872812298 0.02764347274888142 0.6368380846807999
P 8.307319058711045 5.946743491903949 0.3499322953653259 -0.5468168210256453 -0.271865362950577 -0.2872017361973312
P 2.5645180069527926 3.096592957969812 12.984704665721257 -0.1697303467510238 0.8628629922584946 0.5106542550621592
P 5.843247130611663 7.764044286459493 3.0484912091875285 -2.000892129706025 -0.03123221854140427 0.2593176081925534
P 2.8955617296350784 3.6660130082688647 8.641226709190803 -0.7960942713733774 -0.39892953829164196 -0.8236387566505492
Ni 6.211033313188362 6.088975658757389 1.3138706843383667 -0.1353701241035991 0.5540290225033685 1.178519384252093
Ni 5.50765116270905 8.159839293497715 9.287519439774623 1.2819507506655665 -2.649551118281153 0.51208738796426
Ni 8.415441836225211 6.048422663658181 4.894986637091929 -0.20475314268311187 -0.2121095830481831 1.087827576892475
Ni 6.2756640696667745 5.945334242874438 12.65432570064039 1.4932488935560475 -0.5860500554946553 -2.432570580293914
Ni 1.013973219483305 6.532703675549363 3.418845562693006 -0.035622891409932196 -1.5331917524975724 -1.2475139091439353
Ni 4.064153673231208 6.055589436683259 2.8581906705025024 0.28588404582717214 -1.8566481001515638 -0.3590316736554397
Ni 6.913636668151366 4.505675102726974 10.367658755468492 -0.42322183518010337 -0.11478484375307975 -0.06237907645785386
Ni 6.459608153518691 2.4714612141291186 5.565080842074168 -1.2015248440083308 0.567890610976809 0.42858824169833926
Ni 1.9029868440998694 7.477642235337034 5.223574372485285 0.2316363402272011 0.7398305637846421 2.4800138613775418
Ni 7.612781800166951 2.008893762942634 11.609982237433611 1.030103225597813 2.3743911437397047 -1.4536968422950385
Ni 6.779173913710622 3.292432216195823 8.05081348403964 -0.7271977055119798 0.9139171306218326 -0.052026786689252334
Ni 2.423537475750562 2.5509725277941406 10.50726248745439 0.9344378762830036 0.1242704146460118 0.5617924684988712
Ni 6.040727422247038 4.984745601759044 6.163880026088439 0.17518108545294994 0.33484710598943623 0.0588918892402018
Ni 6.047727310518621 5.616237508982923 3.849042934526639 1.428976970950855 0.3482142713249616 0.2896928780503011
Ni 4.966564435003318 1.9194898919454546 11.767213635076146 0.10608165955212698 1.05735383378365 -0.22508671203414138
Ni 6.5192416387674585 9.51391436922799 11.304014803238939 -1.2261734957949462 -3.5443688090693732 -0.36410060353791485
Ni 2.9065483092401454 1.0294378733071456 12.710436063315381 -0.36861211825502327 -0.10740423501829244 -0.336182279861092
Ni 6.357956795890042 0.936028768226094 7.565809304883314 0.8724105267376137 -0.2823739757913847 -0.3878090028984483
Ni 1.2890456501185132 8.06919305822452 12.820757083888079 0.7663206396553706 -0.7219503410701115 -1.1465875685405027
Ni 7.274830902965024 1.5820952772551764 0.2156642398036593 -0.14716146031157237 -0.541129540832881 1.1580058376797733
Ni 8.87386498269991 0.0029380987990258343 10.477436473454816 -0.08963842639443917 0.7199106849322633 -0.09025343427061876
Ni 4.3649819841557616 2.3748349418556973 3.6191740207880234 1.1768965039366892 1.0225038159840003 0.40166133540050825
Ni 1.2154123883265815 5.263693467225406 0.5508049831842399 -0.30192772955359615 -0.21387747358188325 -0.29183203588049095
Ni 6.487681877606575 1.294858802365245 2.8814080482636903 0.09725094863437445 0.30833209041804316 0.21941717245318984
P 5.188141030768285 4.316882089648516 2.23321561290259 0.8487301524015383 -1.8297345635901714 0.7305442533867096
P 5.3107827818364886 7.205749886393419 7.1880990422987985 -0.3388289734553197 0.21556206037315778 -0.1846095778557014
P 8.239619477043368 4.474300769069973 6.670446642533796 -2.002337861013616 0.5464283273379751 -0.7336221209810849
P 9.636852804302407 3.3448433001683475 2.921275888736051 -0.7462079280658955 0.9115458021761784 -1.1487187559508927
P 4.697230985613287 6.091404759058257 10.709151317994586 0.6766277058739122 -0.0025878153318342526 0.0941784803566378
P 9.365386938617723 0.5303226611053258 -0.07736869885765442 -0.6849516523585752 -0.2861000184927202 0.8599113658293384
P 9.056409088897512 3.8132609891023397 10.75056562384933 0.12256294503660183 -2.324149216865017 -0.5716246240979446
P 6.081725443355565 1.6038737375862329 9.578926179226883 -0.07328775295055766 0.9166083043007504 0.6540660185233121
