# total energy = -381173.4573083156 ev
CRYSTAL
PRIMVEC
9.17060494602248 0.00000000000000 0.00000000000000
0.00000000000000 9.17060494602248 0.00000000000000
0.00000000000000 0.00000000000000 13.42210731745593
PRIMCOORD
 96 1
Ni 1.4471306453989323 5.386822569172428 11.994760720250884 0.05412532108949389 -0.34996287858495206 -0.1182298648788867
Ni 3.9212406664396218 0.9902877848898531 6.126695061748184 0.36548797080374473 -0.024138544919416492 -0.6474246019473947
Ni 6.774894518134905 0.613198925203588 1.269761056323291 -1.1157705831596463 -0.7101708319366802 0.529396825776985
Ni 3.724760453527966 6.311292921713765 8.49541557264642 -0.2174471932110126 -0.7150785536509426 1.1124957690631163
Ni 3.497870514314558 3.847912508566035 5.982528565268479 0.5476408595888375 -0.7663846601240866 0.9055492182731115
Ni 4.553994072763 1.1734522792881958 8.67129860664561 -0.3861485844768898 0.8197458493540463 -0.43355638433689203
Ni 0.8816207005072786 6.2194676534811215 5.333032385329566 -1.791571936477521 -0.3763210568635067 -0.32772386468109366
Ni 2.2542355946803694 2.382128852522421 0.8799076314864198 -0.4568006995768133 0.032386386750505515 -0.6315603812216285
Ni 6.456527793680247 7.634803811217757 7.367542117451211 -0.4020721976856817 0.14967059988667128 -0.9474265752331877
Ni 6.373937324719577 0.48535885687074987 5.959133434759311 -0.36639788421252384 0.1972349799291958 0.21272819046878846
Ni 8.983634741228123 6.50087683963781 10.699728227627912 -1.4776260994171262 -0.04378588683669878 0.5603395381024285
Ni 7.514045284094271 1.4756787388782315 12.714373512179524 1.5172280300794643 0.162758543418881 -1.1087453008817485
Ni 3.6864548362896006 8.5346235774204 7.789198283494911 -1.2672563818781855 -1.5960156298023287 -1.4247032832761657
Ni 4.974237048570544 2.6094681513826274 4.26044575671921 -1.6649435631222937 -0.5035330706363457 1.594608465042157
Ni 3.7132513442068866 4.723228418110571 11.061226141691256 1.1029299797515522 0.9221492887236377 0.6681047560045655
Ni -0.0034197186181916584 4.624442660655059 1.3690016757886245 0.876128084798517 -0.05756725689150731 -1.4962503993865328
Ni 6.576029947913702 3.289798656636493 2.776161322074523 -0.6808417439552596 1.2140132062833286 -2.0389179741304946
Ni 7.003205901129003 5.387455340919962 1.0076083066227 0.10676865831682257 1.0956167339195904 1.69447551114314
Ni 5.292961426621632 8.270666052648583 9.56092983065246 -1.1031714063383968 -1.1081012395398466 -0.405297903711831
Ni 0.9831805659863977 2.8843386961481374 2.847741562628112 -0.3718712486222693 0.15729546342178072 0.13411079777520127
Ni 0.07860400695120988 1.084194780465832 5.01341203916639 0.13181197443869555 -0.5843855233080387 -0.6275751713216353
Ni 8.553707606501806 1.2779971767067664 9.424466642403598 1.113144972611341 -0.020669869644525694 0.7565064817784262
Ni 4.373855878026775 2.2019906577861943 10.728948526456401 -1.4824394616453695 0.10188639052385678 -0.5152377606677837
Ni 1.173186331742131 0.1799951332976534 8.107959343966147 -1.2608466216970995 -0.8392810911734965 2.194876721018723
P 2.2618105144406973 8.698667360317188 0.530293904490158 -0.6690378093417961 -0.6856232245043031 -1.42566333319659
Ni 6.259515685676463 3.251832351784486 11.36824332535247 1.2752486560550425 1.1350638841716192 -0.5400537912701989
P 8.561695203488787 8.840894273831626 11.331130803829383 -1.2001930125707847 -1.6644301138209852 -0.7629586651616731
Ni 8.526204961996694 4.534699119765748 3.615002984206526 0.49773600433859444 1.4457271938260006 0.8468643028373931
P 9.21700829820249 0.810277978624141 2.8283732447905665 -0.20886253686579515 -0.38589738769803217 -0.037328047026497
P 5.389381167977672 1.2034951813884798 12.558515411338508 -0.059077779998762764 1.2834754148402088 0.5689362786325041
P 6.872093760919066 0.3609109953409932 8.365543298237446 -1.4747783455556858 1.673377809932576 -1.8014745403032137
Ni 8.767226803571683 8.037109083573482 6.302015020598119 0.31611224858409426 1.0189050428891484 0.8521340358767646
Ni 2.3164398086444185 1.9635090738063765 4.396908027907569 0.9112310991492372 -0.4828660292052974 1.6672740110276834
Ni 5.044713148277712 7.215780525880097 5.27771988105061 -0.38327537669415285 0.5392528926354584 0.32877673142564023
Ni 1.9252126271730476 4.292769388292125 4.5178279576797005 -0.5727533383857492 1.0726215585759977 -1.0665419280408213
Ni 2.02656615403884 4.383677596021098 9.641381714518568 -1.5720676036271637 1.0286870619765767 1.4281092236339212
Ni 9.28853901748888 3.508581780997443 10.93638669532643 -0.990001986701553 -0.3439266996932012 -0.785708300153363
Ni 8.011293830395124 4.840593821370471 12.40162470037036 0.5401571496172826 -0.9940766709915589 -0.4664593057124999
Ni 6.336933933396425 4.166902834163189 5.1481025494616555 0.5204434732384392 1.6660429668340597 1.4005678236805428
Ni 4.264010370896981 9.045472130990703 1.1834097222370628 0.88438029750498 0.7268626907700643 -0.816076370922259
Ni 8.08216426611887 8.049397694322682 9.066968946257271 1.6466375657242545 -0.6594036286861418 1.0618944019664809
Ni 2.12429729191513 3.004143480347804 11.861787864278995 1.1122869954864198 0.1648845886229483 0.07071639267895563
Ni 7.990705822087695 1.924845802971579 6.808887199824502 -0.34320319126361537 -1.145778442375646 1.9268392164546688
Ni 6.4873868796288 0.8240137108481352 10.581882284664088 0.01612235948315933 -0.4986058085380574 1.2156548556518096
Ni 1.7607103140244234 9.236266568779595 6.101474980836708 1.1066279974284297 -0.7622755230517194 -2.040842701957034
Ni 4.856422285663844 5.196569197080703 1.5552465764188004 -0.8428796071580322 -0.9253986488988708 -0.11964859960328428
Ni 3.057305477745651 6.402678000904647 2.466916598449888 -1.2402078624008255 -0.6172061693824854 -0.5981121288655119
Ni 7.383905228018224 4.132458041645281 7.43916270866696 -1.8163740831228654 0.10428960064871072 0.29446715951049285
Ni 6.51629262670453 6.21257135849351 9.29141400216789 0.3394460382140283 -1.9494050175703264 0.32448633158040247
Ni 4.390619744033892 2.321098476003071 2.0586559351833196 0.5421849786805889 -0.4836448163528509 -0.9059911909065363
Ni 7.695953405602584 7.510395383289658 2.1380339411996285 -0.5326736967560439 -0.0040687707527349275 0.22403873038560124
Ni 0.33204376480641634 3.321886603659965 8.58067285355177 -1.0175374731176605 -0.6316313436688799 -1.1039946735706407
Ni 2.8473353048249854 8.863655715532758 10.15660281257038 -0.06313189546347837 1.7496876375389094 -0.12165791672382918
Ni 1.5727862756120246 4.8729935689651915 7.326820045785671 1.0262810236382454 -0.5425194792018722 -0.27215692604906677
Ni 3.560808376681545 6.651769974911946 13.031014328766272 -0.9196607179738291 -0.7104474826368344 0.4806456245152109
Ni 3.6254336303752877 3.6342465818155723 8.454022212692193 2.3751609320261933 -0.18781780038035395 -0.3016865600770675
P 2.039102371124032 1.6273238637653789 9.340001701773424 0.43464678918759336 1.8078632174383766 0.9440327190602902
Ni 5.752280350490626 5.613272319344073 12.19163618623962 -0.5049764879510916 -0.27999133449182106 0.7181919024689438
P 5.878449534585774 7.329367639864871 0.5276353460900138 -0.10244663390270098 0.0566804834111798 0.3002601120431861
Ni 3.0076558220768668 6.128476910306818 5.980837505699709 2.0613894157601336 0.17009492917929417 1.428095082566534
P 3.644545171271805 6.965248766882034 10.642107482061212 0.23852432559628595 -1.2718632845225775 0.7372404344599626
P 1.075583582336355 5.989808191546624 2.827393824172645 -1.8448045705494165 -0.6196155501549264 1.935545485979415
P 3.9254774859665846 0.49345191581565234 3.979373131767369 0.016075822515940055 -0.8846230096434055 -0.1672317486988862
Ni 2.6080833900220832 7.711369192669305 4.482541303619422 1.4903193786140787 1.377658523182537 -1.2506151737770785
Ni 1.5179919105176425 7.800837615407513 11.92399849766657 -0.12474941116495933 0.022154424609852168 0.6715616042049144
Ni 7.10887878296709 7.901301593584743 4.557544013972714 0.524630000515961 -0.04263454684107496 -0.9725393111404154
Ni 4.743110289830172 8.340958740255017 12.273040895969045 0.9898770310879145 0.17449820045331238 -1.2499932239223632
Ni 0.40636143096346483 7.926823387401926 3.758056169234773 -1.0367821802798853 0.9755577862517649 -0.39505102917284224
Ni 9.181609762760763 -0.1321997739672933 0.7120424574708317 -0.03473637503992082 0.7889538036738541 0.6513779301681879
Ni 8.042382181469593 6.954106481762422 13.206682770607602 0.3592751571248135 2.05217689602293 -1.3890212564935238
Ni 6.000996329691419 0.6586741214596588 3.5385375623498785 0.4041072258378395 -0.45932243755740254 -0.5219272568728173
Ni 1.6054794825679197 6.936737355822881 9.29906412088952 -0.4308405280676257 -0.17190087203978138 1.4940431073225688
Ni 7.624661122047148 6.0793041260999425 5.8853118983347485 -1.0057319958423 -1.229024077869864 -1.0488972183758647
Ni 5.317199335733675 5.556267838435843 7.181847453123238 0.5191754051592928 -1.23071586374999 -1.519022917196358
Ni 3.2158377270153724 0.8883913582058864 12.45917850052029 -0.9090106944591506 0.328226515349125 0.5452582182892739
Ni 4.430952064985373 5.114162140220767 4.274256687904505 -0.16261996095848769 0.4348131395621285 -1.713736673365597
Ni 2.5775452752498165 4.808716798262844 0.5454391587082956 -0.37210264790678493 -0.8788305713313446 0.8321938453094119
Ni 8.430133703632048 2.334074882130025 1.4297092470106816 -0.46946801063183663 -0.6459367045479585 -0.0495299884093276
Ni 4.906833101550676 7.518217909385977 2.7075881229124743 2.719294862634194 0.11293853457296033 1.2618344395316654
Ni 2.1561101207875004 2.342667739049429 7.26407109788244 -0.8016612239381936 -0.7257715145884146 -1.0062001937279703
Ni 0.8266053238315114 0.9547241785574658 12.012356360134833 0.28278972317256457 1.4794035030325232 -0.08532540084138207
Ni 0.8640920060400983 6.862629696521173 0.9472400477870013 1.4063000981786296 0.08255889383983847 -0.634970435344442
Ni 6.657822574236179 7.588721520908256 11.30789707596886 2.0634524689367497 -0.08021687597022313 -0.19575093918450157
Ni 6.380274212799948 3.4256703408604876 0.40159455046537945 0.46188942695363033 -1.7227723012053038 -0.16021957904711118
Ni 2.284590297351902 0.4920772421206485 2.4513201504639444 -0.6326654413603491 -0.4077119124699623 0.6224460776251861
Ni 5.220779594377635 2.7161681409848266 6.8456099706335305 1.8819726949592814 0.18259640408041455 0.3249115920432792
Ni 8.98456097233683 3.6923423647231726 5.89472093910242 2.16329843199181 1.533556849146475 -0.21817867206039845
Ni 4.325774395819269 3.2349676091219637 12.996559448582822 -1.0057471653509518 -0.20720957464340442 -0.15971307172433782
P 0.1010912475617429 2.963233411279011 12.992008994363603 0.7546704570109519 0.2888433855658122 0.4503282044785921
Ni 8.737073854210957 5.89806545875931 7.83095388234809 0.6328706153926198 1.316046921018327 1.4263292489153627
P 6.5913081759048735 5.621562546297266 3.27158491797307 -0.5860189451464036 0.5873795729393562 0.35564964455708425
Ni 7.663416098932313 2.5810209345587323 4.471615444778678 0.012020421499643814 -2.9480525957620194 0.40241518284739725
P 3.0590387220975903 3.897883135411104 2.578870427677622 0.10440915694571051 0.4299730378610079 0.0444353474952396
P 7.683857377559154 4.200357201337131 9.632429369881725 -0.49747940824309816 0.7133168337648296 0.30500585425828763
P 1.5819752218588148 7.202382271921453 7.291426095646463 -0.12529859880021002 0.47730061930237805 -1.736560613238648
Ni 6.43372966955897 2.4704417790260025 8.924426563929568 0.15175036523383542 1.3223846903108967 -0.1422632516790066
