# total energy = -381170.3165141984 ev
CRYSTAL
PRIMVEC
9.18911160122477 0.00000000000000 0.00000000000000

0.00000000000000 9.18911160122477 0.00000000000000

0.00000000000000 0.00000000000000 13.44919367802493

PRIMCOORD
 96 1
Ni 5.9667197741208255 8.049055124359528 12.515899645928394 0.04950247760550184 -5.522086300431148 -1.7115201253302523
Ni 4.1317828706979 1.4292376341395399 7.055850016307553 0.44537805956216847 -1.905273317358435 0.4466584689364888
Ni 8.092482864940123 1.5292611119685242 7.938681950335893 1.2428802670266659 -0.2364687286188379 -1.782336276811866
Ni 7.952119187968353 3.391250759417957 3.511221041410779 2.4392523631894636 -0.69351522565787 -2.271939624740997
Ni 4.841228218037057 2.0691949209051756 1.6977186592909208 0.45508654509918395 0.3219057153374198 3.7112071789845826
Ni 3.820667125281646 7.7107579873568595 3.787790322435846 -0.2527589811384292 0.3635419028209675 0.98052644311095
Ni 1.721653537811927 3.221491115007056 11.530921549332579 0.38689266173176595 1.767448561066756 1.381367339492692
Ni 5.5724241921122 5.694887480033825 5.32752150795865 -0.45646054262857516 0.6016558803527121 0.7377654537254972
Ni 5.923567706882892 3.0699167221003867 11.186420843208884 -1.297377369633282 -0.28532997309591507 -1.963976487626598
Ni 2.867517353918374 0.6477588423629542 5.25126474791165 -1.3182300447125748 -0.030808500740424363 -1.0214468354743957
Ni -0.08948356702789605 4.025345393096327 7.037828330986634 0.541041609104765 0.7349326122623925 1.639628738506589
Ni 6.4594858741281085 7.398162795001657 7.258193330909891 -1.2221715737244048 -1.6031797516509358 0.9328329936897289
Ni 6.675126751869291 4.769681796504997 7.546126786030603 0.9031766042758769 0.39898070324455154 0.5168755533815227
Ni 0.43051446467862436 1.891817503125398 1.4959533397970295 0.04234195530132062 0.36807630035621125 -1.0583100270493322
Ni 3.2366439597420116 3.24282823172905 8.248726245360336 -2.00010280103551 0.9937627392955659 1.3535449179637848
Ni 8.309658324288788 3.9702291027868872 11.170550328871867 0.17594675997438086 1.5063898018133797 0.004313539773689346
Ni 8.601826121952781 5.295703290748669 1.8215051792573191 -1.7482190234131827 0.2504174774894462 0.0709876440624713
Ni 2.110619435195765 0.6635383844968937 12.004709377519907 0.43698212218898935 0.950899878493769 0.5684490545834404
Ni 4.807816608906493 0.7689760867757482 3.927769894550176 1.9303675413229013 0.5830647476140862 -0.0028315559115241556
Ni 6.164083509243556 7.9442900650367685 3.847733652975286 -1.0999480143050928 -0.2747912783481203 -0.7299356732684331
Ni 7.232795545850495 5.516030615315096 13.16604765726108 -0.43907448594164383 0.16862554372261926 -0.9339406249316109
Ni 6.351734353593183 2.6835145868033004 6.699069900590578 0.9192935644423975 -1.2265339644581585 -0.9599864141760693
Ni 4.5601332996366315 8.876709201031902 1.847260420751033 1.4160618055510839 -0.6889664299449231 -0.3068765889184392
Ni 3.098945125082634 4.899036917993157 4.382190751504399 0.5406739413527011 -1.327665736204178 -0.29946641249729716
P 1.8180197492949366 8.726687767955559 3.2467427931948416 0.4430380985750822 -0.9031568067815349 -0.5848514072008637
Ni 1.3548609662894893 7.682161472611448 5.015419770886812 0.0842131416138098 1.4601863066741239 -0.27882713898039074
P 2.51824841787778 4.626129497869775 6.531385157538775 -0.8166754379588387 1.2908650224360607 0.531794122364568
Ni 4.654597365055278 2.635988502528472 13.177385182933604 -0.8381248660818663 1.4922708459134943 -2.876960822021516
P 2.5747246966776833 1.962408257069565 10.142965079345444 1.708914055165973 -0.785388454920099 -0.07512891992435447
P 7.100849094941318 1.4374802670851161 4.199402784919319 -0.29708068587394 -0.514004916701947 -0.3681164095655273
P 0.6114921763135603 0.5816192939916269 6.679716713024604 -0.15645471268804023 -0.2812383195250447 -1.6075513983560703
Ni 8.70309012982374 2.2610727565089443 5.581482818152055 0.5237175160040206 -1.523459355701157 -0.5245608378409224
Ni -0.13138132055672044 3.9398682786484436 0.16213543866402816 1.4905196675503427 -0.378437074765245 -1.301060989132456
Ni 2.2255200844170435 3.0009432517665 0.4321060187769229 0.47051033585342195 -0.9353585883250601 -0.475503161082323
Ni 1.4227041759184642 8.061046914765301 1.159432458032242 0.9109724461712119 0.3782105605767358 -0.02023792431342966
Ni 1.0097730759459274 7.59050927528795 9.21511844519392 0.7312376799093083 -0.280523295735891 -0.25883269813633486
Ni 5.756399391893009 3.629864415714257 4.162512178204368 -1.7359165518967459 -0.8918699210138059 -1.353170822453818
Ni 7.3286104106481815 2.376561508861234 1.630472741904379 -0.5481383680505463 -0.8356812896373802 0.19356601571804086
Ni 1.689960292517286 1.2859426306241353 8.31468109259208 1.4804653686381342 -1.2562132366901462 0.02938950890571067
Ni 4.285682108794347 3.4513107916724577 6.146711494100176 0.14595535581861316 1.0270618676683279 -1.4388196680728897
Ni 3.7602119612359974 4.36087660756096 10.303924311747448 -0.15336218980564556 -2.2189646152058624 0.4032939859079248
Ni 5.97818778517554 0.6132390263948915 -0.04007647164497464 0.5814966317960178 3.707097270581267 2.140179072365527
Ni 4.934277160296707 8.511267428888505 5.777517807763157 -1.1868021930861754 0.12786224576232819 0.8299562142281448
Ni 4.492087929556372 5.475276906158317 7.8181639973023165 -0.4486387325913112 0.0035149551317939466 0.7207992581848038
Ni 3.6842915226670434 8.00031607737699 12.127675309836317 -0.6479501354335615 -1.1129405699100186 0.3950168335007971
Ni 1.2636774136485147 6.410581423139973 6.877527038962446 -0.6012712433197839 -2.379223789241657 1.2591412089702185
Ni 8.632407484765354 7.504379733929102 0.13179483057071256 -1.2991064365092466 0.4759443623847997 0.783116885277103
Ni 7.504177573477816 4.2933458277203345 5.345328168072293 1.3291371785433819 2.3075388620018455 3.1524442413406546
Ni 7.817884648315086 9.064929770289696 11.537942030459023 0.09360615279293556 0.4478224073376029 0.9397040097779493
Ni 6.201547516511243 4.413704809126309 1.5542159818573777 -0.14026910406711324 0.5966735966467724 0.36488684688463613
Ni 3.5507645445932745 4.758480269681522 13.01715189033394 -0.04758083510275676 -0.13460856334722623 -0.6467602288905184
Ni 1.566964036133184 5.767656053385017 0.33684066284227476 -0.19482971292181284 1.2022223842959874 -1.036008021118022
Ni 8.092519621385813 6.8612797710571245 11.33882685069925 -0.16927551860179235 -2.1153198472300017 -1.2314411719517888
Ni 4.720474104839934 0.8556000023291032 11.197207022196084 0.3267419603837986 0.7240892417899852 0.4887960215364872
Ni 8.114885918587076 8.458200310426182 4.790253460245534 2.215702913735455 0.8222071664103452 -1.2027504888853158
Ni 7.19713260442153 -0.0007342100026215747 2.188641423546941 0.5657313985419612 1.6240391115984483 0.03209482365201569
P 4.44737371337669 7.82633863082337 7.9309897451644975 -0.29251800620392204 -0.18964071252170564 1.3415021278666381
Ni 7.133819626723623 5.898426298032171 3.6220692924949347 0.7314503101407468 -1.1097868547723855 -1.0975401761945485
P 4.742693376258445 5.774878694962745 11.68639396330448 1.5683657292955442 1.5133343514520132 -0.15374425573541264
Ni 8.39234194886437 6.1965853963433375 8.761813146366334 -0.8223321220239838 -1.2948042095894667 0.2874169375319308
P 3.762417347977289 0.6191255711718551 0.04657960579835747 -0.6186506151384958 -0.07170395340320554 -0.8470015997462058
P 5.014286753448473 5.76879550320135 3.0052897014691284 -0.2116794374893 0.8632124051781134 0.1203834208867798
P 3.84622204414636 2.616121643634006 3.9514134782391035 -2.0990529917491787 0.7534355561625863 -0.1810714827954559
Ni 7.4973960092483445 1.5139428632279714 9.996838910600905 -1.2499754833105505 0.4473603800995199 1.779981146316128
Ni 3.811009369177075 4.409505385206434 1.8301934841068648 -0.19846011058554852 -1.038648544064663 0.6853920823301035
Ni 6.169054818522884 5.120816122164267 9.985608897532023 0.09756693721289648 0.22160081036806997 0.13107663893456778
Ni 5.302852419435022 2.689101566547905 8.746884515950075 1.5267395691143253 1.1075147709087572 1.3767290693897323
Ni 3.568527096972092 6.630541183249519 5.996834330073159 -1.2874498261069247 -0.3041933856593213 -0.11142595458317583
Ni 3.1761796065849413 8.827271781581288 9.924011526936612 -0.7819262074031115 0.5033284108247075 -1.3818417080259493
Ni 1.3093840538617778 5.1714297478769025 9.498035564389337 0.3703095605621042 -0.05896567990093071 0.6421286436557779
Ni 1.4999110900865054 2.5807068082134355 3.686491395941481 1.2361717446582388 0.6722061797674488 0.5230256321433187
Ni 2.6059768646240657 6.3280999590156775 2.5841141307287305 -1.4191512431096849 0.28352968666238265 -1.1083681200479878
Ni 7.044529031035591 3.106746680679952 12.947928476169372 -0.17736755158130743 -0.8264104058584154 1.5611517280456082
Ni 0.8187268549258541 5.660409933978302 4.099287415976114 -1.136061472198198 -1.3238972703006813 0.4279673202848887
Ni 6.580993494461839 7.198639618694744 1.3604258921666812 0.3721296444899785 -1.282032254635779 0.6185989359649539
Ni 8.599841273885618 7.9565299614509355 7.194578950357342 2.413759361124682 1.3912709717596492 -0.15876510598877172
Ni 0.09100712170167148 0.7653381175637597 3.3934873891380835 -0.7397197492383906 -0.1232633135377361 0.6457934941018749
Ni 2.64455275437382 0.9600691722640738 1.8703250904203716 -0.8889465767194238 1.346110830283243 0.5362164198019796
Ni 5.431858354689143 0.42227918302218553 8.9388854856469 0.4670169779881828 -0.5187884541335194 -1.0540257978516816
Ni 5.837686271532439 7.584306625078068 10.037441918330364 0.7911747225845729 -0.17316534057450178 0.4064698125327451
Ni 1.371870011531699 4.369358157403509 2.0560453024602263 0.49992992666611963 -1.461300365673909 1.8618538127222193
Ni 3.7099199544231327 6.535755498931102 9.96395567537711 -1.029889052704478 1.0789531572209803 -1.016858958993397
Ni 0.5620832431083544 0.4078734130458421 10.168746969262282 -0.5645124385331954 0.04404762513851768 0.4425364763483153
Ni 9.074991847296838 1.891256967328653 12.109505679821504 0.4909991998353931 -0.13470292283324542 -0.551094879575709
Ni 6.892219509215157 0.3088800346072694 6.2569551016527605 -0.8075259102490867 2.215032112920676 0.6339720759869146
Ni 0.9757917419071966 7.736901009352585 11.937718917430898 1.4939544042635042 -0.5313148687353043 -0.7969123963992985
Ni 0.5444658786900055 2.811298370238289 9.543857068495376 -0.9140981362843871 0.5747881094275907 -0.461408887772786
Ni 1.8880591565537808 2.5674744877656877 6.485321979802337 -0.7031668898150213 0.07730638719164751 -1.9997251059811174
P 7.839313656151301 8.29054497253093 9.262284316301004 -0.09978785612361525 0.38325943585455285 0.9096987216651107
Ni 2.528108334433637 8.324857114580855 7.166483242184433 -0.5819653439023202 1.6898552387623091 0.8606744692476079
P 7.860908067993112 6.627940664717078 5.619840007049964 -0.4246043173499268 -2.9266975271250115 0.32846665638438916
Ni -0.3770852952262728 7.2472132616716864 2.757663364690084 0.8998269710773535 2.4789504531100337 -0.16474497772129046
P 0.8613753588578598 5.318887418866495 11.751232333498445 -0.6056076659116086 0.9866610952537781 -0.49796920339532297
P 7.703002377316651 3.5327171297603743 9.129823275152193 -0.7661666305760095 0.9148872078445858 -1.2061757125167807
P 8.094513658564397 0.9143882615627925 0.17117568648103826 0.4126414885610958 -1.032230813463777 1.0847096000887835
Ni 4.3917244546047725 6.826094663422106 0.930809203673991 -0.8624415884503598 -1.5013982621360595 -0.7022587761784551
