# total energy = -340864.3898641805 ev
CRYSTAL
PRIMVEC
9.29043354910824 0.00000000000000 0.00000000000000

0.00000000000000 9.29043354910824 0.00000000000000

0.00000000000000 0.00000000000000 13.59748859053457

PRIMCOORD
 96 1
Ni 7.132888265676335 8.880353776118772 7.442979710200015 1.6823316766917544 1.362752552604982 2.137866622182267
Ni 6.2941572187089685 4.843716158056556 13.054106115244329 0.6083304641594104 0.27511523734644233 0.11484037958136352
Ni 5.51138245278021 8.904090833740163 5.948602331385924 -1.4504202284262957 -0.16200675285452099 -1.5560730279711201
Ni 7.512281698977615 6.405995457318093 8.479829251796021 -0.9001362747876562 1.2159988692547896 -0.8369419015173587
Ni 5.450204948108247 6.630006390142749 4.6217045265235335 1.4436679973041266 0.9394504990062464 -2.5796785616597315
Ni 0.3534917046717544 6.205647258646739 4.064860096982867 2.79989277609292 0.13586840389625632 -1.1409815352076351
Ni 5.571203554159521 4.37869279908155 4.022939802893144 0.7112545519191622 -1.2370675169996308 -0.001767890533700181
Ni 5.445671216554729 1.889330430160109 6.006010707182349 0.6490078872741145 0.9215563923346451 0.24824283843563053
Ni 1.012257764091575 5.874982149112267 7.980379262401514 -1.1164575819243419 0.9249988423572908 0.3595168408219744
Ni 3.729319367941662 0.9292384502345278 4.342548367505807 0.33152164116062904 -0.9193958943482167 1.0119435239696508
Ni 8.331772258143063 0.936550021407927 3.15816674175023 2.191121881961981 0.8070427999650811 -0.023270797602482504
Ni 3.961097103181771 6.042674473991375 11.029766176254542 -2.8935374954332747 -3.433780005675512 1.3459503934459789
Ni 4.3590806939391795 0.7803750469527878 10.934162041163077 -0.30559952197822854 -0.4961810011466487 0.05853887677615724
Ni 1.2414248875150071 3.8322573712469534 11.51643345818084 -0.07967643008572084 0.1442633128281709 -1.1449554322537183
Ni 8.564757749739643 4.227379508482879 0.7385485862415285 -0.029932011672742 -1.1482189334963386 -1.424682200230243
Ni 6.552208299919057 1.4477282540671104 0.5820772469573785 -1.3781192648690395 0.40296205648980277 -1.1286824061253078
Ni 8.262827951055648 2.427673890406357 6.8594708074385435 -1.8305375191074407 0.7733685476410874 -0.08742007858688171
Ni 1.0937255755522342 2.585843520936374 7.518038051581223 1.4256160248984222 0.19844545529752922 0.4106907925926282
Ni 3.194636338498869 0.053227680716336365 0.5794935773978839 -0.3702136584141882 0.43365691447049837 -0.721985308073105
Ni 6.394884098838569 4.383644600143078 6.5545058241264025 -0.39512816226768077 -0.00988332055198298 -0.7183189149651114
Ni 8.981266464918598 2.0124751263524954 12.020668949877024 -0.3394601792814154 0.2292724679807148 -0.8248140079055731
Ni 5.469937828886266 8.75169985285418 1.1128062678977584 -2.213961248454 -0.27979490221029873 0.5197521035983693
Ni 1.893037313131121 9.305484013596221 8.586881988103471 0.22590663683227546 -1.017522560719325 -0.4227898898490073
Ni 4.5969901152967525 7.242645447178926 12.788533499063483 0.7813065715412415 0.8655235698097933 0.5479743316688563
P 8.673149237516071 9.152033923289949 12.151192108364091 -0.4537272028578121 -0.43405723523271056 1.9165928561363121
P 4.583175240665437 3.3857684271270068 7.425180168635699 -0.5152835263040545 -0.4159224733052127 -1.0813265425491636
P 2.619400566779218 0.4161798338326556 6.336538318300853 1.740053971103887 -0.10678125672231285 1.1459458211914457
P 1.9901223433242885 6.090640982210258 5.7764580307681985 0.37088085968454193 -1.3564289243797996 0.07403362997764669
P 2.5087050514919844 8.249477598099897 11.846362765381215 2.6081926099390245 -3.7028364384223846 1.2840338584468403
P 4.709116357344728 1.4659560846162965 13.125614581980864 -0.4884113845035589 -0.9568118731028296 0.011504401095173734
P 7.636950026265856 5.68513214030869 4.354078724536691 -2.300947324827257 -0.6893718929134579 0.17666949707301832
P 4.914193386673338 8.633376891654162 3.3643446874499308 -0.2577448643887948 -0.4672617470091372 0.24806748920003086
Ni 7.3927881431551725 2.5794702835476166 4.55936014340255 0.3222065344072903 1.7170477400167012 0.19071363387091025
Ni 3.5281629015548233 7.891693713145918 5.011164144534316 -1.496170695188533 0.2736553649714642 0.074880037138342
Ni 1.3998732310503637 7.941843473239959 6.436996704901976 -0.5698911863466056 -1.2335116813275724 0.2314609909916014
Ni 8.812069089810658 5.345288082465047 6.144405649983548 -0.5738208604183149 -0.6237871650341128 1.0004110978500191
Ni 3.1217157258686137 5.730906106218904 3.7520642072640458 0.025723372908033115 -0.28757326060413696 0.7006718913073093
Ni 5.3871879376010465 3.4827977147191067 1.5506439603319748 1.0450102246166326 -0.05302951692215383 0.449916056641838
Ni 2.8549223467243845 7.048010865117027 0.7633549727600717 0.15333519322245204 -2.334690996936605 -0.9400976456719423
Ni 1.5136996224309078 4.16133381665099 4.888745960242514 -0.6542282551327894 -0.7958181348938552 0.3430016167757706
Ni 3.796136165754988 2.9061033449381797 11.718560774869612 -1.4397910308472237 0.24730952798808375 2.0749301305590455
Ni 8.706418279920065 1.3490731406105319 0.5403938589221934 2.0898373866881816 0.3073923522125932 1.2876244040115759
Ni 3.7893355684247108 3.5969121095385015 5.380023155277125 -0.21588756203337658 0.22358004558162783 0.2593181224131857
Ni 7.1114738164327695 8.264091450013185 2.854044400757566 -1.1413378901057891 -1.291875465978446 1.1510162937358177
Ni 2.762872731494346 4.542836178359338 7.433910389006276 -1.493307514708125 -1.4120169460577487 0.6804229112502863
Ni 8.774619352326576 5.53055790754755 9.954177385003081 -0.3091622996288224 -2.2174669476144135 1.907258980329896
Ni 8.293848708549904 8.167703202333366 10.31228086086985 1.7921103254794943 -1.2087252184115118 0.037162725093226316
Ni 4.963451265150292 5.683431990976121 2.2319458243201753 -0.18924836217929342 1.2779812244948572 -1.169052325301922
Ni 4.117083481836631 5.872771025936576 6.2442387904093595 1.4532245306443101 -0.18020219281662514 -0.08646157132835432
Ni 0.3937759534201366 6.037313893855351 13.104498355653014 3.286381489652469 -1.3707401987961492 -0.14807574459572562
Ni 4.593106714089026 5.048709573483565 8.865644232740317 0.7039011968778844 1.6094218759059056 0.015759062606469636
Ni 6.5888683505546775 6.949086329088619 6.531730326373432 -1.0558636223913687 -2.1761099819341814 -0.28560302425164363
Ni 8.454480303960418 3.0912152326509896 10.001442465491863 -0.08816055629733204 0.3273425700822749 -0.6073755564453088
Ni 6.074986601743703 6.273578908481421 10.383749378742289 1.284316936904898 -0.14011869453217804 0.8188536765570801
Ni 8.274422412077758 7.710790391813732 5.137539124458585 -0.18851816888148823 1.770865814278421 -0.02398916382574578
Ni 2.4215700755894276 7.973793274085347 2.74969796773196 1.1059913922856952 0.7685166188654248 0.6408178952641544
P -0.07529153126234152 7.782558990688585 8.290891563563255 0.45138029989219036 1.624568501739357 -0.12972886665742173
P 7.432179581243118 0.5847733307623602 5.319636266496975 -0.3486611290543931 -0.8388995394643616 0.6435034125161175
P 5.277802373438907 7.46386924995019 8.312307870893521 0.43651572407553213 -0.7928580238242667 -1.3977054145310832
P 1.6935159630422725 5.646223804763332 2.161144359573849 -0.9162468071962737 0.546674124800194 -0.14957418351812304
P 3.873915675111658 2.7474134501315297 3.439308266409323 0.425392360468861 1.6616659208122866 -2.3204617407111003
P 0.4675856605374245 2.225095987692288 5.168527365435552 -1.3167074374204613 3.4377361621097826 0.24394961037691532
P 6.392663685229366 6.789885460438847 1.0009039252974057 0.09324002770276846 -1.10015473099926 -0.8198486934804977
P 8.357097979894888 4.5564931156209605 12.101478998645083 -0.4504487892168565 -0.6859739229755025 -1.1770106609170503
Ni 9.071439412579352 0.8746775923093187 9.023225778829069 -0.672948714360428 -0.18671505423447843 -0.0878823629352809
Ni 4.073297668697837 4.768296418811759 -0.07341393464970618 -1.5201500888222657 0.23084135512973147 0.21369312548521907
Ni 6.117982728034037 1.331811515146522 2.9092639504187265 -2.866277117055425 -0.22233666009283 0.9788405707680948
Ni 6.233936628688671 8.618642264105228 9.835852565716362 -1.6663520134340464 1.3378956414623024 -0.8955877361850253
Ni 8.823096834388581 4.203707483896066 3.0420298195554234 -0.12201324318071892 -0.02052820186033884 0.9299646710029984
Ni 7.681544107120134 8.498916447445003 0.6233239846175322 1.2560898237384044 0.5650739674636205 -1.272602476681447
Ni 3.1109759847295417 7.175549936360261 7.935398699513165 0.5368779646453786 0.22682400644022227 -0.17735032519012683
Ni 1.2065114383795121 0.4622436612684225 4.748623925851565 1.5603667702504673 -2.1827123177420473 -3.231058034489816
Ni 0.19919339778589934 8.255850835488655 2.9990624936089754 -0.2497937278625182 0.3872618721457266 -0.8609333793359495
Ni 3.9727565972384626 7.839295668142142 9.983602046020097 -1.1194842845658073 2.6120217538771273 0.2099056334183288
Ni 3.972998148509757 2.874274319728439 9.434236415456034 -1.1293033275387585 -1.0851556864872667 0.09057867882052142
Ni 4.113841120541184 0.7084670915752647 8.38109795678465 1.0346268244997794 -0.2689268491475433 -1.0582640043027454
Ni 6.306755046550302 2.667831596673666 8.453993485244425 0.10087877519494887 0.1203062877919412 -0.29442293653611873
Ni 6.775550321530899 2.5452164551914245 11.850442194736033 -1.6828795787754243 0.15648916547040145 -0.5294788439678301
Ni 6.211500231758863 9.012909681458114 12.119971606549342 0.6242736177522281 0.42440479974461104 1.042215692590631
Ni 0.8360526149860562 8.258610094241513 0.4608315153747037 -0.35929521172947154 0.5046777257637501 -1.057355633555863
Ni 3.356986664108975 2.5115943763140014 1.155608224127705 -0.3869155445499014 0.13164382429194746 -0.20312563438201794
Ni 1.499095060951132 2.6797512228686737 2.870511694156359 0.33332552713858726 -1.0687705602610238 0.46625773122465514
Ni 8.645408003051307 6.460056489920394 1.4993133861386478 0.03956310700460283 0.23350784621830106 1.630282521404999
Ni 7.698359791775601 6.725028944096406 12.555989303058691 -1.6496493559673848 1.1769348133737922 -1.28283778125621
Ni 9.340323139263628 0.3712234260714367 6.655399932059208 -1.7731659231665073 0.5629823750419143 0.9982063768892163
Ni 1.5233430924156455 0.5886019184123701 11.400746192967983 -1.3047852320615787 1.3856006608477491 -2.4064836533988747
Ni 1.6067154427461228 1.7974015905657175 13.226685208150384 0.9965385022684901 1.6549196032273885 1.522937421759416
Ni 1.0802079947932812 6.6375409317204195 10.837416111793072 2.165647391839961 2.218985698251785 1.017736219392028
P 5.284890974208035 4.195764163243898 11.088575549424473 0.48683786936885187 1.2927437275160125 -0.7403494124025894
P 2.0085917251447687 5.0674948300434295 9.752798877255323 1.3888243099913695 -0.5535626243899111 -0.4851046887278291
P 1.6343544824422636 1.9287125778145433 9.580491065007799 0.6742746322607033 1.0222924713041426 0.40998373922327463
P 7.129989650420806 1.3014410879980562 9.773725578739544 -0.40835288848807094 -0.74319382382992 1.6134052860336858
P 1.8590250360462226 4.22121066063137 13.5303578921611 0.9672680354391471 -0.55178882031894 0.736049499475655
P 7.501699895208236 2.7863124952433758 2.0078596389840775 0.21461743707170133 0.24121729904741684 0.4902967744517298
P 1.2477888344702532 0.7227669268358698 1.6496744073024103 0.6644175369609654 0.5081787969384732 1.161942196619702
P 7.780775227454414 4.296853370280439 8.210271968682179 1.3960308550421376 0.041728747197353935 -0.34462244020864513
