# total energy = -381174.9022251797 ev
CRYSTAL
PRIMVEC
9.22223043142586 0.00000000000000 0.00000000000000
0.00000000000000 9.22223043142586 0.00000000000000
0.00000000000000 0.00000000000000 13.49766643372888
PRIMCOORD
 96 1
Ni 2.04246583480406 7.020588973457669 4.386593596155002 0.8224989866191511 0.19404321246477552 -0.24721054051637423
Ni 0.6701970131677917 8.133177306260151 11.346692115272408 -0.10301639036324194 -0.521382954333573 -0.7230032078146581
Ni 2.693518419662766 5.658732972286639 1.111123842598001 0.8176048917516434 -0.16000514904345992 -0.19199147214206935
Ni 0.34278385237674536 4.734960586880571 0.4898738178450996 1.8379150425184345 -0.787651797032979 1.1142538894048035
Ni 4.157722734998365 6.559403670273152 3.094380190879194 -1.6400557987416786 -0.5186822675729583 1.4056820049786565
Ni 2.3077709620239486 2.9141602845381778 5.906767628436427 0.20760089654455216 -0.2885039999485225 -0.576424102369117
Ni 0.444176743460809 4.590208456845692 8.221644319065872 1.511992749822454 0.3050343935033779 1.4215451972631583
Ni 2.203836424212208 4.779716071530116 12.424372461160518 0.8119078413668662 -0.8618607762462253 -0.3402813896311301
Ni 5.600743586859823 2.1872548537609653 1.1045354811239365 -1.7509446498744619 -0.8217587660190171 1.0317556735995714
Ni 8.343388828432362 3.6770047476004257 12.35215962962305 0.6114924068271597 -2.256072575801753 0.3659721095290149
Ni 6.460292359016473 7.790091886945834 13.266168439591558 -2.7107058354136027 -0.4963854038479709 -1.396385667278395
Ni 0.40072435998187583 8.7623455381262 7.119371051085256 -0.3379365435480373 0.04165958452231535 0.5238306445431172
Ni 5.772885741499924 4.328527666214979 8.959508526354325 -1.0810390932157317 0.05183472528310428 0.2996391906297356
Ni 6.045393430745632 6.508764402560263 1.8023032746148853 1.9607201854728296 -0.22983014025639772 0.526831379042654
Ni 8.464043270152947 6.306502443084923 4.30007339620927 -0.30948625862714446 -0.8807506711721929 -0.38366387038182315
Ni 8.700169260049291 7.14282041659492 1.6474979911045344 -0.9210655687411556 1.1543867528699474 1.0668648585978788
Ni 2.9282334082915686 0.8697485590971811 9.809456034330337 0.1793035922617557 0.9925134402694972 -0.23824073291759612
Ni 6.863681943614817 4.586713231483611 5.582337859214333 0.6658550407384404 -0.3429476236093835 0.09508787954478463
Ni 1.579362307674126 1.3393445365039085 3.873547079715443 -1.3480329870066203 -0.5783362317901652 0.7236511258113021
Ni 7.899495207448112 5.857674928779529 9.407293006389398 -0.3314023419739454 1.1394342453251731 -0.45573806264025385
Ni 3.4072360608152414 -0.33812570374775597 3.9654392289313924 -1.6588101965310464 -0.0727079691876877 -1.5545740748280905
Ni 0.9815957706837638 6.927822556789676 9.180397547007319 -0.12083284971937254 -0.665926260296008 -1.0170777598724225
Ni 4.829221004890667 1.1824375066610557 5.570149759376534 0.03166827763755836 1.743248823892101 0.504131366341977
Ni 3.13722759603688 2.5657536382214308 11.490752578019277 1.2348869644085443 0.5231948107313311 -0.30333515142408407
P 8.95688849066734 1.4232022785023248 12.796881406906811 -1.0060927216158284 0.4177929508550482 -0.07120567361054833
Ni 1.5845820901409802 2.300430066540528 13.526417017824565 0.0731126608252741 0.5344377306350022 0.19527348532745079
P 2.8349228800236723 3.229191678650782 1.5023446940426102 0.2354415729059042 0.482265419506821 0.925942951438115
Ni 3.2832062827291635 3.4486438757908147 8.701810817079505 -0.06943392642210623 1.8970483583454814 1.5414059128772486
P 2.3323850952466225 4.914664970536256 6.960773586390505 0.8615951812896646 -1.0802600489578622 0.6409317951341994
P 7.4838585007367255 4.3500523522178725 7.746216203086639 0.6555683141004516 0.4160366302855738 -1.1022260117059919
P 5.266410064296467 8.221766052508562 8.60368259559485 -0.5386000895428078 1.5360158522099288 -1.3818962154129684
Ni 7.685521015229124 8.502638304823945 9.816380084994849 0.9147396265231278 -0.5812372074870441 -1.2590293659827025
Ni 1.027513256377167 5.861520598900868 2.6659919060460417 -0.46521746288559873 -1.3818087979054847 0.3481456228705552
Ni 1.8259463069651922 1.8750731288749651 8.022999318395302 -2.222941083355107 -1.095268349441236 -0.6532010994198557
Ni 7.7839959925808335 2.0813375363902606 1.1722653864120451 2.455572954726358 0.7362078794303901 -1.0658590430411836
Ni 0.6995421506404588 2.9461522021662994 2.3687326723431097 0.11256803860741903 0.5575997705737622 0.171650189481556
Ni 7.992538291031311 4.79447164034101 2.3578402958915174 0.02475612389875736 -0.5537608564436464 0.8247471592233796
Ni 5.987422489779829 6.581564690181016 7.410111090042924 0.7767199806118236 -0.42142309140846773 -0.5982471117814794
Ni 4.416655300938049 8.266622981693681 5.985810443887238 1.3596505166408905 -1.297577915679862 0.8179131670206817
Ni 6.677245331689161 9.411101787588711 7.149876345155679 -1.0840477981350685 -1.3443298271234203 0.37915338410597926
Ni 6.445813457120782 1.300445168226187 9.157343815186398 0.007163350517658631 0.1178413711912164 1.1018436886659089
Ni 0.39093311785279644 0.24364948554379923 1.7348149917660551 1.1722628618194197 0.26982776369525785 -1.3322934647841764
Ni 4.302013753507903 3.6587447311969434 13.295876010723145 -1.3238633317389523 0.4351730940047086 1.5250634669634833
Ni 3.8203827652897893 6.079644794847921 8.4769128928252 -0.6247009350976337 -0.3537593695129069 0.24959986668415726
Ni 1.0728312970876277 5.050480759210035 5.1834275119731466 -0.4867123995345811 -0.7382007414907029 -0.13183202904335362
Ni 3.6668602940429356 2.0669324123386246 3.7308358292917223 1.0177148792357893 1.1777035732190169 -0.10089060226949076
Ni 9.13444409461494 3.291331067805663 6.486694682734418 -0.7318933112154363 -0.3550498061895563 -1.0759711917745212
Ni 4.830475228239593 6.0514247694970855 13.37340730259389 -0.5871800553340404 -0.3162983964529714 -1.198022744392343
Ni 7.957724370868106 3.511161376396475 9.782244920996945 -0.7763039761203275 -0.15041956223755384 -0.3047891102617912
Ni 0.96151897487044 3.360626907833827 10.303686433866853 1.6256470795155165 0.07118973277094837 0.4662672443063518
Ni 2.9355835260054954 7.812197573470656 10.279229078562796 0.3397625410131826 -1.4437078494031266 1.129550410552558
Ni 0.366262729024031 5.607300592750165 11.257202357103484 -0.8729653707998192 0.056106356075264666 -0.4027571395678483
Ni 4.946038998720421 -0.13051577280151666 10.771663909819635 -0.2457007887400672 1.8280672031900773 -1.2342079360636486
Ni 2.734382123038438 4.48356258326495 3.434157596110719 -0.10574227393483725 -0.7998493675404353 0.9055204219177051
Ni 6.057142552411307 6.481844711710886 4.348732651032348 -0.011916548931927866 0.042077131675708174 -0.3700205685667757
Ni 3.3052105247184107 1.0453213834858157 1.6278325067718142 0.27054612991852117 1.1716062020720273 1.3732112860444607
P 4.989641704556615 4.441361656465791 4.349231573702766 -0.3764421558224033 -0.04039691575980785 0.07727784794655723
Ni 8.621688078436344 1.4453079650271468 10.536872376677627 0.6452872438894177 -0.26150098899711743 -0.4128204373411213
P 2.5021755811074877 5.3878576178406385 10.288029853135443 -0.2377756203557195 -0.20699257353659192 -0.24675185571240082
Ni 2.528698716045071 9.042867345682323 13.51183943806245 -2.5171611598518004 -1.824474857853129 -1.0789415872567547
P 8.818997700129529 3.3358836633840583 4.292999945410547 -0.17566908083296198 -0.06516229562994584 -0.28699270551031864
P 0.8968978834861768 -0.13658400047499714 9.417942838178663 0.09898310083413275 1.541474818441971 -1.2103000190977995
P 7.4347132343659394 8.158566106845399 3.2854666514263826 0.39356570287656734 -0.4757769835689999 -0.00168972899759709
Ni 6.690184121090215 -0.03302019632963055 1.4204678871570562 0.06891456358352648 0.4332000294387378 1.5297531591296687
Ni 8.588220603927134 8.534980667211325 13.22232780020829 0.9727020619705247 1.33803525236396 0.9806570551515433
Ni 1.1483705871689023 6.85286426723033 -0.29783377866350635 0.24600803556784087 0.03001762940801282 1.1697534651340047
Ni 4.418029413283564 3.879100706926644 6.5616741834239285 0.5542696777592648 -0.6601929573566566 -0.23938667359658125
Ni 4.225450795840373 7.950208253005057 1.4101150111901122 -0.3463489359814486 1.2584878916569358 -1.1025376294091398
Ni 4.53099251476147 0.6395792078851849 12.980786516558346 1.6067008774303169 1.0329355528402855 0.4824852488271111
Ni 6.948111463904656 0.3749334701465331 11.760665131600367 0.0677393123285027 0.7335380459077109 1.0484578168456007
Ni 5.767103402972156 7.069605128601361 10.202467842939368 0.4901463649167946 -2.840672272003127 1.045619576065857
Ni 8.61352640443782 6.214446138165952 6.7896228215298855 -0.23433574143623512 0.41809428414555094 0.07323478822543517
Ni 6.479197931555433 2.440266747715277 6.906270204095262 -0.123684974456187 1.298187524239403 -0.29185157626451674
Ni 7.80342723225868 5.9256335453842075 -0.06880245069605047 -1.0813905630178795 -0.816500088723239 -0.46824622240959357
Ni 8.413044335450293 1.567041407717029 7.922050016598615 1.4879812173992053 -0.271421590544939 0.9480513533013802
Ni 2.513601924705424 0.3285936062959179 6.058994376297074 -1.1424727750411807 1.0374082438996586 -0.5404368856412306
Ni 4.091525564420489 6.0149785145341745 5.638879354451581 -0.8138395111719403 -0.21502701380529415 -0.019894167820765737
Ni 8.451298147592539 1.2494646779845453 5.462478373763434 -0.015366712264057407 -0.38730815200262975 1.6358348186817955
Ni 7.280969429586922 7.949350585567923 5.609697450458884 0.6932342040823416 0.4455161278019295 -0.1651051892741866
Ni 2.1268584661718712 7.014640634780778 6.72047453718983 -1.1298548291668542 -0.287713128616111 -0.4378694098899491
Ni 0.183314886899101 8.382795419387959 4.405327635206535 0.24048222065360522 1.5361672901861285 0.17210656029268423
Ni 5.5532583219802625 -0.1563942738266741 3.850209303194912 1.9012888787893902 0.2549834995935738 -0.9441934130078706
Ni 8.340935715117551 1.1282384579725377 3.2798521574938375 -1.5042910103028224 0.6114924068271597 0.021232169905898917
Ni 6.0752826798182005 2.593235885131722 3.904226673942446 0.6416205936711078 -0.05588781230655536 0.08923527741874955
Ni 3.1100220160417926 8.536013557028088 8.037064142141237 0.5896953655567263 0.3446826040226193 0.7441420466758023
Ni 4.501979377587048 4.521281506037799 11.21556214191914 -0.3584071526975634 0.973094412312937 -1.5180983484995598
Ni 4.223532571894956 1.518846031088444 7.870664670437725 1.0663982033741053 -0.32536821996472354 -0.3716064249966568
Ni 4.651296511722797 4.390325832841109 2.130457902738679 1.6141871585050331 -0.3386718790521651 -0.42446727755143027
P 1.673797948063853 7.844235602251311 2.2175581809832896 1.5827615930059 0.04078283834431686 -0.1364150204283457
Ni 5.9723164762096745 2.627690138305162 12.14090783984967 0.8216816329241784 -0.15973981119721523 -0.6621937898367692
P 5.0533212062061335 2.4887019023370396 10.134169848252041 -1.7098152268240037 0.7015458092718305 0.3106928773407359
Ni 6.868652725857988 5.0367396357548895 11.415880977426696 -1.079509801055399 0.9732170539337305 -0.7814605806206025
P 4.020293055985894 7.882028302868216 12.256961310770407 -0.08578357142472323 -1.018898100910613 1.126841496261827
P 6.680261001064888 4.043496187941026 0.8599711503138618 -0.4810611147860747 0.5030497032420239 -1.1086301154601228
P 7.875987741886255 7.269294085765302 11.62819885704666 -0.7943698324831029 -1.3161312532020173 -1.2361732873201356
Ni 1.5269154827819018 1.0434308262319199 11.571063450164774 -0.7056942842225653 -0.43466787223351594 0.26559649922272965
