# total energy = -340868.62209547585 ev
CRYSTAL
PRIMVEC
9.27591059589765 0.00000000000000 0.00000000000000

0.00000000000000 9.27591059589765 0.00000000000000

0.00000000000000 0.00000000000000 13.57623278050784

PRIMCOORD
 96 1
Ni 3.327705161723347 8.640343917725826 3.0219878393175557 -0.1950703681777092 -0.3551140837685884 -1.2533760243516672
Ni 5.974799646461831 8.034673323867965 12.790114612933833 1.3545515048514285 2.3325063305804603 0.5775170783229796
Ni 6.730795650290753 6.6170544324044664 11.06196883932926 -0.37211061832658493 0.3904464405212953 -0.07506104280089652
Ni 3.90294149233827 7.234245707441154 4.863047419567552 1.4708748967362215 -1.367463070706774 -0.12619719935507942
Ni 3.834865583182548 1.5165743075792142 2.094840150652273 0.7925898577645446 -3.532167639017491 0.16872735940780617
Ni 8.85091636816104 7.075980117849259 5.720943013591225 -0.7292844128376795 1.6043907412399014 0.033226623263613746
Ni 7.736304377975754 8.348672179411 7.70596472902269 -1.1243524112913863 1.3224430543526577 -1.6720632048862107
Ni 5.467759811842666 5.470088065446439 6.545427704605222 -1.4791402220688075 1.437396562473118 -0.5865686470022866
Ni 0.8728854658312268 0.8553289495130589 5.600576012640497 -0.334012783013599 -0.8249654458817727 -1.150835030962947
Ni 5.4396538022035 8.131894144669317 6.416398858175601 1.2421187062702932 -0.5806772212185162 -0.7191529808306325
Ni 0.15196168063124307 4.887820594466338 13.399524326423888 0.17389347698977795 -0.2487310909259587 0.30006522242356065
Ni 6.404227935651656 5.708052280391374 1.0138106678259422 0.7005564487753677 0.3690072968109129 0.06315452117129769
Ni 3.396727213777813 0.9660861069039927 12.079820093887486 -0.11396517606526178 0.46220104465677825 0.2917595307713427
Ni 2.8470460173397556 7.551027336215789 7.043160090355761 -1.196890687670429 1.1467292363246895 1.1860822842010155
Ni 6.485188084869688 8.241739480031363 1.625808360421385 -0.6252280112456974 -1.6494446961557463 1.758084860463669
Ni 1.5549301986214419 5.634336617486275 1.943899747797027 -0.062188300603286444 0.4584562329023653 -0.5520803834174298
Ni 5.056419548658243 0.6317878482275091 10.18028795490402 0.3590977510066848 1.1883037173323663 1.2137051881246064
Ni 6.194379006256659 3.003493528420339 10.534640732669573 -0.5153907413058801 0.8462696066761877 0.44080072460413117
Ni 8.139129355071478 6.512561297557866 2.5532139194061303 0.32275135116716674 1.1972714680486156 1.010326300081202
Ni 9.126763402698831 8.244615012370684 10.999314700019774 -0.02303579877354097 0.9974820971286821 1.1680591081507175
Ni 3.0828211173424984 4.73505561996224 8.651997244428692 2.219736974595513 0.707679175863078 -0.16478482982029038
Ni 2.3006948728688466 5.720435621271996 11.447873627585777 1.1049063867516327 -0.022113544069587723 0.7323393976139194
Ni 8.043717336870667 4.08337650867525 7.321906774600881 0.43845587852103846 0.7276587043087984 0.1599436996779052
Ni 5.612306329402771 1.2092541077920211 6.264915814540192 -0.20884531047461452 0.005979614622202605 0.6255126323656518
P 6.715221396104562 8.519274730329657 9.668830003984153 -0.29054699852048027 -1.0208889060883966 -0.019199455746586287
P 8.043142230402802 1.4820122640427353 12.922768485293155 0.6667734387876517 0.1354580558317151 0.2365515181406313
P 4.967732565767134 6.5846165724347765 2.9742271023435953 -0.5596116587974684 0.0727071978567393 0.03310372453250428
P 3.357350972550665 5.630737564106738 6.428156075079112 -0.8053016489042583 -1.81463576027552 -0.9876095752099765
P 8.8283016976989 1.8321871715965772 3.2332207345997364 -1.5681975791487959 -0.19260108070161025 0.8253853070280108
P 2.2333053811102532 1.891701415109741 0.8707019164354975 -2.3827953086429994 -3.0211256615986097 -3.0456683839349803
P 2.1747836600496933 8.524784621328227 11.766262771697198 -0.18362613089650956 -1.0120306843668183 -0.4760376934295544
P 2.8566744127210932 5.728440732268234 0.1053613600948602 -0.21245025421705346 -0.22306711050095132 0.47124875668134325
Ni 0.6117704327815291 5.783641677272416 4.180529615327965 0.9225313546534046 0.6454402245275142 -1.0676675570048322
Ni 6.128705557990886 4.691866979407799 3.2723205536858786 0.6219547398110644 -0.03958881803621569 0.8436522236579986
Ni 0.7113853661531342 0.31888540533772514 12.896851590596182 -1.1134460487915276 1.9829573996044751 -0.7486437912008977
Ni 3.7820856508898575 2.820999259891974 10.113941075516202 -0.8683268435865431 0.020593507880635502 0.7813196841673641
Ni 7.5050188187866596 1.024357378373708 10.546248607409657 0.7731250641717137 -0.8123102190116074 0.815612543911963
Ni 0.9313292692413017 4.671283733404727 8.63633023113478 -3.2177746871173483 -1.0692117615635006 0.9852536733832902
Ni 2.798468072626782 1.9797947397114426 4.56534819443308 1.1531454242636787 0.6177008496307168 0.9747692289121986
Ni 1.0082358454519689 5.256482392188779 6.510767336414561 0.8110961440988482 1.6466033700522096 -0.39477643535521684
Ni 8.565134833186436 3.079175684409102 10.238815241511045 1.21264435096026 0.9569201165459197 -0.20451788674385424
Ni 8.689738142586735 8.564188690287692 3.664646127378774 -0.689678111299967 1.4143553643829383 0.663076963772671
Ni 5.883617443573053 1.3688647044458568 12.383832503893384 0.12973298042247983 0.24285329198894304 -0.04326806666001581
Ni 6.778371796640351 2.146761133607476 3.6190707949826972 -1.8542279207458456 0.8358928914275541 2.5114365986631975
Ni 9.053604294440053 5.975152131071167 11.358270184710394 0.1983222994561036 -1.8611814692455428 -0.8603692793023634
Ni 3.9241833280061544 3.247821018154867 6.65888415203081 -0.7121397827375929 0.07023251106400162 0.34249793766647463
Ni 0.5032200145632547 8.957830515719134 8.888007024973966 -1.2544911117927169 1.1679634631131175 -0.7005235386549032
Ni 0.8300827031649014 2.9142778186152247 12.328889429208663 -0.9932593172965862 -0.3775826971847497 0.5816879218712177
Ni 2.1497294250545163 3.0595200294832297 2.4600271921995223 0.08778826055957785 4.798786644421994 2.130505296721189
Ni 8.178134559867747 1.961576850955231 5.8963885175239446 -0.7646813042797347 0.8672788619380032 -0.36146470857696456
Ni 6.475967829562319 7.033839655212055 4.446175930789786 1.0576906482977784 0.14641764016701236 0.036110115458995874
Ni 3.2269038393640033 5.095062992934404 3.9093576398192638 -0.4843253873596433 -0.7425649319966695 1.1048781046168583
Ni 1.861962845174703 8.167022018762887 4.7377521272236605 -2.734186692144362 -0.7187089513146784 -0.23661116773397312
Ni 1.3306757797975253 1.5984527719636745 10.491631117193032 0.7678684437584646 -0.7738848251558736 0.9692243878345695
Ni 5.746287584593565 6.521438344166672 8.560507081302283 0.4904965491673617 1.313989524268666 0.3699514058917371
Ni 4.330384736622887 7.615337225598078 11.254791834502248 -1.3354566930035066 0.5348966725492916 -1.449745313846458
P 1.4725879386983816 3.933032546882644 4.780151387771404 0.0812237199681827 -0.7387748688266179 -1.2483742002617015
P 3.551764786421052 6.92173099762164 9.211569344522935 0.7295975732027241 -0.3648716773759845 0.4921160870486557
P 5.059471323302232 3.8611813420427175 12.543203782049304 0.030800787430940505 -0.3887577399649627 -1.0442846593045176
P 1.5690759625487447 3.9466681357174864 10.568798346496393 0.313440358178886 -1.0171060420071965 -0.021634033330007903
P 5.267121861844266 0.37417354390316493 0.6277556098149198 -1.020012159910398 0.28209501109838514 0.24493537132895238
P 7.538198751618111 9.224865435023522 5.6466949134078135 -0.8020931692692895 -1.0026911521334474 -0.36678843478272316
P 3.3962355905068966 0.10915520760060896 5.633281018840421 1.2006969487903967 0.12920101917840973 -0.02451469731191262
P 4.731159737437999 3.0089106603111873 3.124828006864586 0.5323543657434122 1.3636264705695031 1.4229431060519493
Ni 2.9179232515486215 3.391541979656264 13.27511210078549 1.5478699233350375 2.012785795819817 -0.8565306222825636
Ni 8.634861854459574 8.598426076947149 1.0319404354298196 1.3066881055112465 -0.7647435249762378 -0.5430419273642454
Ni 5.470477653698863 2.658652269560398 0.932947915671016 -0.4165590784479471 0.580771066483903 0.12346951601127125
Ni 1.0976463493832946 6.997329670413454 13.149382695817469 -0.03268926270290499 1.6599630791885667 0.3945270383485721
Ni 6.0965459753443545 3.446622337820411 5.852903975415877 1.5424533803051566 -0.28631650537890047 -1.13042227163455
Ni 7.162524365352035 1.1168660365028826 1.7479674673332635 1.1376010487711763 -0.08523772622358224 -2.0594487470939953
Ni 4.368044934357214 7.351038699971429 1.0587218450107434 -1.4044507036747167 0.950242447415428 1.185785578896203
Ni 5.3145403177107395 -0.10466010124049685 4.102384705029236 0.6040228379229919 0.9238207628887897 0.3707579609534324
Ni 5.017803932114401 5.207941551118894 10.355570202807154 -1.4830670679270392 -0.5839216962977427 1.6327039863622979
Ni 2.2404571083154665 0.7774122266193206 7.4625434957705865 0.9713591747893852 0.6715078681488434 -0.034207756229960445
Ni 8.491400618459792 3.907709310475079 3.6319003071714526 0.14279058493738636 0.5886674385128442 0.1601164778103436
Ni 1.1419109955872877 2.925807775704823 6.653358491983928 -0.035178861893978126 -0.4371073349129439 1.34282161800901
Ni 8.197604696578178 6.796673168593511 9.251510488716098 0.6057889286844793 -0.910931051410315 0.019821405601301346
Ni 4.6259152538188655 8.685601086382423 8.365973608182937 -0.3197084505757849 0.13725499983113781 -0.2756554261206285
Ni 4.219936467060661 4.721336547930449 1.8160656386748382 -0.932631162091568 0.5026534962448698 -1.4218773837915963
Ni 1.3432539148043596 6.766776908175349 9.56380443185924 1.087905738428578 0.2953775871399042 0.37746982575596927
Ni 7.0957841873474825 3.56176421823327 13.150916931459157 1.892070702625232 0.14821741237991248 -0.11487791768751829
Ni 5.666171543255785 4.088404052313675 8.382360432152757 -0.2963808315934379 -1.4016435732432249 -0.32404435894697736
Ni 2.613116823580641 -0.23900961008894003 9.54115915089155 1.5874384296562791 -0.6361117480377366 1.927347780659971
Ni 4.922364086181274 6.0787269507513395 12.970162823791622 -1.171083753909654 -3.106905376368591 -2.7040834450010784
Ni 2.3204989423670703 8.898974861870782 0.7145568000460816 0.8160748282603623 0.0030565274381366713 1.1774706312726044
Ni -0.016933175114289375 2.650906884065776 1.2121008848079484 -0.498165121456213 0.2574360748991244 -0.7503828853791915
Ni 1.3261305835192443 1.0369818929344028 2.8961359923273435 1.0818855003764272 -3.133273581949475 -0.4636447190818402
Ni 7.2511464168677415 2.1443865004498432 8.285453137135498 0.008928669948197526 -1.2373495670164238 -0.12549066020635807
P 0.4688564755172967 1.877128959286926 8.662383481720102 -1.3286841501663633 0.5040534619161899 -2.28185148453807
P 8.262434036963699 4.801229967409701 1.5327978755194456 0.46386557684339463 -2.787596218113754 -0.12629695815773734
P 4.624338348987625 1.8882415003917843 8.32903229353344 0.29535547565271714 -0.14983437915804518 -0.520029268519156
P 7.371083943149725 4.814049276096608 9.548734787219045 -0.32570323470663903 -0.13665027636760338 0.37261686853904213
P 7.8781330536796625 6.881288026655711 12.95335580106383 0.5325137741394119 0.10826915412174903 0.8239776280472068
P 0.4491080614837047 7.198913763310599 7.680142448615592 -0.07924731296810222 -0.585807857576862 -1.196050708267637
P 1.133636883178662 7.9149862471768255 2.5412804601979495 0.4578592227483147 -0.8249929566855985 -0.604790569326952
P 7.37448820240305 5.528591234685454 5.838607941734068 1.1064045685637138 -0.9435838044483298 -1.3399062441344278
