# total energy = -381158.5635372277 ev
CRYSTAL
PRIMVEC
9.29271585080602 0.00000000000000 0.00000000000000
0.00000000000000 9.29271585080602 0.00000000000000
0.00000000000000 0.00000000000000 13.60082896977618
PRIMCOORD
 96 1
Ni 3.2804773794241004 9.095050493706717 12.175489154601248 -0.41652462566558585 -0.8740586038639979 -0.999775264038233
Ni 7.016390762784496 1.1806674272213449 8.472867855054403 0.543806830554728 1.4370507490979252 0.8310399342106268
Ni 4.016274620633565 2.153010750458934 11.48002415873527 0.6362981530169299 0.6142553142842776 -2.6482575962807102
Ni 0.7239146454487352 4.10007633219238 11.136045918006735 0.7003435614336132 -0.2623695076449998 -0.2153697418566936
Ni 8.904912234646515 7.089998365053 13.530091132250602 0.4255278576054607 -0.9879898413675307 -1.8910142363362592
Ni 0.8960138844958561 1.200860498769061 3.658133351674071 -0.014323872821839846 0.4398008225847071 1.006771235740092
Ni 4.3712563662031725 6.866108962016128 12.42879093258321 -0.7719593259983866 0.9860861965869148 -1.5330058617390114
Ni 8.082163051204201 5.2353860133371475 9.34310281650354 -2.614050611381698 0.8224773893525965 0.28277532499486135
Ni 1.8119030296572691 8.307269800017767 3.1935561031535653 -1.5308381646637312 2.6034653796666842 -0.9959070393320784
Ni 8.78992416868635 0.7564651705372487 6.416463249327593 1.4183922534564735 -1.4073653062183504 -0.44785506034775124
Ni 5.603228877646764 8.653395587379839 9.55282826203787 -0.3967014202920716 0.3236388959784426 -0.5531247655215441
Ni 7.262183097085965 4.644304236100339 4.072686981488404 -0.4671612168755309 0.13087429311577461 0.30856991746046214
Ni 1.8969499651403334 8.157731416517606 0.6162371590498159 1.3639267754187414 0.1758122912790456 -0.2617509002243944
Ni 1.9470655817334457 1.7001674142455163 12.649314513938267 -0.8942080822286794 0.05536639258544659 0.6900388370734954
Ni 4.879772363089562 4.442113324579305 4.235719317678137 -0.025361618693240193 -1.054408892222713 1.8029845491898366
Ni 0.3288478407773196 0.093806249445732 13.166731074068284 -1.4548764644254364 -0.8962474812562112 -3.093976327011749
Ni 3.4476719230442154 0.7651575769457779 4.448966702520603 -0.7474181463239127 1.284059826588769 -0.7446207860844337
Ni 0.03477241344887212 8.036210571313058 1.7807018069105542 -2.386241101099755 0.6443181951079291 2.8517537266282695
Ni 3.1707675760682164 0.773721743875541 9.87745256346018 -0.6575511488584354 -0.3413558536422314 -0.3450952660800056
Ni 4.977420221268763 1.7672515299854903 6.372097036032488 1.8351169109480074 0.3761259101335651 1.7569587172790258
Ni 3.81190921360302 6.881711431932656 1.497165248630549 -2.098200671051212 -0.6744738927557029 -1.0582202955490032
Ni 8.21220531684559 3.1452404856211036 9.711522758467606 2.189434724067546 -1.861606986818736 -1.261395552222034
Ni 4.2440112080334185 8.532664623022763 3.0202134987253655 -2.9405007515566903 -1.4549787943312555 -2.116559376064058
Ni 0.36831679281809954 6.890939098774295 6.452273659137201 0.8854380493455332 0.4315411536790761 1.1645706353814846
P 3.290336950943717 5.21034214411437 5.337386579621709 -0.7471407242928101 -0.4170033650742173 1.4309533779509356
Ni 1.2431423558984254 9.020857450339498 10.2918556512777 -0.9072507743452505 -0.6357211974675374 1.2806014357265236
P 5.6158112149111945 8.696179251165244 4.341289216121684 3.4963915098591465 -0.7604454118215161 -1.2202982679610919
Ni 7.250418518816565 4.645289263980716 1.4252442742892928 -1.6586111931463627 0.3877136149711645 -1.0133781995336482
P 5.837832782061693 0.9960583340934436 10.874597216036793 0.8467573449458836 3.9195115293540628 -3.0016102172735017
P 3.929350556548274 9.012856421990403 0.5603637757144279 0.5706249791888366 -1.7163589414797924 1.9919637168681434
P 4.3192822064395395 3.9066856225837645 9.750788200031213 -0.22352245287081504 1.2261213024007722 -0.1992054733920053
Ni 8.196314772737633 2.6104261028718345 4.440589319179478 0.702826475756467 -0.9985280218946931 0.37788094515145887
Ni 8.924129571029708 7.884878693653343 4.649252607291854 0.4809490146882427 0.9931492740812832 -1.5969476546982948
Ni 5.858183829778905 8.909549299856966 12.235101926795725 -0.9137572080052005 -2.6011614141238555 2.3950836390920496
Ni 0.5029450137327511 1.666527782859077 8.52319069921103 -0.288119105805278 -0.6512833135718525 0.41129603027679484
Ni 7.785205023418276 5.261015323658639 6.4859365223132714 -0.6539528899842157 0.21878493818582967 1.614663326810503
Ni 1.688570104861462 3.198441283877281 1.2460370368865126 -0.3545132169597959 -0.5598836815119326 -0.5302463182614738
Ni 8.223328697721163 2.8396123539446942 6.948527917456075 0.1424206031924773 0.8370833121912293 1.0371516478041622
Ni 4.6305510166384805 2.0359968724429 8.803231337787283 1.7850750158992676 0.584901800822825 -0.40391156488726565
Ni 2.7931208965340986 5.237198092928406 10.841234507582762 0.3177914360587301 -0.9575739480798345 0.6448087615911023
Ni 3.603882476526548 7.58212201117539 10.098261431191913 -0.5857901169650491 0.2810112911159031 -0.040734244494568556
Ni 6.803345959147616 8.685343944481104 7.1659914074808695 0.586523652696964 -0.8688415784394327 -0.04245251273725592
Ni 9.092439240552135 4.0458440424765625 2.2855787762690625 0.324693305384886 -0.37040006339338144 1.5051579862888078
Ni 4.380168080705824 1.6314477805154837 13.508343389340746 0.342536504213894 0.32142671881847223 2.759699491703486
Ni 1.6135128389199511 6.087165641103007 2.0887609130540055 -1.0695840573012545 -0.9706557209644575 -0.6475883812187686
Ni 5.440290397887143 5.961528122775752 2.841689275937752 0.9439213902934066 0.7049355516796697 -0.8353786707952968
Ni 2.9911393786373126 3.7018369943288842 12.922201619851185 -3.3723679211166178 -0.20949065736809727 2.057222171756322
Ni 0.11353189738606201 6.505049780278914 10.888089310183194 -1.740559449985396 -1.7110059046979953 0.09518249614111994
Ni 2.7556712516480903 1.5912753698846613 7.355627859885031 -1.1280378305627734 -0.6948511708604742 -0.10711292903011876
Ni 4.93250852555311 6.013650965993029 8.787101041610327 -1.05107185742968 -0.20282044443677327 3.132367782305754
Ni 4.616695577302243 4.408176326285583 12.000079850167428 3.7910998388461676 1.8021206585276446 -0.8964899362843206
Ni 3.6016243465743645 4.395101475080963 1.605251614526983 1.0908398813562377 1.1924413936498237 -0.28471342255783866
Ni 3.4079641482060232 2.8365178795657755 5.4777065889960825 -2.028549229301661 2.749997176814057 -1.2499320316671245
Ni 6.281773696488313 3.415138124844236 10.594052912261326 -1.7086294340460186 -1.4522482827739698 -0.01169723383227018
Ni 4.468049294523933 8.726148259789904 5.950988324455725 -0.20453871267946064 -0.27339748332438724 2.939357896201499
Ni 3.812745558029755 2.7406077592510134 3.13467838478303 -0.4450749264994528 -1.2525489004646815 -0.5744577226713655
P 8.18472675606943 6.153812999197908 2.948496964132867 1.015416827230232 1.1008530426178653 -0.49150724982006316
Ni 5.572758062366064 5.782959294952046 0.25995629180401364 0.7536983229056697 -1.6046537650933008 0.2575561454167564
P 3.597730698632122 8.90510738167942 8.095240690223577 -0.11015891494529416 -0.623037688462598 -0.21031341037970877
Ni 1.3706384173962005 8.468451956481244 7.948623936587476 0.30237741549650504 0.2885654493140772 0.39005588995109597
P 1.3409296048154145 1.9972276619058213 10.64369552961754 -0.9357972185243755 -0.3242485045379835 -0.5497319377899114
P 6.9830299128736355 7.19943867964916 8.836988986665052 -0.02408249487050046 -0.6648438258651066 -0.2284404589977227
P 6.455612531943042 3.524680659314774 5.92347352208774 -0.4640267850116073 -0.6006870886815397 -1.6006952946661852
Ni 2.1587722342875506 3.3805971000200943 9.121558894947867 0.6874852174137064 -0.19608466837483648 0.5687874117594656
Ni 5.478938803118138 0.9561832903699047 2.316371119518263 -0.40593630862677826 -0.0010945186157594053 -0.11898319810514346
Ni 8.257172768856359 1.088911150892698 10.821145514452594 0.015620223035760198 1.4764130529456314 1.0708603529105172
Ni 2.6191612557732857 5.91836345764039 8.721001024479143 -2.686281383822651 -0.11035560433713251 -1.4836514796755997
Ni 2.034742355802798 8.62902079369845 5.575551452751357 -1.6756516935684174 0.6884586370705692 -0.41246202556043804
Ni 7.856303592406576 4.638440532397344 11.754557004625685 1.0505789769536615 -0.22943213348703065 1.9937655459635726
Ni 6.261970919006406 5.839078005985943 10.891217238339182 -1.1157960370809428 2.5962488073135868 -0.12335304503806499
Ni 0.1070799647695966 5.202935849579842 5.041419155345671 1.3776333263715566 -0.5834951502832854 -2.7548321363088557
Ni 3.863167834246003 4.229588913030171 7.495430264986415 -1.8537226989746527 -0.07808208901540746 -1.092964383898408
Ni 9.01805105015201 2.8169660054118895 12.828424177824596 -0.12413440328877977 -1.1650617160852903 0.5996349932679416
Ni 1.6206124738313432 3.795340301237821 3.5180716798004 1.4041329153239817 -0.022598711236122372 1.7938185664198527
Ni 7.057185785377444 0.4930612811519178 0.7955373236111224 2.321892816730672 -2.405264179169477 2.4533260676737103
Ni 0.28902948262048156 4.894956660792723 0.24223601194467634 -0.19581444543258533 -0.2997422918665031 -0.8611172132119815
Ni 2.8627790945652447 6.7045922677819565 3.8953457214288276 2.1289544072943016 -2.5105629378089924 1.84150096009748
Ni 6.701590720561564 1.6821674236390154 12.844105635825873 0.3332620208905035 4.2500576939753 -3.029402042674789
Ni 6.124410846240257 3.013172407923845 2.860022875043361 0.7314613658843402 0.18885858294004249 -0.9246556000852593
Ni 7.858301526314886 0.4170617338229523 3.1643556021299166 -0.20150943893483358 0.3619642739212024 -0.2636658578589201
Ni 1.2178197052000697 4.06529369675607 6.945698285478955 0.2502554979902851 0.6005860443273011 0.6304905451962174
Ni 3.1312177773995185 7.021408829344904 6.638469018861143 0.08329525778523074 -2.0380170595827805 0.7053016767698369
Ni 5.885606634259949 6.5453522889316735 7.039911555879032 0.5918430080273485 0.3687573855836359 -2.8122955206326465
Ni 8.313709652103624 8.29655529863971 10.2682317090372 -2.087510795437534 -0.9025345998165036 -1.290291666431094
Ni 2.50135749690978 1.0570928918133697 1.820878863899303 1.18791496653438 -0.624319640498815 -0.03410336944161224
Ni 6.022739242096878 4.168749502343149 7.867630483759319 2.2133819789117624 -1.168188177529414 1.2582495503938846
Ni 0.2075751110860355 1.2750070785570164 1.2541449314679125 -0.9259594064983472 1.2910966788308926 2.2990714479607823
Ni 5.861826574393126 7.76205686822943 1.4109093308150606 1.7086988538313734 1.8669150292952104 -0.9570851813688741
P 1.2162213580734211 2.595316146895495 5.434211103176367 -1.1784949587720606 -1.027035642416083 -0.6997460370589303
Ni 6.837450226326687 6.971804312123686 4.7331834876010195 -0.38267425277504413 -0.13210019510307572 0.2112094398314169
P 1.9136303900957639 7.056572466131171 11.33771922525478 2.585747907782263 2.7182335112492155 1.5430527044520521
Ni 6.67146373576741 0.7585077094816519 5.346486006984582 1.6923072998472273 1.5767066450610716 -0.5396285308073222
P 6.992508483043295 7.206844974183688 12.729287626565808 -0.6005937576367849 -1.6575986927214488 0.11002933134596533
P 0.2759871559213469 6.058023684189229 8.384448592988429 3.5289666155816906 0.96170313975686 -1.2048909322670862
P 5.511714211930285 3.4817204339281695 0.26960677721694654 0.3255461403034845 0.6819617164923159 0.7488546216601232
Ni 2.2773751667143807 6.049418629309715 13.259081154939912 -0.24607462713971812 -0.4733372637792558 -0.33851864130375253
