# total energy = -340872.87338181486 ev
CRYSTAL
PRIMVEC
9.28696364944213 0.00000000000000 0.00000000000000

0.00000000000000 9.28696364944213 0.00000000000000

0.00000000000000 0.00000000000000 13.59241004163102

PRIMCOORD
 96 1
Ni 5.104783908901598 1.8900271296995292 2.5417537375366264 -1.7993952891766816 -0.11182524690412354 -1.2057964748004912
Ni 0.8464890956915281 2.6453173131965038 10.967389627603794 0.8409859896797451 0.6651693275253254 0.8128475795723163
Ni 1.911879355277047 8.493922005430079 4.593378679034541 -0.42084716430033975 -1.039132682789933 -0.022720324415651194
Ni 6.892635864013853 3.9314967763954827 12.803329480735766 0.40380974920207874 0.9814957490027548 0.6266860838484627
Ni 7.831845076553397 8.465271722426833 8.657155251535393 -0.3903456532773729 0.4943159229134519 0.24197397470778326
Ni 4.196481711543514 5.01751431104697 8.82631265178261 0.7349968898414245 -0.7183155725310016 -0.4342145867461812
Ni 3.742599934811668 4.568043842070891 4.5196801212293956 -0.48193966073628614 -0.5789934057581899 2.3003395160399287
Ni 9.060575382326737 7.61255200279142 10.97320698166319 1.7036862311081302 -0.46087049877081276 1.6259934071113418
Ni 2.574652806430956 8.429591207905444 6.963677421505473 1.0085373265015793 0.07742851459180859 -0.06969746449613803
Ni 4.96763402903386 3.71965184751798 11.215192751217206 0.8179527620093656 0.10573713172851466 -0.32447836116060247
Ni 8.801933443383314 2.387929114352088 3.121755267354052 0.3683866325077785 0.8465807101587032 -1.0258732466768654
Ni 8.421762297509419 4.762661453291659 6.55801170289235 -0.23514718159393694 -0.8473412424738117 -0.20472408921738938
Ni 6.756804732990998 2.867767954615241 7.552826610563807 -0.3542219109716222 0.29032254121449996 -0.5212693115738443
Ni 0.7265962517643536 5.4416499430594 3.097859909763337 0.8285837593606503 -0.051373469375969594 0.4760160961629995
Ni 5.018210833324197 5.918554102794505 3.269219249102959 2.4660124048921275 1.1074471508956154 -1.298777592414918
Ni 5.194495978208365 8.716001168300963 6.789598859195559 -0.2957298282730004 -0.4203419425291471 0.06955913914606085
Ni 8.766187920116053 8.006532863681793 2.2089293899794766 0.44047548005422854 -0.516815903788181 -0.20671155196106336
Ni 0.7472569598996297 5.055265818472645 10.120446399387514 -0.8782433313693068 1.0402400569214987 -0.31603485837893963
Ni 1.973804829204327 3.9401986613789646 8.288923426189529 -0.5882455204840773 0.9380214798692038 0.3812200368270209
Ni 8.617735805429854 0.20516388719434592 4.247709531988966 -0.30207453954410557 -0.3430419830954028 0.77025031372708
Ni 0.13278222084134242 6.6826761887667105 7.345392989442073 -0.6105133307433421 1.6397436668178984 1.6483692037033808
Ni 4.240864111048385 2.0446922230985876 4.762984639628292 -0.6305442812522882 -0.024672305935699447 0.34116687755987696
Ni 1.4173856863010499 1.5272969016473843 4.330677408259442 0.6518702964235741 -1.2369212212297536 2.494198894628672
Ni 3.675854526725981 0.7686123329193927 8.576743147674154 0.4381275486473422 -0.5606056472796216 -1.3223214411731292
P 5.944669044708649 1.9668767542868482 12.563763893921019 -0.7417113257471226 -0.849117103427312 -0.30738592445468993
P 5.108972329528652 2.7896460160015217 9.088116801864642 -1.0685422463003018 0.3913841218442163 -0.13319471371883512
P 6.873003222759764 1.6877477734292705 3.539803294663522 0.008988833762171616 -0.620092489791345 1.2611330425892668
P 8.761618733977448 9.097788245858023 12.542572900158682 -0.7990734086063593 -0.16029774058321425 -0.09719335592356165
P 5.597800950649875 8.889249476056422 8.949542301765884 -0.07168389879854752 -0.7511678431743322 1.2236080490606152
P 8.58245463034741 1.3353632229348624 7.951913444094433 -0.53832832393866 -0.06877315290965574 1.7342152529349228
P 8.358230178862671 3.7584156339865564 10.965173758065845 -1.3303705367298506 1.07218241415605 0.2574039361096083
P 0.9208721027210957 0.26649963892690753 2.693838912420838 0.8175421568345081 0.8635399637208613 0.08661120953234117
Ni 3.9272712079136416 3.102523822931645 7.132263673485364 2.534161293954223 -0.006728834083401315 0.5524675915535195
Ni 4.594084488275464 1.0201729620443472 10.619179567290896 1.9463243217624737 0.24519093898318417 1.0172189134359773
Ni 0.3089679952139589 4.9686648820041555 12.954817503854303 -1.4171843491913012 -1.004637991447173 0.5888183622684118
Ni 6.322741336787168 8.507843164010913 4.320755216246258 -0.60280696323802 -0.013866987790079345 -1.8218567035039914
Ni 2.0206575610524267 8.541006911370587 1.1073339024237265 -0.24356445912335473 -1.1065979155214425 1.0834137640954955
Ni 6.027796656754702 6.703757596357431 9.793630717341905 -0.9168206774218727 2.1520503698818163 1.2107890429190762
Ni 6.334024997678237 3.975006201312895 2.7323324482458506 0.45289236566134256 -0.10937909935647613 -1.0748501907962005
Ni 7.861275464507139 5.90698254602885 3.234762756396751 -1.6598106127711025 0.1886500664736622 -0.25160249893648284
Ni 5.39026517292748 7.641415885959685 12.242765565934805 -0.6147602789451542 -0.505595095371697 1.4073917885809117
Ni 2.547042663361699 4.27008089883711 0.8933316118795617 -0.864119490373415 -0.23321422623728222 -0.4243472070337982
Ni -0.008428848250809737 0.941549527391025 0.7875048031668831 0.4011555994086833 0.18535802598595175 0.454574895570088
Ni 2.8856825075855053 1.351281078710411 0.711855054289133 0.8822614513897643 1.1951155980478771 1.324382437467216
Ni 3.435702932501995 8.194826052625343 10.86748511564028 -1.5645034181266606 1.8338241602785128 1.1696184822180373
Ni 1.6022334117132546 0.5206095395865109 12.517549176478859 -0.09910805644777125 -0.004788422527578851 -0.8439113908566562
Ni 4.032241758573517 6.498887177215891 6.287550245252579 -0.09812795192268907 -0.596265048354444 0.09161097673977771
Ni 2.998073342238766 2.8372509919090256 10.178050649106881 0.6616422882086734 0.7910495098606183 -2.867856545727403
Ni 8.80556464618859 2.1540833684779264 6.036974034279438 0.2004717416989386 0.5594424802094559 -0.7500309013564115
Ni 9.02594429470304 0.6194850559724694 10.411052209981044 0.06008925198241264 0.5983795235942856 -0.4968664572494475
Ni 2.02401015494681 3.4871805722708786 5.9635615149561385 -1.4455639287752589 -1.6437566446320335 -0.9937876789962306
Ni 1.5900767762347288 1.6286176755745925 8.344136282757086 -1.8258591397951653 0.03576353075285453 -0.48614829950099503
Ni 7.07121488893102 1.8638378920758145 1.1672905400473796 0.00153109193254575 0.976009529077203 -0.7681435517967222
Ni 6.737645726885423 6.400956145037851 7.6312680207286805 0.1308832919768391 -0.5413249446731386 -0.5557951132648556
Ni 3.775624377715898 7.3679705268842755 8.787425348696873 0.4578412250261857 0.060111620579915835 -0.6687102507990484
Ni 6.766416740416724 9.050071826386164 11.106398757603543 0.6111651053947281 0.5083199505020277 -0.29272060913303133
P 3.919275132171082 3.8245016676498027 2.5955930521734922 0.8295260686692618 -0.26230394451438693 -0.3302044650111023
P 4.909813393060368 5.267120034313843 12.805899183590546 0.13712952999686706 0.8247587291876053 -0.2883245369478647
P 2.056096614517709 0.8892156295693381 10.446133715344017 1.0608698173567084 -1.3103249309328853 -1.317240941326428
P 2.300603794715283 5.994066404609549 7.848597830365248 -0.07782240759611758 0.9506574234656594 -0.1842694209074633
P 1.138674618809808 2.8432503704568695 -0.24223280278833786 0.900989623926887 -0.8963043026360756 -0.25454075562920037
P 0.15294050424064565 3.9801326052732815 4.63944294766482 -0.02872719273136343 -0.3369870351505745 0.7610300806803926
P 2.8605148359683894 1.3573268920767367 6.352344462265663 -0.7038050376196524 -0.8099270634914116 0.0001049010089804645
P 6.643503775895495 7.500170455101856 2.1850210306395863 -0.0566390886502831 0.3964265693641302 1.042197951978818
Ni 7.129992082165237 8.55419439981941 0.26915663924043404 -0.12585652818620904 -0.29107458888917614 -0.08682306843283112
Ni 4.070448327220312 6.025846394378468 11.059613820590425 0.5623259724048381 -0.9220364172948572 -1.2678189392498749
Ni 0.3505875230191637 7.237553695696394 13.53351421527239 -0.5399949130078054 0.3351139864975777 -0.5519217463523785
Ni 2.9215116135260337 6.728813824410191 13.32769838322656 0.5137118109415605 -1.511304722616494 -1.5111008341358039
Ni 6.882531647512222 2.2225932996659203 10.166402010542546 0.4198470051705995 -0.9169847138035627 0.5002618560842417
Ni 0.9356615924075374 8.336164353120136 9.076019602953773 2.0210287525549 0.12265113387503394 -0.7115456007970198
Ni 0.4987721731509071 9.250605233481508 6.720305108271593 -0.8065216373542884 0.05621588506993544 -0.7069662089564535
Ni 1.9276300457060613 3.288281670786092 3.2629264025023104 0.591700311801897 1.8641492936246151 -0.8808182911853346
Ni 3.457889488772582 0.3045529726727128 2.9425530871728607 -0.7288750932144028 -0.7133422876861264 1.0208146012070356
Ni 3.468095861874874 2.3303870872894867 12.297827973690481 -0.25383781602490474 -0.3746045883930323 1.9712195423422565
Ni 4.63648876451301 8.093691017972063 1.5150919739576376 0.3147037982723419 -0.1714846104379692 -0.1925378315638426
Ni 8.254559803120285 2.047069685804854 12.323748818063372 -0.3036863641159157 -0.9655891050748273 0.9897734156305147
Ni 1.436479683660751 5.66961704091377 5.8567521454843865 0.7701004184127769 0.7469854296618684 -1.9698491443572916
Ni 2.282921415837428 4.508328665503343 11.867043804367833 1.4815043514256099 -0.8926965306801594 0.6014098257801772
Ni 6.799998401142735 4.554438440255734 9.585666810593107 0.040801093176761984 0.09090109515694668 -0.19503771516756088
Ni 7.088850832990394 3.5207808069242827 4.920588128340876 -0.274850670831146 0.34741183002832426 0.45869791659952613
Ni 6.372760923255724 1.166656240426919 5.689796684329575 0.7512148943621837 0.8162051831906395 -0.16390396987723382
Ni 4.846290561377315 3.7405939506532557 0.6511712474080554 0.596864629611656 -1.6296343462980387 -0.17031244450673894
Ni 2.9285325580804766 6.554785411704238 3.3466957437397813 -1.105908602763902 1.2463998501441502 0.2692716340814717
Ni 7.564101913187549 8.3044307981697 6.295528675764115 0.653245579504546 -0.35238357221130284 -0.3349568920944231
Ni 7.430768975399012 6.166478885632338 11.948585203014549 -0.2802648998681818 -0.17193918147688453 0.10582480634631454
Ni 6.163590639922772 5.871385614180729 0.8405203641238822 0.9942903296642619 -0.19674055679128052 0.12416577074734746
Ni 8.851758003614247 3.523873365835168 8.782532047525264 0.267398585428475 -1.246613508816853 -0.8584121555759926
Ni 6.440704349658241 6.231794101308786 5.202549633125842 0.01976407000080467 -0.3997031832328729 0.5511825541935087
P 5.516995079527909 4.787160463522637 6.577584907578784 0.5343881083439893 -0.5701056163502568 -0.1369179282066932
P 2.0001240843197907 6.474211714674682 11.095525580507852 -0.8901778780233637 1.4585338586723653 0.56679274992694
P 4.258277167979045 8.179818319292039 4.8154234801397475 -1.3292014561224141 -0.31919757237763735 -0.6991883647832474
P 1.8022560358052997 6.259905740417646 1.4589142018620302 -0.9459047392720225 0.6842556547328151 -0.0005134493013087932
P 8.086530768962174 4.306968718639023 1.155994806103506 -0.8759617344239817 0.13575604668810815 0.5945447232292277
P 8.213130658070856 6.412007631836511 9.595888042837315 -1.1895432461664222 -1.2859102495339467 -2.3258955101321623
P 9.207197965164756 7.340081774904127 4.982841432086637 -0.37549830385189525 -0.11799255205710002 0.3079693077619857
P 3.657224877551097 8.706472743548506 13.198651379183891 0.45048324199921774 1.871743046811473 -0.1910198522574194
