# total energy = -340871.74630779214 ev
CRYSTAL
PRIMVEC
9.22947651501163 0.00000000000000 0.00000000000000

0.00000000000000 9.22947651501163 0.00000000000000

0.00000000000000 0.00000000000000 13.50827180949980

PRIMCOORD
 96 1
Ni 0.01003151804080833 3.6596535748507106 2.380765621740553 1.071652252684193 0.7379624002276517 5.0077995908227235
Ni 4.321111698825917 5.537205985414368 11.132855785061702 0.8354506616838128 -2.2364866832500256 0.07302601464873874
Ni 5.531945183792083 7.466471152977426 1.268376502289773 0.833749619832306 0.4529959811187424 1.6285501120949242
Ni 0.23087720130134196 2.6695061032011034 7.757638063817799 -1.0374164714297747 1.4358580143414044 -0.6333406130505027
Ni 7.2233205937860605 5.3203317459048325 2.561519381901015 -0.9237752543628348 -1.4101647233403585 1.2349658972755957
Ni 0.2638347390434732 1.6991097113263876 1.4251770020110874 -1.635087656103126 -0.8613645533360971 -0.7111036281635947
Ni 8.723959641804376 9.050544668829865 0.3102608518863052 1.1047197246621234 0.343886333373569 1.0123255898994177
Ni 3.3444208039575205 0.7067037867698096 10.305501512244547 -0.12507696970770718 -1.0265173080187677 1.1145976458974676
Ni 2.598042266426811 8.78287139049743 7.5977272305057655 0.36386354782644426 -0.18243982389789223 -0.5910426236132402
Ni 8.390037180937282 8.212009808143877 4.99471027622911 -0.5506462220740644 -0.30167370456126114 0.20830460747979607
Ni 2.8902013459941926 3.162286314108122 10.325209213479747 -0.026716075838605597 0.641312575512386 -0.2653180487503624
Ni 3.61223252443791 8.687835470664691 0.6044845653535207 -0.21258215180922743 -0.05955883340023937 -0.23110617875534392
Ni 2.0328660416159368 1.8077498795648224 2.779650676113981 1.1144819462552096 0.00847384179896605 0.015223501817973781
Ni 5.5900724269800595 3.6949563225791975 3.767159440423569 -0.1448019589404603 -0.6151690843477986 -0.8129614794423612
Ni 2.6568524908780304 7.011577943227384 10.466398053650021 -0.5711445991377324 0.480825858846817 -0.10401140728665959
Ni 5.34596200222954 2.3208995451742642 10.861811901900394 -0.5419700344563053 1.476078552424348 0.14627545816219323
Ni 4.018569458161921 4.054093713327135 0.9760965165798435 0.22448970188009076 -0.2720962480144604 0.8792679159790793
Ni 6.631498870232143 8.392686040701484 7.8038906625018605 0.5627473762129728 -0.9631743249857476 0.18326437668171663
Ni 4.160666478822778 3.2079906818862822 6.926703677054532 1.0344923558044443 -1.0435426389321705 -0.29502123224175
Ni 2.1611557653874294 4.189979296283084 7.662918715030051 -0.47253893624767646 -0.09410340414432825 -0.3263763495142637
Ni 6.495890171572103 2.1171588507673786 -0.04179660741522183 -1.1706384388421196 0.732576710435706 2.1154730849784147
Ni 8.021716461041672 7.009528999437653 1.4091693979168949 1.1321084010877214 1.052509104096839 -0.8247289043909344
Ni 8.207948838470534 0.1475636396097671 9.378752237829383 -1.4450731051817693 1.4009334345500777 1.5835753471564469
Ni 7.751477388233807 1.2734739421774703 6.87276569326367 -1.053505149461521 -0.6530576318634559 -0.9568162439782039
P 0.8567695374669474 4.730688178812072 5.644080554792552 0.3925007519471627 2.6813127269634665 0.915731815233068
P 0.893561922707428 8.319819323494583 9.423842845418276 1.1226724524858018 0.053622927531778615 -0.2774945362118963
P 3.1047774458476773 3.378412966018701 3.876576730585857 1.4195615911742263 -0.3673193675855287 0.8618939434770059
P 0.40228242468424 0.9604654751280881 5.712161788418482 -1.671555926232489 0.21905336135586792 0.05786319086537132
P 9.515313418467352 2.3846383100926762 12.61039068448166 -0.47804006857156384 -1.5254337058187084 1.8555520388739077
P 7.3193717560371345 2.6472353763334335 9.69215757236957 -0.6548628033929947 -0.8591793727593202 -0.657974352438783
P 3.368362066077179 8.573611469125412 5.448318742846131 0.14670457527981184 -0.4419590065782904 0.05803545477717747
P 7.57623731735256 6.811169089847946 6.70839702278749 0.7593979443936083 0.8700661948751531 -2.2013597576399055
Ni 8.751371187099437 5.115003581534731 7.350067149081683 1.2475997839895223 -0.10828895161609092 -1.9285662264481045
Ni 1.9994091891935146 6.108141403580163 13.189382512710775 0.31338045147522803 0.8340540384466023 0.6530586603047204
Ni 1.395690670392011 6.342016338858555 8.375574591214265 0.3385407527909396 0.2853073473880957 1.197420334921654
Ni 2.5231173759536465 6.7981093805575386 3.954236314954956 1.4395776292848368 -0.2529083622320999 0.4819520020314603
Ni 1.392691090519656 1.2271788879013692 8.847256218772964 0.2717100683196353 -1.0843717571333906 1.4831251748584846
Ni 5.066964156194398 0.29239073942829336 11.942758040707666 1.0210051199512868 -1.3120835654952048 0.34088508465340006
Ni 7.372228968126295 1.4702832997100834 11.60740131918776 2.2609638424557836 -0.19629369906184901 -1.515581238504661
Ni 8.47936005479775 1.5641009286408192 3.668995650994704 0.014794898920987424 -0.981192358829723 0.5739877250134824
Ni 6.954244435021017 4.14218906680907 11.476452583227882 0.4434160507397912 -0.4197955831073738 1.2106597164300632
Ni 4.3894098251503095 8.029995301489372 9.071898908678074 0.5986587453976012 -1.000204895376484 -0.5712050200620227
Ni 4.017231184065024 1.4265171220032906 4.770256790592874 0.1771137836992885 1.2974686437955076 -0.5338175805525001
Ni 2.175978304695129 1.9025273740547117 6.349292858155062 0.9808066933555301 -0.5877865785697878 1.6260057484065158
Ni 7.153010441578058 3.4690556550230056 7.259250945918609 -0.38258940637072175 -0.7389617880264434 0.8966992240816493
Ni 7.004674294782703 -0.016819798028861077 2.1901095562107065 0.7355599614337461 -0.07157436980387673 0.9427628512089312
Ni 6.285291976103188 0.29035102511509187 4.486731886319609 -0.09186191640831923 0.40865987820552846 0.3301453296383927
Ni 3.66447136159954 2.0639140006639436 12.375751548546559 -1.2693736853315043 0.932853305404703 2.254852073131091
Ni 5.05272307390811 0.2010586085271736 6.5953054780184805 -1.0901515970399613 1.2456413747115709 0.4754049449415619
Ni 6.371836777528029 5.624793717687136 0.13508538734077005 0.6827111930638307 -0.8309288625540592 -0.9004545773590235
Ni 0.5777172375202773 0.31326320060161933 11.318486400620786 0.4225466634899497 0.5602598339044287 -0.10106852260825175
Ni 1.7000880358386017 0.6805686780788934 -0.08180361933121398 0.7312153113118053 0.8108187220677455 -0.07898711732818009
Ni 5.4304301714350585 3.6857268460488744 8.879081299744826 -0.5091930971356005 0.6273931372178163 0.7888460744513963
Ni 2.312731458444928 4.862605086859982 2.6192137626397187 -0.09367737235050319 0.5586966031823669 -0.814052655624011
Ni 5.144205645276673 7.304290791386586 5.455977362470993 0.5018299719023099 -0.6123159311697197 -0.012158746849720995
Ni 4.793005604344814 5.8310540591867985 3.3750820479389074 0.3304947425580115 1.276853024427685 -0.8581501601638576
P 3.6521315514784978 6.59685141533731 1.6500891926308816 -1.571758557027177 -0.20633488534793495 0.15862935174185583
P 3.046964004861733 4.391920242766557 12.48335893836125 -1.058143933785113 -0.8704418330470169 -0.7643897411812449
P -0.0726156754452772 8.927109649713321 2.4701494101461217 1.0774053531178864 0.08831945047269951 0.4431260303031982
P 4.284212251657685 5.621978727345387 9.048097011654022 -0.0395826473886286 0.28549915168392764 -0.9343602289675328
P 6.162364578195813 8.458372225167796 10.204918677017085 0.8577423832024776 0.4265408722510073 0.2849643622263802
P 3.6387672694625897 1.601904864509023 1.1841621436888385 -1.1194104939050786 -0.33552433456211894 0.05163700745000139
P 7.195170690368575 2.7768541447252932 2.242116733511425 1.3108360662413487 1.903782077524889 0.1425486441299093
P 1.1391850586612673 4.401177407726471 9.671031300591661 0.07916400922567657 1.4123483612552385 -1.4433885183904949
Ni 6.625213596714993 6.373267346390229 10.664132204730972 0.007714852145754455 0.8795630786219949 -0.012364435102623866
Ni 5.469166284432825 1.7410484526801762 2.361124372736372 -2.2221543257877534 -0.8405525016867523 0.057208588000507925
Ni 1.5648854341458966 3.519033270434706 0.4727642451557065 1.0332075755547496 0.3591908249411233 -0.2028746947134764
Ni 3.401431280485327 6.286547184911313 7.22493944396948 1.0761953919701852 0.8242853890956128 0.034669783468043516
Ni 0.08019861336259078 8.793060732586907 7.444071213438331 0.40656957133540306 -0.46607055491451344 -1.653497268958565
Ni 9.38102453495115 2.8011461269531037 10.61239545109259 -1.0075893607660131 -2.3259680152413105 -2.6714404621550765
Ni 7.70243194995167 8.419423834209832 12.068762546090252 -2.2573221319381385 -2.025327122819938 -2.8011698430331307
Ni 8.150061561672347 4.11819242783023 4.940703994311924 -0.7334195180519756 -0.13720769153297013 -0.33999496873896284
Ni 5.973280292519081 4.874363439959613 5.883528247999952 0.4522570460701889 1.4033646696993896 -0.125546453144958
Ni 1.5173167121086104 7.479696992845379 1.780525692643328 -0.23364180069300408 0.311138963739219 -0.15221753467824106
Ni 8.259089367925055 3.783356248786633 0.49480238921481234 -1.575983650852118 0.5419970310394988 -3.28295189514563
Ni 6.386059400861257 5.85192190562186 8.132330814309944 -2.066494341086867 -0.2608425294775121 0.30863908013550073
Ni 0.2647530719582404 7.1039650032959205 11.124345284753092 0.6916606889476347 -0.6600332918503408 0.12638411855490495
Ni 0.1728081038155072 6.109378153435228 3.5241057907357716 0.0317387258641776 -0.2590844091358248 0.8478832310202107
Ni 7.9892194741784035 4.689967728360285 9.448360949821081 1.2073483926686432 -1.09645954153586 0.8713003243925703
Ni 0.5870842332509023 4.611674078953554 11.840783400419431 0.535183350551775 1.0952639785658622 0.5227314979416675
Ni 5.744343127184413 1.0193864532976717 8.954471355835118 -0.21811953668768885 0.8039659608119702 -0.390281889918973
Ni 3.382723131558362 -0.19800457474328967 3.0212599127247826 1.0609474646721793 -0.17418401164700326 -0.6573891693592743
Ni 1.0541262029578082 2.971374592078386 4.681143425849643 -0.059567318040671606 -0.8397680581122441 -1.3143865025967685
Ni 4.677498705567819 7.240487420132461 12.521803399900659 -0.18642323402567249 0.1308218426112844 0.053468918452417594
Ni 3.7907859773935435 5.000521154652602 5.357704665219071 -1.9191451902445207 -0.5267570741612928 -0.7902627522932647
Ni 1.513763363644436 8.809904527254748 4.396874625768034 -1.6070477192467743 1.4062260504075845 -0.5766727280448133
Ni 1.2465146412323964 7.029547734031924 6.064713947662034 -0.1096503507399918 -1.009956318336293 -0.4057252210572368
Ni 8.459138271719812 6.904239131179724 8.77404155030087 -0.8907435207188465 1.1811815044652882 0.9049195551089125
P 6.477966528150216 9.170666305872022 0.18882032264796503 -0.8392870047107676 -0.35349943098330083 -1.349043944769638
P 0.3958337894325032 5.452553226678243 1.345014383606965 0.3277709158689452 0.9343653711738554 -0.16491389919898694
P 2.6408670375275105 8.486439063296508 12.066614846901645 0.5598759682024487 0.08109747880296356 0.11701424730423073
P 5.271867764644106 3.9354949399124814 12.77380041234634 0.6915079654198543 -0.5769596631576128 -0.8011575448288977
P 6.466734255212812 7.49171377128786 3.560374864656983 0.2310395871834666 -0.8543253871011288 -0.12433649199725683
P 5.946071795707688 2.685417720739381 5.559208134515006 0.4164932582070182 -1.62482664049675 1.1415903724362273
P 8.195332144053582 5.9691916344161475 12.354246868230906 -1.7614712604373985 0.12291878571412379 0.5666724222989917
P 3.4530702016724857 1.6961470493601536 8.478480485684411 0.9440563732093741 0.936725900986232 -1.6798551901268035
