# total energy = -381170.53582597926 ev
CRYSTAL
PRIMVEC
9.25664519496962 0.00000000000000 0.00000000000000
0.00000000000000 9.25664519496962 0.00000000000000
0.00000000000000 0.00000000000000 13.54803591887191
PRIMCOORD
 96 1
Ni 1.667667909685681 4.959941816436204 6.725149771663495 0.5912495974177238 -1.122074928111119 0.12058448115399233
Ni 7.782968617320818 6.731182327221319 10.209040858596236 -0.2186502123801783 0.250615195322549 -2.0863404292785166
Ni 4.115365525050697 7.663391276986337 8.818633534458051 -1.0682501689811796 0.38161752937575566 -1.9383613581616554
Ni 6.170257409103305 9.588310608349952 5.138078544479616 0.4243135255823854 -2.6408222230485876 -1.0846345238764739
Ni 5.492883896666686 3.339510566274199 12.814965084236787 0.9774107803001038 0.3837867691129326 -0.13025851390864662
Ni 4.471385349064046 5.869786711839238 6.665024159617621 -1.6876073232683968 -0.49449024370778705 0.4980229394513939
Ni 5.825123399630392 4.095621101228631 8.499482001884413 2.1575466171096975 0.14353491930257858 0.39760464883263136
Ni 0.05751986647348094 2.188243112172947 1.5163773035216659 0.5253689355645145 -0.17272516771328963 1.2001243641163784
Ni 0.7673749462760782 3.1018369488080184 3.7853892717937385 3.126844024274047 -1.9941031318086497 1.6484548214386514
Ni 3.349146733737289 2.514234379749924 3.7809858857589718 -0.6810088656607433 0.11326635022602427 0.3297853751958127
Ni 7.0503421907754715 2.0363323107927673 0.8247004232041942 -0.10114951235783226 0.36626624373066596 0.27231324912127297
Ni 2.2648511063367613 6.438302078871501 0.4494693581217802 0.8328006256554755 0.22912154422514733 0.9410181006036825
Ni 0.16879769888538065 5.832704591899623 5.107825977233824 -0.6734613923307885 -0.3433374028486345 -0.40371487549542723
Ni 7.776387142713462 4.40123849312236 11.689367232433225 1.0410245004960073 0.38517362215813017 0.1647562905752001
Ni 0.9205761239716799 1.4563572172289914 13.129658616570055 0.2564780818612293 -0.1817991049900998 -1.6167988850962671
Ni 2.6991543772620705 1.855346387413006 1.3658725865196262 -2.3977650425789543 -1.9123744471795905 0.6401458088977944
Ni 4.893617954886695 4.523268844386446 3.623991334935249 -0.9824329161050436 -0.25970584476990755 2.547921580963109
Ni 3.9556606285658855 3.599196485591702 10.646141487645796 0.3022290628440989 1.4969384265924928 -0.7449303469050526
Ni 8.712224697325292 -0.12499710599215466 11.25666998941843 -0.23019960778067453 0.7457574707920382 0.4453374361322201
Ni 4.044542934022743 0.22296388286906582 4.482855257905078 0.002651835800550272 1.3819898035680394 -1.1029793449322487
Ni 2.3488088766443735 8.974465450667592 10.155269007690292 2.700232189575788 0.3906927522041465 1.6438690018401818
Ni 4.76781089245552 2.4529276197998335 1.6357491463367604 1.1246627434429532 -0.4654915424825919 0.31642798005230016
Ni 6.5000346444923895 3.0054197343070164 10.365575354162596 0.03714781269489086 -0.6967735846941678 0.6944315668245524
Ni -0.010910807481982648 0.8737282435387331 7.080243931175106 0.28772521280096897 1.006379399618312 0.21091659118134642
P 3.4118234771499507 9.34587907534484 12.293582702304006 -0.6903512261075917 -0.6312644472477644 0.2811717279531674
Ni 7.007622774020275 1.3482025768459547 12.01462815071833 0.865607130662535 0.5371312183067652 -0.7481547673796213
P 4.149392952134575 8.214430098225792 6.4970280861907455 -0.8077827634548991 0.24093190659651412 0.09866556959371395
Ni 7.977848764871663 2.50207114819709 8.457212458077063 -0.08052335146704842 -0.0012541841220752592 0.3185365417548708
P 6.536774268566361 7.707906482874905 12.54121369281538 0.2915610416072914 0.3620403785747765 -0.19088692622398093
P 0.4157557313039902 4.764469243604247 10.465478621177143 -0.43916884542766305 -0.44920977460343287 -0.6614898217912092
P 6.080542005594885 6.057335596536319 2.606140831133958 0.36214116581869893 2.1671751413383964 0.34757535218938207
Ni 4.3286108563160175 1.73547283443797 6.419384273449486 0.1514001809832683 -0.373144458907738 0.006670470041640125
Ni 5.736148527723361 9.134262913602576 7.7223125995154485 -0.19294432297364192 -0.7600042105190394 -0.9914001526006604
Ni 3.1677257480417107 3.087202193035545 13.063273661163432 -0.6338851727000632 0.5016667068515683 -0.24167161297601603
Ni 5.803490620224782 5.75341217068077 10.995734423023581 -1.1346185691040847 -1.3029710616709753 0.33711199076421294
Ni -0.07485015727501476 4.491833277907432 2.4301784890051272 -1.0339855913713547 1.8241609261571359 1.1556041702168165
Ni 2.303923404955111 8.100989913537832 3.7178657490499782 -0.3024458068405952 -0.3097963336683955 -1.6744160213891033
Ni 0.9103123559764118 9.004771706454486 1.2749640014684653 -0.8504401931141096 0.4600847696447237 1.518904646450939
Ni 6.9797417592279345 7.657448510885181 3.9032707947610352 -1.831357443905575 1.280713792934672 -0.9167484294230405
Ni 8.804661554468822 8.247476320937828 5.923770539916081 -0.48060500108526266 -1.1418078877636721 -0.2164084675338531
Ni 5.839535995922448 2.2799857209401733 3.940066884369612 -0.5931172467540817 -0.4386165724686188 -0.6139673507302136
Ni 9.23434575953046 2.499942119843093 10.78034802976574 -1.4423022273048516 0.6320630318896598 0.39849245075422335
Ni 4.525869961636328 7.20271582440652 13.14475157627089 -0.008512922567017599 -0.994082841639146 -0.5008735215263116
Ni 8.368627290925263 1.2512484769339445 4.8309180698614895 2.0101570999477185 -1.5117942606584027 0.918213186894025
Ni 2.4887878625971536 5.5404445387659695 4.233978322974366 1.193197297979242 -1.134049326864176 0.36374039198501873
Ni 7.905609907156049 3.216508267283289 4.18649173403522 -1.5615422786158075 1.7118877930823164 -0.06054048058721831
Ni 6.259806193001414 7.049796048719446 6.011398569973083 1.9586499332073624 0.9518275325143609 0.675655828878946
Ni 2.0519667842271176 2.5607397643172276 6.143885227448797 -0.4962270238932357 -0.36978505551720187 0.18940391392055123
Ni 7.268169561324394 5.469862620508468 4.359527125009556 -0.7958790700387777 -1.0515151156146858 0.20192004410969094
Ni 1.3251257608176332 5.975617934322913 11.98650276049753 0.50101441797955 -1.3696958166920346 -0.43124856213932183
Ni 0.6864876051207299 7.068920277325348 7.984927321316451 -1.790540409889213 0.015687328828269755 -1.369139172857616
Ni 2.2175589069429806 2.0215864752800856 11.000123924090822 0.2989053977875046 -0.7163993293448953 -0.43315606357467973
Ni 4.511151896058698 7.28166574975973 4.541057339116339 -0.2029230314529086 -1.4531039459060457 -0.45965025321046643
Ni 6.911094479779065 5.504760172223981 13.743398248499217 0.6003369044309727 0.8454859344326278 -0.5632698243753461
Ni 0.7791438447511718 7.441805708560359 10.17616032983001 -0.06547776998783561 -0.6485211774456832 0.7410672644052205
Ni 8.927858243005097 6.796599037559124 1.4459138703203862 -0.4441308174186287 -0.1266463710773561 -1.737872390071536
P 5.2646150305381605 0.4281633382852828 2.5282665279317658 0.7213340476423513 0.18000344654225772 -0.08544392869711737
Ni 2.085753538540545 8.919175509978796 7.9154265791969785 0.9885757957779878 0.7622906925603711 -1.4706149582066157
P 3.528364637918731 4.026085183858092 5.519943847045984 0.7296320259850854 -0.12736268041809035 -0.036866019788413924
Ni 8.545031175021423 7.0387158446336455 12.185631708111353 0.36580267383068615 -0.4181642181515379 2.710222210908965
P 1.27159458268214 6.39143568514852 2.8238173183690978 -0.5015168115372654 -0.5024485793229153 -1.7330867957574347
P 8.342403215591032 3.643646894965148 13.715895830488089 -1.0205968287692744 0.2886148144947739 -0.06968743719380902
P 1.2283475371609534 0.9221182810315749 3.4618750824234112 -0.1806361950302502 -0.0821832556679746 -0.4988873443342183
Ni 0.8855943367865092 4.7322838888788255 14.107840693813877 0.001487897399436147 -1.0097737700118417 -2.6494225631230885
Ni 4.656916285147339 1.4798320689930604 11.38667679169399 0.5231243625047121 -0.18674205081767192 -0.3807474680659765
Ni 5.467529945964088 0.5129486526574486 13.503421577752713 -1.5023187170677996 -0.8744537824198876 0.43827050198310974
Ni 6.212282577482199 7.828974143057182 1.2854175306865896 -0.02316743925539881 -0.08456795385006727 1.377514027184873
Ni 3.8568459430053825 3.776266848129113 7.7343564203475585 -2.8950860708673174 -0.5066561896463597 -0.24388584701851548
Ni 7.123738129118256 0.5418238311246555 9.386295438819712 0.7436463379863063 0.015046867030793441 1.3174373736079503
Ni 3.0663469718113943 8.55156636640369 0.8446410879006284 1.289846094253243 1.6747186402311867 0.20706225043226276
Ni 6.837328275635585 1.6967152617502108 6.571420965201902 1.2522835626184368 1.2118617071579647 1.9756798921064558
Ni 1.9701658122085544 0.18349169718596542 5.484787109269985 -1.3385720987040366 1.0572769577991277 1.1098411050490886
Ni 1.4605782473569155 8.33020295745813 12.461537120828304 0.10071730991642011 0.3201573651877454 0.27756781265199293
Ni 5.940535249707052 3.6910316608091027 6.0466645361602875 -0.3238834078890809 1.264028618969507 -0.6149114598110377
Ni 8.279069250382138 4.8420214155598345 8.608977004465967 1.3809883588867184 0.07798104466116892 1.12909069730732
Ni 0.4777548883013801 0.6807068303073778 9.385686351577569 -0.6383884598870554 0.484198889084108 -0.860590394174234
Ni 2.7008946265253377 4.105849693972832 1.8463267125080736 0.3112405223140898 0.8763029198134843 0.8952303528456067
Ni 5.649654436680987 8.03969241023276 10.379638049272994 1.0165182878245267 1.039772373256461 1.4176556324007648
Ni 7.849403558610534 0.5309528272162476 2.7915727211155654 -1.3594859660385683 0.0678490984334896 -1.4865082323981045
Ni 4.87640985179939 1.8610947639687976 8.946838067948727 0.2883453628834711 -0.5500345566319946 -0.19409052076294314
Ni 7.964843178622247 9.128792236397306 0.24937216543914156 0.5139686641473729 -0.15337118866671007 -0.5706527471029784
Ni 1.1003188799256074 3.137539828640043 8.481923997615453 -0.8925085830390692 0.8273545149392396 0.43790977620958127
Ni 1.9021479846208658 7.044788203765045 5.952343026091219 1.4296626841639701 2.408244087733407 0.5220532409277202
Ni 2.041645625032742 5.61664524054902 9.044207791222018 0.45468288190286216 -1.0064758159868603 0.7275316918126309
Ni 6.518085102276276 6.275431409790747 8.203538729698346 -0.6873489489461582 1.5384440020354473 0.31902607979677955
Ni 8.994987432671117 3.383525913331828 6.331497982996499 0.6474022333498916 -1.7191727567795037 -0.17755575633271356
Ni 3.4575513035357943 6.741170247195069 10.928943100900694 -0.20951816817192304 -0.43247266435441 0.34174537577116626
Ni 5.029847999607437 4.745881900409353 1.4246300664319307 -3.9631740032390197 0.610804893841832 -4.511948205101352
P 3.974423848016109 5.015157703964859 12.392998144126137 -0.007807411859560747 0.8497187415670527 0.504099484662777
Ni -0.22151244093034103 7.893779914823841 3.406477764652415 2.349541945906508 0.8224740469184868 1.2479047168244508
P 7.976978640240029 8.233674663216918 8.078125074680408 -0.1504028500670055 -0.18525698163171322 -0.11864484092911826
Ni 6.891285259441878 4.082476665303955 2.2053762364356104 2.372783175822636 -1.707612819856046 0.6099978245595042
P 4.276477431578149 5.574842231650544 9.078471262753839 0.6062080184997688 -0.47712038497077186 0.3798303555683459
P 2.7581284626677816 1.949986326070672 8.57280388706706 0.5613594947265107 -1.6740853775225621 0.14227636430512916
P 7.825438104660544 5.0045403321299275 6.53493589886591 -1.8055350835258326 2.038385498665793 -0.6442932554072646
Ni 3.8351020838595633 6.758165447446974 2.326468889559435 0.14942660219666523 -0.45620960296003366 -0.4456444258496777
