# total energy = -381181.18301775336 ev
CRYSTAL
PRIMVEC
9.11639483380897 0.00000000000000 0.00000000000000
0.00000000000000 9.11639483380897 0.00000000000000
0.00000000000000 0.00000000000000 13.34276533860070
PRIMCOORD
 96 1
Ni 2.047770122640316 6.660611059469539 11.54364005099777 -0.0020972488486609045 -0.3535320839934492 0.5460730008810852
Ni 8.559583390493895 4.744664001819223 0.9322443285263139 2.1650172144551294 0.18859324509379777 0.12650521751380148
Ni 0.5644297163811497 1.9434512199653107 7.260318487786497 -0.20160328420022056 2.019641128178754 -1.8058965806303091
Ni 3.1441806606913145 3.6602141733994067 6.5060389435545 -0.971554578629643 -0.7747302038753044 -1.4800359944101995
Ni 8.640081154246433 6.839155646456342 2.7506113223426056 0.06897884116255863 0.026737930215476532 -0.40412188112585884
Ni 1.45777530106197 -0.03064384859318045 11.222226063761742 0.7586842061560353 0.2061276544331353 0.4344390440521615
Ni 6.871701174949724 6.992867174727186 0.943600621199761 -0.011889809459050492 1.1538684184726322 -0.716902751343875
Ni 5.174201163170115 8.887627731475927 4.640467258831 -0.18792552960281184 -0.31512263097731535 0.7346202232282961
Ni 7.765837151036812 5.49501620328513 4.920785451138368 0.9823758376148629 0.6097358291473692 -0.23579355692868426
Ni 5.718896620299268 4.497071842617049 5.568295605844094 -1.1176228058770363 -0.5342837215556412 1.8222518820598812
Ni 8.069185179220925 0.5932676072167561 5.956623928974078 -0.2064158750975155 0.21662546864066562 0.38522453000072365
Ni 9.11876479854069 4.492313084669278 3.2257733034276224 0.3564554282878312 -1.332230729867041 0.3745912186565936
Ni 5.085471295151602 3.5246442702551253 12.000482637262772 -1.0613729822453721 0.014318987725833404 -0.834527378538595
Ni 4.695572217243072 0.49120957038666896 8.850549531619265 -1.6193429916743594 -1.2092831477975108 -0.8394273869433738
Ni 7.225663425597495 1.5036125327887837 8.328459998020934 -0.6878827099624412 -0.6679006104135594 -2.5068762329860244
Ni 8.476432755931391 0.02416118043865834 1.8821835788469286 -0.0023461316346733785 0.19386169258158872 -0.4183771054932923
Ni 2.2141625557106828 3.7202182822351038 3.9594525309267086 -1.5140558029990698 -0.8708709501646356 0.17935578565592983
Ni 2.9514691965956277 4.133592076073735 10.987766982528072 0.03388045479752875 0.7339491653032005 -0.08599723009742609
Ni 7.39727043634243 8.005826237195995 4.5192875844617335 -0.494972068440212 -0.8164558657488648 -0.08833667686388012
Ni 2.7704631830841153 7.272330249227081 0.5782209980351519 -0.4687776694330314 -0.4684621950751416 -0.695610160513686
Ni 0.06959729080588967 7.271482424535236 0.23421658513901158 1.1084971894266844 -1.3322392145074733 -0.047572350462324525
Ni 4.2179825402931295 7.536951833422431 6.365659230653046 -0.053586417866888364 -2.065760805354952 0.5206954413482452
Ni 0.6326385802992125 4.134676927023514 5.779551639704834 0.7955142305001912 0.44749767700833254 -0.10447189186284588
Ni 0.6173640612542092 4.947886668814873 10.292128646148646 -0.7640110176855874 0.5167117741101488 0.3782815230239872
P 3.293416039245002 -0.013149487478670637 12.401886605075685 -0.32183218178700707 0.6357415091825116 -0.0867310229396571
Ni 1.8916518662119781 2.3229758408919174 12.567096641774736 0.6375392245128826 -0.8218634099176814 0.03590905519178332
P 1.9907926567905578 1.5978031211343364 5.518768057609123 0.13209659555864992 0.3715819995166246 0.2928661335719601
Ni 6.083798544390193 8.954897606756786 6.990714793977245 -0.33914264804099653 0.014021768200388755 -0.4374747455546917
P 6.073332923462909 8.03983038881513 2.6150086001779957 -0.16053608184626547 0.14326649613254036 0.40836445845229674
P 3.5640270946504784 5.646466865711056 5.502756022246161 0.02448718650808686 -0.7219904502794275 -0.8948814541466201
P 9.177200887516202 6.946227700281208 6.220169778614185 -1.2126456365118405 0.0537118877011591 -0.34909178883390846
Ni 4.083169297895332 7.7845166434409965 10.705114081580046 -0.3537046050155715 0.46537327173717274 -0.07043614243437547
Ni 6.926882711075898 3.4935573648874967 3.9193039293903347 0.36873527409644885 -1.47055556572359 0.18698759116957472
Ni 2.186895419653622 1.260615036432734 3.367019985449447 -0.779557964281251 0.3527083025405732 -0.3051881454724228
Ni 7.447729680098977 6.484646412136413 9.407316006753486 0.6843515568807311 0.1391056798866314 0.8671569916481582
Ni 6.911248094446724 6.544057955327273 6.861503576021797 -0.09188711321929982 0.181211607917746 -0.24184310555687383
Ni 5.686059367180736 2.089541442404091 9.989007616188477 0.4607979936616645 2.789186188308693 -0.06892150556206193
Ni 6.463696937492774 6.70467059426184 11.686421022219996 0.8043691097876597 0.11540936471095609 0.27423489162401804
Ni 3.4506829613848713 1.6807167294389047 10.71314653680568 -0.394598772126772 -0.14772967411021654 0.28005664051211765
Ni 3.959541871593161 8.976776953643093 2.506291948778842 0.9178457762522773 0.3099403154454275 -1.1766725608513413
Ni 6.443294446521293 4.514921743118462 8.51699341850079 0.4553287430169772 -0.8384231140485754 -1.1176508309014945
Ni 6.795497233023624 2.4234476250727472 12.841250328096887 0.6828011816744757 -0.3595502651630711 -0.21308377403599432
Ni 1.7812614447760224 5.493010596487219 1.9220386324792444 -0.9947983796489318 -0.9289017769561227 -0.6905114058345398
Ni 1.8405544748379148 0.4232687284679635 0.7812987143576804 -0.16105493046421296 -0.09287904481892391 0.3671188215389484
Ni 3.3180941192538493 3.955776800649809 0.32248242867564286 0.682309843860354 -0.1552807469845971 0.5919872469146966
Ni 6.6920717370131415 4.754290914449199 13.209643831295086 -1.3081582622988697 0.536840940759856 -0.6088467416741965
Ni 8.790018495179389 5.1751857337799985 7.774122130391094 0.05979331800854864 0.607823699726321 0.3041411922651472
Ni 4.4068651186837124 1.898799119528172 4.016052578042678 -0.012186514763862882 0.9336984270138178 1.6643375541071785
Ni 6.300230867068452 0.6471919925364211 0.6610644101017935 0.05416080231311963 -1.885139008502405 2.409995008986243
Ni 4.17807096501469 4.612977682747262 3.4935227225882604 1.8753629029522476 -0.4521140927344213 -0.1102455611218295
Ni 8.306721955249934 2.5342847498409653 2.0397084949521656 -0.27909401948853224 -0.568958133009375 -0.26717258546059797
Ni 4.2133696446579325 1.5659595550202234 0.4063341139779617 -1.112173352726691 0.5791720974278993 0.20935747422434264
Ni 5.988732782169189 2.9860932630432093 1.6669646482814071 -1.0965384744029116 0.7108737715409758 0.056659400365257254
Ni 5.293680629958423 7.09427794754522 8.545093793018436 0.28416269226069124 1.42422351542627 0.3159371564588107
Ni 1.2812910192402946 4.686419357128966 12.853191893299543 0.3999476951435112 0.3800303873942939 -0.38754083683872614
Ni 4.301288153562743 5.335880420265388 7.660801699751279 -0.09800531030189574 -1.1924023128817722 -0.42742867417259933
P 4.228776351423708 5.612490063275527 12.459313509176067 -0.0280929015814742 0.43557855697324344 -0.9045151205816423
Ni 0.6588381865561117 0.6488630276548628 8.983416423783634 1.3360282492362603 -0.8682553669186596 1.661402639848571
P 8.622295068506771 8.70886435102026 10.491055668038952 -1.5832177067067121 -1.5630980531387015 -0.9441093379344966
Ni 5.447492438569163 6.46314083742608 4.402632376700666 0.22514867562032836 0.8364703611975789 -0.6111867026612829
P 6.272042975163259 1.7895117818310673 5.313182421149752 0.31811102418167797 0.1498505771079613 0.8439820961935917
P 8.646927566542939 5.636220038252635 12.026821724356072 -1.2304713518393517 0.3291204879183041 0.5488202246089193
P 8.383819303840559 3.207548719110782 8.859355968741005 1.107670065539699 1.5822232040039266 0.1001131006735179
Ni 7.959533185742383 1.6641887061452068 10.35788155337872 0.26708722483564323 -0.4317902935754047 2.2281545092352464
Ni 8.780592143229205 2.974050505861204 12.020590668690742 2.117364902684489 0.9129928190353502 1.6194985434156175
Ni 6.249297570796036 8.646252953347279 10.041391330831566 3.1621172456540445 -0.1130344367208763 0.6303159672915661
Ni 1.9352282320938734 6.15371217408648 6.957798228226249 0.2611829435360663 -0.30777647502488925 -0.5645024112308665
Ni 4.779224253505053 5.617330868774124 1.2738301619520638 0.6354491747530734 0.30595947642080856 -0.37312877517845416
Ni 7.73367451111394 3.3277027990947525 6.623535594531238 -1.4083268988006714 -0.6310147931308036 -0.7689156540760564
Ni 5.153835137776777 5.394043017404822 10.187027556822455 -1.3335093394691486 -0.23476742965701505 1.0109539063628719
Ni 0.38495799207003956 8.789334765589192 4.0447792488649466 1.2590453068223026 -0.09937570828686111 0.3911992595269198
Ni 3.462051105371215 6.687103301991042 2.806823922690797 0.35812304579824134 1.0053296181975588 0.8903113182774345
Ni 5.22518004141521 2.6205349585456954 7.315010473526091 0.31554094946165656 -0.433880343335214 -0.2947484381963375
Ni 2.793947015408752 6.212212077823744 9.322403173127181 1.2825199929054751 -0.4435147811011846 0.04896768814795438
Ni 5.386759018170589 0.8294743012829682 11.802850143396572 -0.11975298639163248 -1.215271761280778 0.5827387317332351
Ni 0.8353835482211783 7.19251621506474 8.898089705845395 -0.8285462212544957 0.4900041829119754 0.8533403974800401
Ni 1.263450235133418 6.247848064064817 4.266749781223801 0.5224029109576552 -0.010308581014859666 1.5259638672905655
Ni 8.099643053365572 8.421050659125425 8.068062951053548 -0.5140612238611791 -0.8993004091499223 -0.34132422907334764
Ni 7.293571448495871 4.092577417056445 10.82772047169419 -0.8357355399140833 1.0907316379131473 -0.8884213003435733
Ni 3.831720903804447 0.5667735414163453 6.641348117815053 -1.4026005378398554 1.4024205606185653 -1.6359746866937697
Ni 1.4287122352813253 2.9610049452802434 1.4542281119480274 0.31589396192570113 0.1594611036145318 1.0004460648530125
Ni 1.6632497175080028 3.9721224960527874 8.533338202264314 0.800384414108299 0.1775477859129136 -1.0963063037874474
Ni 1.2372041352643854 8.792343175786058 6.837006000624762 0.5290453559748372 -0.6558997292979414 -1.0888146233960927
Ni 4.844625267906039 7.831520773668413 13.108746311489428 1.2904107085074616 -0.46397870538249125 0.21969485159460875
Ni 9.020526531021172 2.1175470064185644 4.57241884345677 0.7916480626765656 0.7539616038693854 -0.9396178778220463
Ni 6.497874300608093 1.0683502756693095 3.15921997675729 1.3604879249405215 -0.0686224862644044 -0.35458597917926027
Ni 1.2721199263371175 2.504054785559717 10.395388223778573 -0.7890635897788411 -0.0700497056292342 -1.4204398800141214
Ni 7.928829168945264 8.89628830628509 12.603348896286441 -0.3309973932260429 0.4674854329841691 -1.187023565068362
P 9.059180043853647 1.4326687505099325 0.18417943044948057 -0.07419149571174964 0.4532263519619936 0.6543910059628988
Ni 7.007526337141012 5.239438082469453 2.4135864211031977 -2.087787446137688 -0.4612073132849412 0.9876923647317699
P 4.16929187707656 3.5296309380662962 9.169842133846775 -0.48943699755459574 0.13613374174250104 -0.22853816091785153
Ni 2.8180325297727618 1.8643664973658458 8.212098338163925 -0.1681969408256329 0.4403129863344352 1.1466670156281864
P 3.7810702157626457 2.799389502946721 2.2760090878820978 -1.3181405703225622 0.38590252990435475 -1.4655478280963534
P 2.7646469233701723 8.430449661892002 8.543345268546439 0.12657797973326587 -0.045679504314985846 0.0026688050814147584
P 1.4086197017240667 7.82906846353824 2.1589791963056015 -0.057917955362706705 0.09389180235415442 1.141833341684969
Ni 2.809472235303494 8.20951384031298 4.455549400424107 -0.4943148944721874 0.7132911227332167 0.9690662649901504
