# total energy = -381169.94206161035 ev
CRYSTAL
PRIMVEC
9.25656675475696 0.00000000000000 0.00000000000000

0.00000000000000 9.25656675475696 0.00000000000000

0.00000000000000 0.00000000000000 13.54792111368928

PRIMCOORD
 96 1
Ni 0.8749019890469366 0.038925714283267625 4.344045658571109 -1.3636889483763224 0.7406708002977502 0.07949285332000504
Ni 8.380358608542299 2.237441763118461 0.7381223312169395 0.7543089599064752 0.12810675767296645 0.7948290315077086
Ni 1.901002589871137 6.680362364543216 2.7032710769998496 0.34635202130524223 -1.2205137264060077 1.0750905889417808
Ni 2.543723042059952 0.4106860947412096 6.0292045518081245 -0.7470648767495521 -0.8567170272617569 0.5373320214636617
Ni 4.516010452081247 6.848776339067559 3.8825493435615925 2.818352525460004 -0.1263074996806986 -0.1287122524674493
Ni 0.24382074382563357 5.529039855069577 4.135882135327273 -2.6991171021347387 2.697435857777574 -1.9593415599577482
Ni 1.640013691788589 4.018303373801324 3.235297801973543 1.4987595389616317 -0.46277105822763526 0.6010799532445842
Ni 0.20032598821966527 8.163430967947708 2.2857915879581334 -0.9201829090258863 0.2116609255465387 -0.7821586351288916
Ni 2.9283148752762567 4.891910369167048 0.8285052997807847 0.6266652579128562 -1.382192920717781 1.6522952782306641
Ni 0.6059978007799451 1.6751516189785642 2.637252317644838 -0.2970117803092175 1.125741321219113 0.1561765193259891
Ni 5.3711783665822646 5.104959508314696 6.034664074847284 -0.05605133446761315 -0.10464646976749721 1.1115143789864534
Ni 6.286375116127274 0.7199118875497007 7.614175921033556 2.26972719047071 1.0957846269560225 -0.23633168882034136
Ni 4.8181540457082175 1.2534316967319674 9.304536079098822 -1.1761467702548583 -0.06109635309068834 0.15584510412849933
Ni 4.696393167347592 3.39594736835064 8.707709684604398 0.18062771038981795 1.7747155270418145 -0.6377487694205275
Ni 6.42272434360576 3.084167688789853 7.04032617639976 0.0581436982202676 -0.8866644655534665 -0.2464824041010981
Ni 5.327292983861592 5.436381622411081 11.075221946009309 -0.6055300185961378 0.11688054993984387 -0.6665235275603747
Ni 6.37587685954136 7.680247442818752 7.423867389295711 1.0407882161154849 -1.8080236542756412 0.3627230064640979
Ni 5.106153605418887 3.9047438135361454 12.92433777690503 -0.700441263353742 -0.314778103153703 0.7702590554778282
Ni 2.97502351084017 8.352163106376686 4.027661762734165 -0.12598714022680235 0.42187457712358956 -0.6249115084465431
Ni 7.658003913040693 0.336270703733399 3.403711776497887 0.24914426720397737 0.8458371471244595 -0.09921167190517108
Ni 5.592095587424191 7.700843303724362 11.884967887717599 1.0126292371827657 -0.7010058776079605 0.22327228453322193
Ni 1.4898814364950674 5.989581818052412 7.702643705947346 -0.16933311131260514 -0.679880665593571 -0.18202150541355103
Ni 7.494986516901954 3.8658199505662174 5.065458961239412 0.7603366541577938 1.2781264918234698 0.4026969757538742
Ni 6.921273769455306 7.231433549843741 2.599588273402665 0.02061536225750643 0.2779614485459858 -0.21846200762877216
P 1.1451854057521016 2.4942929758864882 13.265622762819358 0.16613260209743647 0.294675418866557 0.36250446269538855
Ni 5.264357586874068 0.031359396663382014 2.9107709044113563 -0.41530155189176216 -0.7091323633698366 0.05947938631255562
P 3.0269806197225013 5.473750382175551 11.387176574680712 -0.5258011380059266 -0.9271305439883128 0.35423168116363507
Ni 4.582102338313181 6.097735543365285 8.497093171185286 0.10554892697710853 -0.386556875658902 -0.3543507232400026
P 8.463029005732412 7.714515252739006 4.149078296813582 1.307426783449484 -0.2826130883853843 0.4745899052394343
P 8.900374012567175 5.511785614742361 8.66583297685744 0.17777892808711315 -0.305658400240622 0.1688397166159544
P 0.35296677308865676 1.4119133751881228 6.09343494247686 -0.2689453610903046 -0.0659559951758348 1.1489067035919827
Ni 4.1532363465748405 0.3634970433656104 11.35940317195658 -1.4614587456286443 -0.9806002337716788 0.06752282544232242
Ni 3.9959209955227775 6.390733649093495 13.228502079042425 0.6428776060066606 -0.32168408624491696 -4.301836883430121
Ni 0.9896473155062758 4.49418346780465 5.739346273504267 1.7379397529743619 -1.7461174036891476 2.581947817309882
Ni 7.576620178621762 4.575058091055128 10.495493355864884 0.2835402281853439 -1.6545879309195826 1.517447602289438
Ni 3.214564943880786 1.9610684511819245 12.702950322474788 -0.478914243646401 -0.7330878457441697 3.974719027764141
Ni 1.4407938632894723 7.371078115067125 5.534962206443693 -0.6908366503844425 -1.1702843979368103 0.10398106826935641
Ni 6.451512266040117 1.7217862020088845 13.075545645248992 0.10348587380049275 0.2857243803208563 -0.8827687300434862
Ni 6.840019626970163 6.787488610952484 5.06253296050581 -0.6182919462474965 0.28135993270457355 0.2453462336141258
Ni 3.692629587625112 3.1524441247627872 11.028508682162048 0.9448307894815534 1.3798606730401786 -2.1256898776104167
Ni 2.982243632865507 5.615486931472943 4.774084457310233 -1.1718126616558786 -1.7473556469716232 0.5271041730880665
Ni 2.2697194111983983 8.116814898050785 7.650619024128111 -0.8734379395608635 -0.6619371937412729 1.1656276158910894
Ni 4.592775159717302 3.5179026346119473 4.515955838337722 -1.084540421500771 -1.2345624911895898 0.8378446158372861
Ni 8.872576542769627 3.392901957906619 7.588109429208747 -1.0436351986459769 0.7253058878059058 -2.3942860828914183
Ni 2.0068791997760203 2.402995458532767 5.0294083365729 0.15877281929825557 0.6678679574034111 -0.3840333379060999
Ni 4.3474298593563185 8.896088222185469 7.508163239598195 -0.9220330748607475 0.5565443327260544 1.7804460017676884
Ni 7.128954099917446 2.3261752114965173 9.35886286905614 0.3859475242096772 0.41410136093607386 -0.1481701040817448
Ni 1.5517986111456847 8.464315668503595 11.529077890865349 1.7789241658065233 -0.011386644570386842 0.3403829482060009
Ni 9.070454169097367 8.049473375314466 7.411471920828879 -0.3300149747081155 -0.018744627597354815 0.10031570360262723
Ni 1.6340709759677343 1.5400150017376664 11.07511364417893 0.4205867115501014 0.7582003245410813 -1.2967777883760698
Ni 0.6718351314276528 5.739376820174373 10.564221512292738 0.5912082026568269 0.29557864740711676 -0.2126438582850983
Ni 7.486276087638053 4.13472321317654 13.185784875039186 -0.1834420399101615 0.5387397004444656 -0.674429926891645
Ni 7.247743620367644 8.529463384932216 13.460076385125083 -0.1594017111315061 1.2233727931213576 1.0028240781668858
Ni 0.832335667080893 4.971646434713531 12.710225983900319 0.6259654036323542 0.4956909488841076 -0.9149494285410887
Ni 6.4026653635687 1.9433050996862549 4.946833282019789 -0.7359106599049455 -2.610279060154408 1.6744324764493357
Ni 6.308128047870277 2.5711965320230306 2.858719378548693 0.35678735770595327 0.8108444330993584 -1.7949537084655602
P 3.996365310724337 0.9038333882651315 4.4297235142817755 0.5388587425208332 1.458016809826631 1.1468513637248507
Ni 2.4509722437344643 2.264535733846874 8.713738486495554 0.6528344601090562 0.012192685411449971 -0.34580823298663027
P 7.751717394302893 8.85184183336353 9.222611761184663 -0.3019827511612477 0.5743551356552301 -0.5184159012854492
Ni 6.880961421480506 4.9413219222071145 8.247920280494203 -1.7058739827880682 -0.03177703530128076 -0.14313871230542446
P 4.2343423839927965 4.192558241912831 2.572953428382529 -0.5790085752668416 0.006416702159621208 -1.1688803185004322
P 6.827532518493009 0.8015483262395185 1.4834157246557107 -0.20318888351978553 -0.38600228870701264 -0.2696909810070775
P 8.518262939226243 3.605599347519699 3.2219803794634756 1.3748398227868193 -1.2750979894097911 -0.177836520797926
Ni 0.5492513442874729 7.867193063874795 9.677388734427264 -0.4443151655152928 0.26947475123121334 -1.7519152413178474
Ni 8.945490518658834 2.970274892123505 11.781394311607462 -0.23615916779821908 -0.9978019423619461 0.17685873026568896
Ni 8.645559244472961 6.704309102593918 0.48606046605905223 0.7177193337078994 -0.5309672555878985 0.5480486365502175
Ni 4.0850339631354995 7.040711249574445 1.67552558427321 -0.25174339538972124 0.04880519442816111 2.797367181457589
Ni 8.284599426039588 5.7064419558587955 6.555852285872942 0.7366315972313701 0.49691119444445386 -0.30978424948353744
Ni 4.1228192684014315 7.07127643281504 6.23312764184708 -1.0657076050649839 -0.5677936803876287 0.16890193731245748
Ni 4.235999309431945 1.9409909580114673 6.53330884333383 1.2682344295207384 -0.5230991656937314 0.0034211098664070115
Ni 0.8007855851435086 4.236776861034673 1.1930381529600298 -1.42338405024411 -1.2783959434347725 0.5787586640395646
Ni 2.1550027800958262 0.08047659088241434 1.785588939296119 1.689851124997251 -0.5102644758229082 -0.5816251869540822
Ni 1.8654944000131957 7.1076639965094 0.49398038452684534 -1.0579189622585008 0.4553837646246286 -1.109533601110999
Ni 0.5722594664748814 0.1736402320826843 -0.09606372354711384 -0.27513991993679066 0.6676375865601598 0.5187092641561518
Ni 4.732290133006898 1.5390338056675563 1.071367988953056 -0.7235158857850185 1.1800823578638384 0.21770173242397992
Ni 7.8416079135183425 4.893345137005417 1.7623133023311053 -0.62674470500054 0.25311070805089314 0.8282567150385349
Ni 6.052174722072067 5.101136546267948 3.5787784455089104 0.14460089867324774 -0.1690351204562121 -1.287320756728228
Ni 7.265127452628649 6.679177524005724 9.805281162569408 0.3313064398260294 1.9508620617318277 0.18448487935237903
Ni 6.21929277725853 6.222967634238092 0.5812235256663386 -0.7088767957156049 -0.026126007663090492 -0.437817216495775
Ni 0.429674090011177 3.4136922067129114 9.658434988454086 0.5670691435167782 1.659515707238503 1.442009121544465
Ni 4.9105530944991385 8.59794346537253 0.3429048850866802 -0.19509222255458014 0.9149154899793598 -0.02701149559183735
Ni 0.21871045534084801 1.5416256443433185 8.647908561101206 -0.4665233261812159 -3.9697367440582023 -0.7660247056815066
Ni 8.73176565014215 7.775886289954374 11.937425776858353 -0.6310222493299713 -1.9078238516944304 -0.8147234564387904
Ni 5.4639476780411504 8.790119046613594 5.51201240062649 -0.09158218038437131 1.2326436769003224 -1.5991768011391299
Ni 6.392566449299928 0.6183821613667384 11.015096842671648 1.1623556300080369 -0.6143463313361871 -0.4180346345522091
Ni 3.2523132228799216 7.321472174126378 10.178404109645466 -1.0613038195703335 -0.46177809818674664 -0.16717672709123468
Ni 3.1884058863889866 2.0165152857098363 2.823400022651415 -0.09483102633897217 0.9032686497690509 -0.2179033069118247
Ni 2.5523594187902594 4.5633763038807995 9.382111661977726 0.39212999887130534 0.9135407211190203 -0.16829669962829077
P 2.739573480280578 0.19395191639063022 9.237704593187628 0.38907527120538155 -0.13973020084450774 1.1848710375017335
Ni 5.300152730299683 8.101791490298066 9.697737445002009 1.1063354058886754 0.6319571024394148 -1.4010043969973291
P 7.335921674743752 6.062255123207441 12.280228839711341 -0.253156473687164 0.7691822774738818 -1.3108957158346908
Ni 8.81806462147833 0.5734017268055565 11.004908139705893 -0.9893651244485026 0.570869748209791 -0.6678335046210498
P 6.0113625194955125 2.8539661315486793 11.176289769513986 -0.23772574095439059 0.5735025578469478 -0.2370382279690627
P 2.8872990282323205 8.859728428191206 13.09105779972343 0.38809593801124775 0.4466942072704307 1.1668774291377901
P 3.3125364458245947 3.7614151347664992 6.885135207405153 -0.7292895550440021 1.7305745708585423 0.18905218700808732
Ni 7.753281754075049 9.231490659962487 5.83388358920269 1.293642585181198 0.3994730694999378 -0.3995890262525118
