# total energy = -340859.7673846331 ev
CRYSTAL
PRIMVEC
9.32969304370184 0.00000000000000 0.00000000000000
0.00000000000000 9.32969304370184 0.00000000000000
0.00000000000000 0.00000000000000 13.65494882927810
PRIMCOORD
 96 1
Ni 1.5963571495783384 5.978271458751398 4.5642081169596596 0.8409139987912293 -1.4425094582196512 -3.2453531109562497
Ni 7.942386453641557 4.131673279010352 2.177117487740532 -0.17693432069863074 -0.5862205196342485 0.11471953773278307
Ni 2.2730491247752433 9.266652431656803 0.5891290729342445 -0.09829250252501137 -0.3033793743984582 -0.0636628282662839
Ni 6.3229756322441135 0.9901323468823255 5.454414785161883 1.2650370056293632 0.8389802721036261 -1.0180452659920143
Ni 5.036933407139782 6.299949949504512 10.287611017736825 -1.931100562834184 0.20092117053153138 0.5171511756404126
Ni 6.449607557618747 0.49374042404193375 0.9322574612508168 0.27786014708143114 -0.7694134196480814 -0.1984040605366325
Ni 8.878359931681345 0.6999854201304386 0.813194715943702 0.16803136178204608 0.15298346630998813 0.2454616761460676
Ni 3.1759021920672277 5.448307568013852 12.1699736432696 -0.6663726038048071 0.5204316461638973 -0.3684681364779912
Ni 1.1192553003329215 2.0337518246990633 -0.037720882449140465 0.06343142898176818 0.6011948815558936 0.3012911244108618
Ni 2.812846512112279 4.512446046292084 6.1824284695088165 -0.19226940839380435 0.29333201746478516 0.4702647955015191
Ni 5.268850919919761 7.792234371789396 11.971716730471876 -0.9417853177870104 -0.051996190561633036 0.13574730493735976
Ni 3.808147509009896 7.350566697197547 0.4276507435756526 -1.6451221575209927 -0.46060181849045834 -2.6235680639538304
Ni 9.273463107669732 0.32695536520915836 4.7487270565669215 -0.583602365285111 0.9815713394356965 0.7546663432458938
Ni 3.6466598499581355 8.56774645702595 6.953154422149981 -1.0767906023520228 -0.9196404062588549 -0.09442144960537932
Ni 3.3950100361269997 2.9185612654033704 13.106935135815922 -0.14934869777087825 -1.4147433438499764 -0.06856437933295934
Ni 7.915302354373704 1.31942386726085 12.48287662462852 -1.0951768181686945 1.303024026396098 -0.3493357865239145
Ni 1.5006718164432724 0.01118257023163903 6.992385781923085 -2.0958157157588038 0.12049809208777311 0.21184398809162228
Ni 7.302145589653573 8.500432720815974 12.513258770431401 0.0973825891162323 -0.3124211728857523 -0.06665173569127875
Ni 2.9575220640745905 1.4655361919710945 3.324079177875638 -0.8301097090868738 1.404966981189503 -0.278163794364779
Ni 2.05842886312947 8.344533547972084 4.844939517366002 -0.4307520821188775 -0.11564899152558793 0.26415102502545473
Ni 4.0344578761956695 0.2706404042754053 4.922376903633003 0.3854656994772523 0.6516592088540326 0.25143666278257987
Ni 7.363954806894195 5.614637337820009 11.74486710702097 -1.9160999756602939 1.0936392984782455 -0.18967927906912493
Ni 6.476281150387191 8.928311108904936 7.595059703399206 1.3416404532167152 -0.25843417714633554 1.709946095974913
Ni 3.026365869964182 6.702694144197816 8.304052009314415 -0.9100036545000393 -1.302726549760337 0.42794906545244366
P 1.8693253122992586 0.721592989508443 9.858723156847045 -1.268409264535706 0.0661789098199183 -1.187746816387632
P 5.1987849242251105 4.8413737086370405 12.367096065378048 0.7314479961479016 1.2728068793827694 0.2939907340947066
P 7.057371759687545 3.9306743693904362 6.668258246713267 -0.657940413877054 -1.3383658962305014 -0.005461537335203498
P 1.5954708287273407 4.034476535582006 13.141031432469141 -0.8396436167192378 2.3062275993895898 -0.49347080130433724
P 3.7930800545429366 6.606187798063931 6.101482185641182 -0.5152238767107127 -1.0585162295228672 -0.21991056714984064
P 7.184274246164062 3.5269878756871247 0.03391063575916768 0.36737567474476085 0.2634200603967012 0.7802092247120047
P 4.975357432228371 0.8285728491931684 7.090032216562148 -1.814494349601649 2.958751213126446 -1.4153740354554398
P 2.126255732463706 7.860023922350959 12.267729235318734 0.5567991290493378 -0.5636901997422162 0.49637666209722253
Ni 0.8546204195500123 3.9846093255969315 3.3450392665477557 0.5053703809554007 0.711744089961071 0.42887569103177103
Ni 2.341780974346814 0.7981655132187334 11.897857281534954 1.3711106947616905 -1.3305263455814247 0.9250458935451423
Ni 2.895087757391687 1.8639047605684205 7.374697015608286 0.43775216758579444 1.6006652127591983 -0.5397637708336059
Ni 2.9285440370935536 5.850398684185367 2.4170081563022223 0.26567491786914893 1.1927707519647845 1.4278320587131343
Ni 8.423070905063637 2.918132099517624 4.667371199169195 -1.5542169485989876 0.6023403080142464 -0.11314576548775997
Ni 2.5671490425225794 3.5141595475805807 1.7856034447140263 -0.952681910094856 -1.7333804157384534 0.47024628355875786
Ni 1.5236228616375258 3.872690326348857 10.878119952290676 1.0985053683212953 1.3286558680315892 -0.19485773794627087
Ni 8.597470859460458 3.7559851945053957 12.085340264661816 0.8237611411610264 -0.5517631092873272 0.20524962270355618
Ni 1.8547056831043824 6.506416059321108 10.514256320907345 0.9781461158042316 -1.241396740502604 1.2208176307996714
Ni 1.064937826706522 7.792187723323555 9.072443672724846 0.30374575659894143 2.410066742764443 -5.036825288631112
Ni 5.534821812764385 2.7740349885317532 12.456550096445943 1.7283456815280234 -1.1939483172126533 -0.5543586379286453
Ni 0.4992206858090494 1.940884058900853 11.264567971926743 -0.5954777765664584 -1.4901242318841368 -1.4381835771507876
Ni 5.331984953590295 0.9296003646364577 3.039277232339925 -0.3377182568896442 0.9413178912322886 -0.8893111591476942
Ni 5.236850072352164 6.827609406029465 7.718473817600061 1.4569480022424846 -0.34232001732771367 1.3778940362321108
Ni 3.8591156227888415 2.3250528344958807 10.68503822029346 -0.41271990720751506 0.2567400772733643 -0.22597914194142374
Ni 6.235481769710899 5.61143725306325 5.773039667340981 -0.9668869979506446 -0.7359361138262422 -1.9740698673068584
Ni 3.776613146100719 0.3223250384896835 8.977173510935774 0.7174059162325387 0.13103575839430334 1.5417021039614287
Ni 5.226204892447025 3.169688616417076 1.3975432540984605 1.3206193708803577 -1.8304007364192607 0.6869733107742944
Ni 8.079523613523804 3.4743124280583624 8.431575853355946 -0.7672860888924334 1.4505760372778695 -0.8791650718526279
Ni 4.638051705418195 0.5169312423506148 13.088391437674419 -0.5339888160230417 -0.010908419382387664 -1.0644989294688636
Ni 0.7478010305877831 2.592040663895859 8.754692982795628 1.1668771720274744 -2.075524569609935 1.394891856341688
Ni 7.990956836276225 0.29274804520723563 9.328037147858263 0.6643910545984042 1.36048072585167 1.3104300890521818
Ni 9.196203918542249 8.04035756160288 10.725675564827043 -1.144004895414991 0.35556685503529084 2.955689286371671
Ni 4.621864687771028 2.9574660859155806 5.315489123099255 0.2669460712720887 0.11597423607549061 -0.8995768027397604
P 2.249407682286529 3.95222596060943 8.281207322622281 0.6501641123657448 0.9316019494961053 0.04476059204514227
P 8.479030404687675 5.77246775714976 9.747981564876822 2.723110122615226 -3.7618928782649084 1.1781825697379644
P 6.146401859339057 7.438405758377992 0.3665030015806707 0.1779373080418484 0.49035719537602 0.04493414150852907
P 0.009359548186534521 6.303308639045135 2.7769253274753223 -0.7253431688017444 -0.8558418237456552 0.11173577251411079
P 7.899591151078126 2.4064917261628063 10.144193108413614 -0.5312032828581045 -1.3304358427501475 2.2162495302675445
P 5.415942862412687 8.216763400030905 9.502273832624635 -0.5867856481090991 1.38174734853993 1.1394393875314957
P 6.116864050767917 3.6208165998816795 3.47066451802952 0.4131839913281271 -0.4197256491013868 -0.04776312631689193
P 4.275369213189982 4.352068620727362 9.889733191000158 -1.2166827826956916 -1.414312426960145 -0.7853069509498862
Ni 1.280724299998345 6.827357504313919 6.4489731384832965 -0.15750243722626422 1.518652678341133 3.445797084741046
Ni 8.405801643008937 8.222435853477288 2.0021978694342324 -1.0432970985802676 -0.8799847395404458 1.5812320437352512
Ni 7.436773062073523 7.342169973345991 9.464190958080563 -3.1591625339010942 2.6329405063076656 -0.9039618191813334
Ni 1.193995472304939 0.006682859216521807 2.7628057698342725 -1.5316002396407364 0.2250149782559415 -0.7504034542044818
Ni 5.9716007281359955 5.468926189916006 1.3815670875168997 -0.2218214110193083 0.14540128308735603 0.22463316943649053
Ni 4.648342356982934 6.3838798692474 4.088319127826135 -0.8338311238025189 -0.7841152446346302 1.049342019222767
Ni 7.570290301006433 6.793546696271653 7.0472238524282815 2.238639982147603 0.8795738772552723 0.33551662125263504
Ni 8.299872306774974 1.4827681352531212 7.042758661277888 -0.8129049151728129 -0.059442362427033116 -0.4371605567483826
Ni 3.9103356382833336 4.878356612356562 0.7151741606085866 0.17127120887558245 1.7233564558435481 -2.27474135585585
Ni 7.739129758274889 1.5430472828141257 2.785336045866631 -0.02570280408274283 -0.2023424763590902 0.6075671036308247
Ni 0.5274131526253073 3.035163770621979 6.404471435039366 1.8836595957434012 0.5047157780905372 0.8258321647574423
Ni 8.888025493803802 7.253341964689696 4.780816536219618 -0.6480082423650065 -0.26081681844589916 -0.3295393206232776
Ni 5.7191112419197045 2.4228839970596776 8.335649814137136 0.23824998888897678 -0.23847881707033122 0.3308312999618238
Ni 4.8988072997816845 7.647064346089161 2.2433303201566357 2.4446691633296607 0.9311995718513639 1.074842991707349
Ni 6.984656131133069 6.173038133334826 3.492867321831668 0.7492474862231677 0.6668315457190968 -0.4316895063314824
Ni 6.366041495909427 4.796675148667257 9.494982677413535 1.7850914709594998 -1.1571789709031037 -1.0157245882786379
Ni 0.2532423924549811 6.142884565014572 12.298288645291814 0.944791965823818 -1.9140875732159552 -0.1959859380134431
Ni 0.24724993053292058 5.253951399929833 7.862287305913613 0.7462274684499213 -0.32999723409630266 0.3967343304125361
Ni 5.861211798567538 1.0089036895371375 10.38056088483492 0.5973875919946615 -0.478692357443582 0.6016962466723443
Ni 5.6741141317685315 7.976654416649074 5.70759093679537 0.453341023162987 -0.6715040114941015 -2.070931293812298
Ni 8.068607872516782 6.187974972097427 0.7599277657680639 0.5414447580804547 0.3640198708986505 -0.915499644617604
Ni 4.991861659443264 4.4706303615113345 7.42519304691291 -1.064313810041251 -0.24695574419309083 0.6033427811368319
Ni 1.196094653267828 6.422644744362084 1.0184955470835653 0.002972709475078751 0.23275168477856686 -1.1350021776957484
Ni 0.14882633245293064 8.237391351626227 13.031026886259221 0.9387159348330673 1.235696347683717 1.833002692818482
P 8.658804262349491 8.800848840838315 7.482202137018391 1.581769918516592 -2.0400384608881836 -0.9180625202487738
P 1.7802827207000902 1.5923827002886017 5.368143112433729 0.3705535582521102 -1.1205921729180055 -0.4644443321650001
P 6.578721181376175 8.715715390676705 3.782926549467772 1.1768764493320312 -0.9694575868912981 -0.15039539386783776
P 0.4614214339372944 2.2173508565599214 2.2190246035143315 -0.061239049316139695 -0.41387381830630016 -0.3465931907817708
P 3.2721006583265555 4.308592250562638 3.9412962250626546 -0.6380063939572883 -0.34058889356921984 -0.07857445527079371
P 3.868445315957237 1.3415072509904427 1.2115968714364342 0.03997371217946019 0.9400243692318455 0.8252341261621271
P 3.0591504117579245 8.325696897465093 2.984330004424659 0.21860316119232676 -0.04586745195607585 -0.3218959451454069
P 9.273061930863491 4.935995456750909 5.56272599206174 0.06880837702296537 1.0783533188534526 -0.1220664650161575
