# total energy = -381166.0721173736 ev
CRYSTAL
PRIMVEC
9.29919381498523 0.00000000000000 0.00000000000000
0.00000000000000 9.29919381498523 0.00000000000000
0.00000000000000 0.00000000000000 13.61031012515503
PRIMCOORD
 96 1
Ni 7.821839936945321 3.467808748085571 5.023578701154536 0.10410088167667234 0.0017987437716356117 -0.20918186787842685
Ni 4.692493935072883 1.0102550838214295 6.171200541598373 -0.11402919653397782 -0.399539403961499 -1.1844653174228825
Ni 6.683311777835709 2.3739632137954256 0.3879725823840631 -0.4080718669125423 -0.25927261388723094 -0.13877606446135457
Ni 8.270646913357785 8.390857587872091 0.8444039675560441 1.4126193555284383 2.011197368286775 0.0040685136424188
Ni 3.3043196269719326 8.539505196142468 10.31472309719575 -0.5835871957764596 0.16998874261873306 -0.8260864468600935
Ni 3.102806103592572 5.5148495148147845 1.7967790111274589 1.6606544488286368 1.7983591346026835 0.45033411801586315
Ni 2.318921287404912 6.90022476566898 8.55557699228721 -0.6503489746830413 -0.06684791086248487 0.4468713562782433
Ni 1.2986602713658455 6.853356830374472 1.9453354873014304 -0.9773310761021038 -0.3871631417843332 -2.3930810068397235
Ni 5.642146174784331 0.42315794087093384 1.83990960054997 0.9142675719827158 0.23672738159686327 0.009136672193945556
Ni 6.613195858764165 3.2279453506676092 11.366091775367197 0.2685751222350794 -0.34760543409636907 0.5890258502935275
Ni 8.688580567314343 3.72258805189488 9.547891142068224 0.5938340703154482 0.39805536321680474 2.811096101007907
Ni 0.648351860525585 9.02788024094345 10.012464901078273 0.49109433065236074 0.12207289277406073 -0.40107512387973504
Ni 6.412482066026734 6.260895912606939 8.594256987695443 1.6976132854411732 0.9827015963853978 1.6358049938851245
Ni -0.2735897124429856 2.4146006894376875 0.9513595716400337 1.108416199677104 -2.046574462234488 2.3429144132876614
Ni 0.6751753842075308 2.4882131052692986 3.407082224701896 -1.4533667126491292 -0.8413300032827252 1.0517578277531112
Ni 0.33600775912627795 0.6520427104300275 12.70167170480968 -1.462592087902139 -0.22288636194871292 -0.1627595718601455
Ni 4.275025240791866 1.5564153170986152 12.754956083626649 0.7356854312680169 2.2360066582898135 -0.2738517972529864
Ni 2.8385602207892533 1.7785637508784746 10.32565243932901 -0.37476656789219326 -1.6483051832346645 0.4294896704666861
Ni 6.859103731964156 1.4696817392232437 8.828326987556169 -0.27836999683831415 -1.154066136305735 0.4133449423860236
Ni 5.903137339858865 4.806939109610484 4.126700314536314 0.2509448107478259 0.5075018254761067 0.22425675993367827
Ni 1.9819743097340414 3.693397883464432 2.091291908969778 0.2568061546246093 -1.7402090086245126 0.9024206999464587
Ni 2.4379137675693006 0.05523441969618778 12.179375991839297 0.09368611410125155 0.4401890591620613 0.5286782024434057
Ni 4.337050861509002 3.8899363383155063 6.078623350520806 0.40763220827196245 -0.7980375111426772 -1.3369209362538588
Ni 5.70101006970779 8.641163979602698 10.84250347449881 -0.4422932499892577 0.5168398150475809 -0.17577115362846502
P 0.6212130941836225 1.981853420218401 10.736765134845387 -0.03766820397473513 -1.0377697410041353 0.7662468489946416
Ni 1.7714126710686577 9.41171375229585 4.103753624629026 -0.4944635042349097 0.10036892543806585 0.09701132181974259
P 3.9443738171278175 9.279404827023972 4.078288713119011 1.0478872890541115 0.7566309231714324 0.27830623347991423
Ni 4.452649136041943 7.674847585119868 8.600122918962066 1.7899778525175236 1.0346229678450374 -0.5646186250937567
P 8.800115094283058 4.9348867131257865 7.079607138411952 0.5815120584149857 0.260916320138241 -0.37797427619621354
P 5.571834972649059 2.4550242836292 7.3992585460720575 0.35126539944645957 1.3196284677219983 -0.6074611741805795
P 5.300270624552729 1.617148349917748 10.665842045777103 -0.7013432063427211 -0.7258237079825887 0.011299741283535378
Ni 9.067513403686544 5.4312869619266015 12.051738981387254 -0.8925124396938112 -0.48311748309447117 -0.3662852698940595
Ni 7.232122281263479 1.0682262561678502 5.973496897800393 -0.32001826850671977 1.82094627587458 -0.9650409458808412
Ni 7.871897495614038 0.9851565605357399 2.977323716276986 -2.170382592532101 1.8371421689081522 0.05463568506700914
Ni 8.241298658637653 7.005733415242687 7.04205606509593 -0.5653799287398134 -0.801972070310393 1.6449835750605992
Ni 5.448546265082674 6.830071649823392 6.172969248204129 2.127641602020149 -0.4408572888736795 -0.049304502662082826
Ni 4.321604901087539 1.0307505063192657 8.672665927539935 0.6577432102645833 -1.2928123759704186 0.06045897661700555
Ni 8.113741621249803 7.633270890933016 11.394033992028492 0.4652912535463277 0.04034035149025955 1.0294769048677237
Ni 8.782418729031978 0.5136781503439092 7.486772326282987 0.7863001681010909 -1.5065582090704441 1.146625877977606
Ni 3.2855259568865756 7.091909041507409 12.195749081853789 1.3054766017016486 0.6747587709859735 0.3999039863897693
Ni 8.81542156680186 3.1119286124266816 12.483593528029504 0.00981570053884116 -0.010261015606375877 -1.601864375273622
Ni 6.176896297623748 8.894613498739961 7.3126421380349225 0.27209084869782174 -1.3539439531744164 0.864693103488698
Ni 3.4615596900463035 1.1322233059092788 1.6706652085724882 -0.27747602426913504 1.396731223543272 0.2798278123307632
Ni 1.30954962696701 7.358870288815886 6.158868881083682 -1.3415021278666381 2.573029945994962 1.863992456331777
Ni 8.96957429763064 6.20397554912724 9.410127309882904 -0.5690614913564586 0.07336308627318333 -0.3622578939022213
Ni 8.082170859280586 3.011376432994239 7.657540856076891 -0.026475163472393114 -0.906715984887703 -3.1747966408939257
Ni 3.5674217089734213 8.045169368301053 6.062113562361705 -0.6719156451102235 1.2861737876079784 0.3226855309262378
Ni 2.794872609675444 5.052037952975034 12.976627468779402 -0.07505821458741913 -0.9453046437941783 -0.22871016771934158
Ni 0.2376009036367805 5.736449296177506 4.874369421596104 -1.3180487819397042 -0.9452197973898561 0.7474549130991192
Ni 5.450164324753556 5.047527844122289 1.5669280553625915 1.6381431550999979 -0.5258818706451912 -0.4516021860950093
Ni 5.995720110452539 6.830332027241695 12.393058439846909 0.3247239015125053 0.5933082797189653 0.8971373400603324
Ni 5.759725177535076 7.222581308721382 2.236133357336179 2.037286609174659 1.0457676716079471 0.8768310244028125
Ni 3.7821307879446286 3.5226646906058687 11.357259401370623 1.8199592293709623 0.46524780190290194 0.4144780275492023
Ni 4.500977044717649 8.81119973294795 13.32371707681252 0.6070364279383352 -1.5000260643788812 0.9893440414025799
Ni 8.964794512166081 7.675368339956474 3.228569326552185 -0.7747078352778013 0.23411359812310004 0.006778713484730261
Ni 4.508927855169396 3.2532019602429827 2.654772820080208 -0.37129763550698636 0.4799725097075863 -0.877293822971844
P 3.327967476069935 4.942958413093174 9.751787118825057 -0.649220774615869 0.163054477392745 -1.7344291687179418
Ni 1.696405376210424 4.719229116416477 8.14858755917353 -1.9091096603853894 0.07310366196420959 0.7190138841496069
P 0.834623075821369 6.951723699331874 13.14553151027439 0.3908390479740237 0.7767374641133203 0.9833937373564161
Ni 1.6791088762803081 3.862624606974243 10.554236844937705 -1.7727378344901532 1.1111017169290671 0.5161101359704079
P 0.33516339235549597 0.4800931830602497 2.42253941093787 3.4587577586667724 -1.1248028685652434 -1.98512149713533
P 7.331335376830363 5.112798883374699 10.710020654308284 -0.49743904192346594 1.9341177523939528 -0.9817556875323608
P 1.8671013722949439 8.88102737702066 7.929311646269161 -0.6291707979435293 0.7459839849805475 -0.023003402873708768
Ni 2.1282599228526724 6.874921660126053 4.025466504219528 -1.8756866048402536 0.9273200342912996 -0.3162644578912424
Ni 5.999644370114102 3.6348501611203408 9.267736199006603 -0.9628909894173739 1.2682092327097578 -1.3103020481147496
Ni 4.906589267272377 5.6977739503660265 10.82351731110778 0.9544878529553431 0.010006219283092444 -0.5959120358903995
Ni 8.50689292450004 8.344454612253124 5.385667908320596 -0.18211689334083475 1.3145232852849489 -0.8186045366607516
Ni 7.855019459391909 1.4846627399691668 11.002152028692484 0.7528948531677678 -2.5397976663043935 -0.5058784309400706
Ni 0.792497729217377 4.4520539876572505 0.38734023722532773 -0.4853826249795641 1.7909085918619092 -0.03683593788142688
Ni 8.739140282432643 5.090731897173535 2.566550441323755 0.02700969581962445 0.11832499569585431 0.5199747611321367
Ni 2.9952330330594643 2.4613291368295322 4.166782628325979 -0.6729273742041895 -0.37908653542378584 1.0113855945836518
Ni 7.577624516964297 8.58687528788656 9.41063132617119 0.28880199080491553 -0.46367094433408534 -1.265298743931182
Ni 6.853496318277134 0.3206780386236994 12.838959418287244 -0.19420339219172358 -0.5821018694801846 0.1669692390661189
Ni 5.517462588191324 4.137666853443617 12.929753024049438 -1.521028120551845 1.5166623873839815 1.7279857270854435
Ni 6.4214650869581815 4.645932873164233 6.9133980031964 1.0475707862549573 -0.6796343539107198 -0.8001211331445833
Ni 7.091193003607077 3.17283832992252 2.611518551384003 -0.12231946156722805 0.6120076559006815 0.3162575159127069
Ni 2.4082121434957573 1.1161171027485473 6.456241280930577 -0.3590527567013623 -0.9104764803713997 0.4031260928714928
Ni 1.9718474880007641 2.378975479097755 13.19639251926244 0.5174949321330765 0.6421214445669264 0.1401235796281845
Ni 3.187084694381088 2.952726419521529 8.016976073414964 1.7126107872912697 0.4221149752691698 1.1072728301012802
Ni 4.269659606136126 6.767692659752845 4.146911181712719 2.1784771966147773 -0.6144232073207095 -0.04255150020896543
Ni 7.460082710987597 6.417140961975653 0.6056536836013269 -0.277008083493781 -1.9048416291376549 -0.19446975847923284
Ni 4.473125960152758 5.514598436589993 7.839837596066152 -2.6222917683445677 -1.2501675447166984 0.7663959729779962
Ni 1.0967468826655196 2.0326921111420266 8.621477586940301 -0.4226613346909431 -0.26751557062231346 -0.827315177060872
Ni 1.9512776719548413 3.4814506649659367 6.22485223855902 -0.6725854174837385 -0.27365485075083196 -1.6201652304653387
Ni 3.601112687063104 8.031871521580587 2.241685905781487 0.20707124929332726 0.18248918907858896 0.3269052254345402
Ni 0.31795895444113714 2.0335011409774673 5.898394751168349 -1.1793030564956528 -0.6369429856897804 -0.7366930465969248
Ni 5.492131585067864 2.1773038694287106 4.244170516722981 1.4568001638107102 -1.038678368861334 1.0585920770661252
Ni 1.428207336165009 6.650941285224563 11.023452761348356 0.13362665904993115 0.48437218143717875 -0.8558760194177003
P 7.9001112487258505 4.2818322504417825 0.7219503275669302 -1.0319636758453195 -0.05116212469611189 -0.20327784368916604
Ni 6.575255149240039 9.00313508701117 4.106012398732804 -2.3015710744541846 -1.928746975000343 0.864299210484389
P 2.9210719648107144 4.909778890646586 4.196004414014364 0.8510462021292247 -2.4151624121197957 -1.131726335157954
Ni 2.0101043701042567 8.861973329517 0.9511921861568392 -2.596553740148515 0.617341152298453 -1.4683109926637874
P 7.120996918809239 6.7027656906603355 4.124101189950041 -0.010324264744143509 0.0926900687365694 0.20969248896625822
P 3.7907325419421323 3.6173955749005406 0.7125497728468473 -0.19726583316713125 -1.3254553588164204 -1.5680463982829125
P 4.551825034834785 6.7539205541633285 0.4718745558353914 -0.3251707592419367 -0.25974209732448167 -0.19188734246403727
Ni 2.6374465627308576 5.618330940203134 6.127034951938109 1.02648259812609 0.8164725779194133 0.5141573831194113
