# total energy = -381158.9569724771 ev
CRYSTAL
PRIMVEC
9.37285972393488 0.00000000000000 0.00000000000000

0.00000000000000 9.37285972393488 0.00000000000000

0.00000000000000 0.00000000000000 13.71812762916933

PRIMCOORD
 96 1
Ni 7.195675643058264 5.159159424293967 11.22168912969707 -2.214943152751295 0.21018665499385736 -1.3571609174498174
Ni 0.12276759145711261 4.661844859306187 10.92311387079556 -0.10507764376764483 -2.168834017098058 1.1530338383864787
Ni 1.2460092282241557 -0.14673493110034472 3.588950475922893 0.9899863029722692 0.5270972311095309 0.7444009567641438
Ni 8.580843719854265 8.482541166892622 2.699357361346777 -0.5094206397653743 -2.294921944568783 0.7831942754822577
Ni 7.944660864946605 4.330383047432087 9.12690371649609 1.2679809187490354 1.073879856463131 -0.19840766008105828
Ni 6.57087143987595 1.2063714043802587 6.197685405579648 0.5804198537920714 0.5225795457448354 -0.6825417573655019
Ni 1.847531247810291 6.658367085556436 7.281431685970855 0.4866913164886586 0.2642929499199577 -0.10485292935134845
Ni 7.606844254168235 2.1560576718986217 8.705743636902412 -0.9790282612988688 -1.2065233256641865 -0.8790308602676087
Ni 3.6558745690442436 0.534407657412046 6.834562789394103 -0.18170963060008705 -1.7355044040599916 -0.5047216916278081
Ni 2.52752284914651 6.125885550821127 10.461266207067016 0.15586875827758317 -0.9391597072387051 0.858747170317908
Ni 8.867475143588058 6.891067074341592 5.047214673979571 -0.1809221017017852 -0.19687476837629966 -0.8432868698987798
Ni 5.805080680472331 8.553803019502022 13.25645824740568 0.6913732396142028 -1.343637429042086 -0.8065082676178498
Ni 0.7397107771748069 2.382890250486029 4.617178496211344 3.503746407562321 2.9389524332329646 0.3830205803708694
Ni 6.168025928215821 8.431140404074005 8.910953028067766 -0.01336099468793828 1.9787659872309467 0.7921072617011713
Ni 4.269431340537583 6.630145404876849 1.0053544933769716 0.9868629268519391 -1.9822189787765538 0.12617843030200204
Ni 0.6979181328764973 5.620810257967954 9.123515427699786 0.17784860498278401 -1.137068573306474 -2.116081665096691
Ni 2.6900482370522014 4.471097790720908 8.004266629182329 -0.3179289900778589 4.738381660971375 1.80615420516707
Ni 7.136195475143067 2.5079429451479522 0.6335293983150363 -0.0218345793765882 -0.6217287398431872 -0.8124904533432136
Ni 8.13109641805111 5.439576642019601 13.13339259900881 0.8308291037514014 -0.9370722285820572 2.3750868842551487
Ni 6.854400447035533 1.4349473348794577 3.4039752143660067 -1.396277423835305 0.12091049703484338 -0.07563157059238587
Ni 7.808201399980113 3.5278506778444836 2.446367005794709 1.6233102038522236 0.15467422374884976 0.9758462640264614
Ni 8.72922546241107 0.9385888015852407 4.561661173394563 -2.693190966458291 -3.419773149873459 1.8339866539983058
Ni 4.588492858974587 1.665594667381376 0.2939113238944817 -1.1505738068817604 0.623231549640959 -0.45584142098733754
Ni 5.934885415022846 3.480274041800118 12.607466442376225 -0.8854426773312235 0.6712178477122505 -0.541517520299919
P 5.03095744875913 8.270105300867103 6.190867587404182 0.9003118811335721 -0.006673812475749797 -0.33392973638148943
Ni 4.572793318908725 6.0889752291618064 6.498853197485467 -0.8487548349918866 -0.24407842264529578 -0.43511370152168294
P 6.2197547411253655 1.2465247355099003 12.739435370240894 1.5259533257676043 -0.21344141448572918 -1.7460384708220962
Ni 4.074813280879348 0.5058532402116601 11.970918045938673 1.4411663139281954 0.21597986463686672 -0.997595482778095
P 0.7446840165532821 2.46316879416609 11.430204328493007 -1.2209490141712134 -0.431388944371928 0.276142393059376
P 2.516809670462761 3.917414847251881 9.952721081537794 0.45994875828749177 -0.16158123528132817 2.2616120175627437
P -0.01359064662417838 4.683749232520466 1.0466644353986294 -1.6153932629979921 -1.2800136815438536 0.4024678904622036
Ni 2.4753347661096647 2.6418248736857204 7.105194741550329 -2.2012818532141183 -4.610221681462971 -2.44945758585724
Ni 5.887674320508373 4.535545574298736 1.2191447376350382 -0.23563157742952323 0.31784465789416877 0.11983140503805169
Ni 4.732806780403879 5.117572045623981 10.177657530599635 -0.07224079974328204 0.09472612532999171 -0.1789912032276595
Ni 0.5883878312313344 9.433970786322776 0.9691621327737976 0.8787151287994027 -0.19784407426810444 -0.9765800568686924
Ni 7.715063292735657 8.44112249969797 6.247207847306207 0.34898585938366344 1.4777330573086356 0.6628496782532133
Ni 3.711005730039704 4.925447166656802 12.65047287201097 1.2083323538484674 1.0845612474363773 -0.012682994784307188
Ni 0.9550006789914036 8.326164374976903 5.937164894511811 0.4743744467945185 1.3587753131247888 0.21627425594883395
Ni 8.587676534605318 0.815162298088349 12.352200356479086 -0.23861817086167295 0.17068911111986734 0.26621613508459957
Ni 1.0640632749355 7.744700275236107 9.630523404231514 -0.37791076994812983 1.8589458950468047 -0.5008814919461115
Ni 5.612665242853189 3.5198275099063476 4.865586460636128 0.34969316986333326 -0.13036547180015615 0.0423794934074754
Ni 3.2882897557290525 3.452464766949127 4.340730684585944 -0.08749155525476544 -1.6790710036626115 -1.3932322092510778
Ni 1.4087220733246637 3.76251896717521 2.616869634625807 -0.5071403283716297 -1.1913677009696708 0.09885274590385555
Ni 7.674581911515087 2.8427040036508173 11.01053922002799 0.5676067611878031 -0.6839954590928929 0.4873472049051026
Ni 2.613115804299611 6.007853128105073 3.487381481341577 0.884449974400651 -1.854309167605742 -0.25969067526125594
Ni 6.12406721603141 1.0767822456037828 10.344470064550775 0.5349938602487883 -1.2544366044056974 0.6821617483182638
Ni 4.9095226779571615 2.238491973319069 7.546630191335331 0.9329175829837352 1.8356200758366708 0.8221140924759067
Ni 7.860183280102659 6.82379805998178 9.756359669967768 0.3414545840036249 -0.7927148133781832 -1.442721574230457
Ni 7.5063390791675 5.505355371680624 3.6419024470286145 -1.3610003458005657 0.47095976468601475 -0.5538109929552913
Ni 2.378147583457178 7.734137062308211 2.2407461460867344 0.007476510882703253 1.511450504165739 -1.2512728619657354
Ni 1.8085214055690286 5.5324991734900175 1.2919006240871227 1.9764386246493508 2.561508575618924 -0.11905184655954981
Ni 6.913027684714317 5.4282448545929585 5.8792050044465745 0.8800402753687296 -1.0657595413488419 -0.36410780262676645
Ni 2.9384009016045147 1.5925613442809636 2.6319739980981263 -3.810732011254798 -1.3545723307870348 -0.029692384858110155
Ni 3.418094490279567 7.448011773000423 12.31843931569268 -0.45035160151735987 -1.1353297362384964 -0.9954761224422469
Ni 4.837248556495755 2.2658419780427606 2.435269539861587 3.8897219567964556 4.089475846492763 1.2730629612576334
Ni 6.782669951439094 8.218601436591337 4.093640544240719 0.6159833527189779 0.9331335556492832 0.8258445060526164
P 4.743585569105814 4.7030385778670585 3.125057654198903 -0.24463198115592064 0.485124743332487 -0.5009851074035114
Ni 8.85297532956902 6.613752273190168 7.466420069531378 0.07057832443919458 0.14529175409268527 -0.3725500198568487
P 2.2908019035325444 1.4026765787918396 0.30163456032091135 0.7801153794466178 0.522664649259474 0.4997262952957458
Ni 0.3255231679423206 4.862236600564762 4.314913142429876 -0.8003821001154539 -1.3786473694583674 1.044387503430969
P 2.7050635583569833 1.199904131159098 4.990284861199848 -0.9896649150771084 -0.026923563863721377 -0.7311497481811924
P 3.9037117263108128 3.974523681652652 6.425365290687626 3.3488731804287872 -0.13924734767081823 -1.6380539378203014
P 7.719290452478763 3.3873140188907382 5.38804184730669 1.057907906514907 -0.5271509671656018 0.08273012931038011
Ni 8.178298139705841 7.7891838675660034 -0.19927074723357383 0.4943259502157809 0.8384709365673754 0.2928586773727924
Ni 9.426659955724942 6.850613811700245 11.78055151545887 0.3596826769758773 0.719204145783542 -1.1937457142835441
Ni 3.2284253005644814 3.8183530926512317 1.0787730410127314 1.272564681464976 -1.3081430927902182 -0.2771934600317097
Ni 1.5203247142585201 9.885836354427354 8.157648792410857 1.2785859479583916 -1.233648978236385 -0.7894929640067757
Ni 6.584077799250755 6.920975869774526 7.440849970872467 -1.3066428540956079 -0.7066209098018927 0.8561562696622802
Ni 5.1046468720414 7.137460811208077 3.3302398640710074 -1.8521903214905264 -1.9112107658887922 -0.546642243120994
Ni 5.374988265545659 7.280959293839918 10.812710955908528 0.09061004627908911 0.08886221035004696 0.6644931273939072
Ni 6.883578159408683 7.134292784615681 1.746015678529497 -0.4177063046785129 -0.4965918634318222 -0.5867280553982864
Ni -0.09150910422150232 1.5351713240879674 6.880834723362548 -0.45216860012144067 0.8209923201666377 -1.1612407996773033
Ni 2.9362263981446466 2.8289352726915635 11.968174609892538 -0.4874086542706573 -0.701844828569488 0.08724987155760457
Ni 1.9893988528472315 -0.07805436406356574 11.442043187631628 -1.4386607738975223 0.012537984566010666 -0.8699702927272371
Ni 2.2813728066332875 5.054886359677425 5.4482231051304995 -0.9067272977416125 1.4659756596623914 2.777006872633682
Ni 4.631036269338136 0.29312494096222746 4.192849452739298 0.6703084485241037 1.4229950423358073 2.1040483880812406
Ni 3.2445185007394572 1.8596784740343841 9.312989661932262 -0.97132497911734 -1.1736090914346693 -0.020646729716074123
Ni 6.024011938298234 4.576336259890753 8.17732148772085 -1.7111288034291046 0.028927738777943728 -0.8637469375253446
Ni 0.699265012821252 2.801266590736685 8.878303608446618 0.8705737306391911 1.906962789245716 0.4046245317938903
Ni 7.610537160906114 8.534569911313874 11.098733143759167 -0.5106928216095786 0.4091802694853728 0.419060247603246
Ni 0.20293272353430936 2.4020952400949547 0.05867035283359103 1.0727164322826495 1.2795657953731576 0.3524463071284382
Ni 7.171287462012669 0.20638662234879881 1.159131254000589 0.08327006097425013 0.16054842314143963 -0.219543413618409
Ni 1.3155652203607267 5.034659728356752 12.847245752123616 0.10595156173216591 -0.31693551581633805 -0.08781937090782939
Ni 0.1261596293973127 6.420418295316424 2.7127052509036678 0.35726378312173956 0.14044368197176457 -0.927718555281299
Ni 3.339296858438555 7.896662450213903 4.6922447925895385 -1.352653002277135 -0.43803318916132306 1.4273389211268
Ni 3.7083719564525355 8.622496708542435 0.3813900984274346 -2.407465814806486 2.862236371327148 1.1103630389908297
Ni 9.56537827988897 0.8715006834184258 9.858902504676156 -1.4585616265865073 -1.207616044507733 2.831948004756252
Ni 9.201589474768808 4.071410932793433 6.966284273761614 -0.08616152358943224 0.1958710097021336 -0.7395253738393974
P 8.791442505370584 1.0943094933191024 2.4619653189753694 0.33608972014728566 3.055630894464331 -0.9842609704527178
Ni 3.864411325417585 7.105049462224345 8.652531100295896 0.487957841905908 -1.1587252323443011 -1.1106481743314163
P 3.7794182332878954 8.711641977537306 9.839422890276824 -0.13166670711008294 2.036391093943583 2.017694031754712
Ni 4.906748311473882 2.8708788200317006 10.361837036364527 0.4693070595739402 1.2901733956856747 0.3207122092499509
P 6.016166854695173 5.827041290845056 13.034690762222208 -1.8538404554994394 0.6283187343558793 0.11812984896591269
P 1.312387820908591 7.956929938347328 13.073759653479836 0.2766956944596848 0.03857348939782389 0.40057324454265203
P 8.433408636131283 9.460870893778909 8.16124328412146 -0.878313779595926 -0.8844998538019798 0.13210225198560474
Ni 4.953293932946758 9.479335427468309 2.0789002905122516 0.938339782440571 -2.4805861889412437 -1.172500945972155
