# total energy = -340867.5326254087 ev
CRYSTAL
PRIMVEC
9.29109942498317 0.00000000000000 0.00000000000000

0.00000000000000 9.29109942498317 0.00000000000000

0.00000000000000 0.00000000000000 13.59846316718681

PRIMCOORD
 96 1
Ni 7.538379804589171 4.105495175075072 1.4854823122200111 2.204857486380519 0.2694564963987682 0.7019173336786363
Ni 5.680559478608266 3.2344081680568646 9.80071136269695 -0.658190325104331 -1.2091643628314597 1.2776647216957029
Ni 3.962049894275604 5.374640745814479 3.311742632383205 -0.05894871062006622 0.9498740083324156 0.4538781266133796
Ni 3.0726036752061145 7.769468024295393 5.540612296663711 0.10558646508326332 -0.5915136497123877 0.49395082626454934
Ni 0.42840143554158305 0.4214284655797979 3.483940148817237 -1.0196072111624956 -1.0601018288424324 -0.8482732673697778
Ni 6.068481453084552 6.388141721619152 8.161117587777232 0.11027641435976492 1.0148714962497232 -0.09825882107359851
Ni 6.246591825059797 2.101823173597695 4.709148111363064 -1.4593632965521963 -2.2532716160178485 -0.8359983066571668
Ni 2.9694167273105974 6.8422256136142545 8.098781744915662 2.0768026649914106 -1.6557138169939096 0.14010352502352644
Ni 5.432338471947305 6.659209541252838 5.8127987646430315 0.028883515803569612 0.23772137007901636 -0.8389471048728455
Ni 8.230083559039509 6.739949193441928 1.1772788981289517 0.5200174414446141 -0.26964392981922597 0.025986653871748797
Ni 1.206402777732165 0.7882512828459336 9.842459058805265 -0.6252778906470263 1.6939137251023988 1.2531960471303771
Ni 0.06581814684781592 7.9251682649610755 5.330638099926386 -0.356982761546211 -0.4923138048817585 0.5795225387887825
Ni 5.720111687971782 3.912862815024851 3.30822037667033 1.2391066589168467 -1.170439692567752 1.291837156541343
Ni 6.746703822572132 7.026180086996511 3.01815133002952 -1.2927686672166767 -0.4783714837690536 0.6384740776223262
Ni 1.623563841441946 1.5370915810364374 7.494820344133691 0.2701648353197025 0.3590072481754075 0.2458591686948024
Ni 1.6516322521741948 1.7492631227384028 12.275060230259708 -0.8814106733536949 -0.7175540117746287 -0.04668146321693896
Ni 5.087359958048462 1.5317027434910204 12.850194137503461 1.5123128521660343 -1.3870520485822952 -2.0198200769587795
Ni 9.062250151440905 3.156966856089537 13.539255503336703 1.4494282968266716 0.05870985513638276 -0.2826328858797261
Ni 5.641248837824372 8.059647635016875 11.115859952985707 -0.30358789086483845 -0.4724954846042507 -0.7751984017609747
Ni 2.420953849476969 4.155379086767043 7.432607143781775 -1.860503469341912 -0.5522873572219134 0.4693319992746046
Ni 4.82827765640372 0.1387161112984037 4.538772579485336 0.6804095415138476 -1.0765676877079395 -0.5284432036144641
Ni 5.443125438137355 3.9598571948605725 5.797704444856334 -1.6664039497179044 0.4228299990583234 0.5615479565882329
Ni 1.4654664971784739 8.257362226338378 7.501129929611437 -2.046669850161772 1.6717065928777404 -1.8789529342963511
Ni 3.5982847777615317 3.110502068909141 2.2225461421539356 -0.6614998490935382 -0.13753679273761474 2.1467523547076706
P 4.753540054308318 8.412635076440115 13.065158583629827 -0.6576678769419577 0.4859865771121501 0.8658876380174313
P 0.1600494042088032 9.351119717172898 12.201791550950391 0.7039271650198135 -0.7897793848989431 -0.03106458261528844
P 5.390472778878945 1.4974557517799745 2.754014670411147 -0.5476197765429149 -0.38829237029277 -0.14638061628148982
P 3.5120169215387804 2.4129263397541414 8.179094935650728 1.11778992758252 -0.674909951851857 1.3461581385814108
P 7.484602922325597 1.8679104597297367 0.25863725799228354 -1.318562745461645 -1.2472804529768906 1.0442319516897114
P 4.674212649200094 7.7514990384111915 9.23354643125096 -0.2605442815108029 0.28292959118453853 -0.33242152726707913
P 1.7798772946559005 9.177775679095582 1.045074918271208 1.0016709383990492 1.1635581349565702 0.2706793130622758
P 3.236944638142897 3.3392024761167907 4.742858077539411 -0.3611458917849651 1.7111069490522337 -1.0504151976822877
Ni 0.29647154311071816 0.9693589634283357 5.66170598007868 -0.8045017787107822 1.5882740381836968 0.6964028316183104
Ni 3.849014381210877 6.377652070604022 12.13789294520065 1.6661854059491947 -0.1480055534794225 -0.14014312001221027
Ni 0.0447914602115522 4.117434237567935 11.473362868628037 0.8545537010618508 0.2624114166265287 -2.821728898131405
Ni 7.502739147995689 9.351305539157222 4.718081503259475 -0.22990753046155243 -1.83037091162259 -2.6438759222732466
Ni 8.849744130167155 9.205621103446642 0.8719882436421823 -0.7037739272714009 -0.4195197037381678 -0.4019575264846884
Ni 4.787731299424066 5.580773073025892 10.068043231335789 -0.7599288771964139 1.0344154798199217 -0.9571936819222804
Ni 9.129257558988398 3.6836513973603084 7.60799986923627 -0.2036398550142751 0.516324308863743 1.443880370425249
Ni 4.240234695908927 7.514789703679147 1.546376176483222 -0.28780517410928497 -0.10656322717423582 0.6543670947034989
Ni 3.269379865506777 2.9087272672301436 13.404765913071765 0.6576408803587641 0.9074911724908307 -0.4130544077287983
Ni 8.184334186498763 8.286554860075793 10.400159147479673 -0.6089328736300996 0.31268111141535826 -1.1366258293421005
Ni 6.245681297336605 8.868530732782384 1.1875920182589736 0.4717074414853167 1.4242708237244375 0.3699015264904081
Ni 3.5089415676982063 2.0059947762814367 10.722428356674193 0.4311498317779284 -0.028890200671788952 -0.27623598121444687
Ni 6.197692769884746 0.3494586819409122 9.016012067081384 -1.1580194645265285 -0.9213105948724262 1.3042810387316506
Ni 2.3580159433861865 7.389973076808233 13.475940378617741 -0.5759019113170597 0.7599005950616396 -0.3461746151871135
Ni 7.625530315237464 1.444561523941943 2.7986453946062575 -0.08684183748590851 1.0925509505100732 -1.59044353503119
Ni 0.8404022227466663 1.7968614240231802 1.539984829332373 0.8229692413873505 1.0855804327295109 0.7624858392903127
Ni 7.223457996654851 -0.13369055573234162 12.314686768416953 -0.07927816620603766 1.2036943408558238 2.6202341144845906
Ni 2.323982646957114 4.672066405281145 12.233136003266285 0.2234059818976088 -1.0390064416247138 0.931683453466318
Ni 6.911323518485402 8.477607733259253 6.849940013293495 0.6480316394037743 -1.722032337715486 1.229785638626237
Ni 4.562719458605263 4.427227358734893 8.021420336401594 0.0747162578669681 0.04856196806910346 -0.39285402152152343
Ni 7.849780285920537 3.1259996224018227 5.696994504011865 1.9505185623494796 2.046961927480894 -0.010184139621853428
Ni 1.4702514132748354 6.332543783909196 4.427415038939061 0.24962866303956363 1.6558716827280129 1.323102799423844
Ni 4.572744554659581 8.741558570893302 7.138349669614286 0.13280082071452612 0.18042099369565057 0.4016039998000116
Ni 3.8813845708802432 1.0946587274584947 1.1271041750315125 -0.6683340984065522 -2.0248147019598934 1.030403273336735
P 6.4426340185223765 1.3986449116153046 10.999320766406537 -0.8704626589826235 -0.4499895901922508 -1.5443544539826113
P 5.737123690636711 5.139529480147626 1.663690240737026 -1.7460934924297478 2.965286957362435 -1.28283778125621
P 1.7677524101787125 3.8697335324630835 1.227964631683284 -0.49693793391733126 -3.372241679951398 -1.2505074445546205
P 6.836047032635457 5.17849635026052 4.880134997569219 1.1432235371642763 0.8242625062774771 -1.3829282562219085
P 2.29659248646765 0.3364808745556737 5.403009259051412 -0.24084371775808197 1.9989069809551965 0.5196387179489567
P 8.994508747055328 3.1067205915281333 3.478731558596615 0.4208191392758817 -0.24125432293293936 0.5401864601933213
P 8.871949857293957 7.542728039022369 3.1502874848629854 0.5157290984819053 0.7370545437014016 0.6797636803997325
P 0.371993313979971 2.7506949606611855 9.55577568871885 0.06740018382152908 1.1263617284119312 -0.47045814245924783
Ni 1.6212689399355358 7.399719439886064 2.0981206705600246 -0.6855985419139548 -1.515521846021635 1.1086080039729358
Ni 8.210293517708926 1.3025377813225592 8.42823204469441 1.6153837499162955 -0.0028171577338209548 0.31929630273903076
Ni 7.821804786180451 6.083003441159529 6.580350407545113 1.4441392805135902 -0.31650562736777105 0.47926957010329074
Ni 0.9099702572381552 3.9043986236388597 5.458817175603656 0.6568150420233592 -0.16682962816446106 -0.8120086286107885
Ni 1.1135568232643187 7.877049662120188 9.742727470708264 0.5415990242701317 -0.502657867120244 0.8893972911035972
Ni 6.004419323988605 2.210213137054304 7.573868087155505 -0.6902612374969468 0.6026159302731363 -0.4522678447034662
Ni 8.616899892709064 1.6533511055291985 11.118212459307259 -0.7015998024382175 0.7736945635219384 -0.18479418306268175
Ni 6.6596369318167845 5.768732010170345 11.312275648636778 0.8851462291367271 0.06894593104209416 1.425309806511913
Ni 4.1249971923299515 1.7902275791827873 5.915807323433597 -1.0982107198990119 0.12645919476721448 1.492867856067545
Ni 8.756368583043983 7.209818663005416 12.391490710978045 0.5927565209805534 -0.7843155335708945 0.40246429091777786
Ni 1.231349379127759 5.690194348495503 9.277864045402485 -0.35532877088255577 -1.6664042068282203 -0.6141298444500068
Ni 8.900315583201127 5.310337048138909 3.4577215959389402 -2.766881868384538 0.25012000085368535 0.1409861847387959
Ni 2.6848675227141534 0.10188061934571438 3.2505217214275826 1.4903108939736462 -0.6504559325745507 -0.5143759268881206
Ni 3.339564828986224 5.425184325550803 5.678296166839191 0.1823907158275117 -0.9048298236085837 0.23920926747845256
Ni 3.1061073789798614 9.357809308608587 9.049491613997168 1.79884018800416 0.04225042402877885 -0.5024287818285733
Ni 6.946685442102396 3.363619484857059 11.890441241554793 -0.3944655889830174 0.027788997187810204 1.2008131626532867
Ni 3.3528046453693605 5.2158465691097895 1.0644431436973734 1.2789777840801715 1.3332938810242327 -1.2536117945115572
Ni 2.73024525128625 4.275633783922785 10.161940938234912 0.7010570425608701 -1.2655609964536334 -1.9070975150513672
Ni 8.210005493633224 5.740143297881987 9.548119822964672 -0.6704722277954775 0.10879160228412232 -0.8594956184481584
Ni 0.9539078654317352 5.44575481921555 0.28719159321354165 -1.831043769319898 1.8294129185846943 -0.27731353054934177
Ni 1.6972143849290489 4.689217774434316 3.0991437001172923 0.9782985822216957 -2.6188539463076124 -0.18773166842445088
Ni 5.571416936115142 3.103059898436936 0.9456740933063069 -0.3725731597853003 -1.4449095830207115 -0.7877353578857207
Ni 3.204630195068828 8.773835849570506 11.52143408686292 -0.4145561890853054 0.47424923407056396 -0.24694674533202632
Ni 6.144798542046714 6.787213015154921 13.618588483104455 -0.03484076182826903 -0.8482948646363327 -0.41542110818876204
P 6.695770016668726 4.320509793137206 8.338604526995066 2.0863000629588844 0.3146143238823291 -0.613332288249376
P 8.180757113300512 5.077232659902764 12.976537291975603 -1.2350635991957246 1.5208111194450322 0.6872499614744486
P 1.4686347620112101 6.4567286160334065 11.429766243775692 0.355069346573582 0.4558061968740279 0.11950667470878128
P 4.326474678834029 7.421358409960678 3.8581419570809072 0.7353987532655335 -0.04732449611757656 -0.7687415903920374
P 4.753437852216939 4.172335342836674 11.716979206517431 -0.9690307837665247 -0.27201294427203476 0.44360862636657145
P 7.48501173069111 1.1254308480626682 6.405623853904421 0.08530328935419501 1.3660479355268023 1.2627641504347864
P 8.5930589321202 7.638890915910412 8.373403409999558 -0.5271985325740857 -0.0019782067722933674 -0.666842087242058
P 1.2689225843582173 5.882724506454345 6.726955591188022 -0.47441635577604746 0.5497039127654533 -0.6867290559739722
