# total energy = -381158.47270236304 ev
CRYSTAL
PRIMVEC
9.34688631755643 0.00000000000000 0.00000000000000

0.00000000000000 9.34688631755643 0.00000000000000

0.00000000000000 0.00000000000000 13.68011292350046

PRIMCOORD
 96 1
Ni 6.902890389739627 2.680172865037229 9.683823622010419 0.014167292639317538 -1.6922057412723568 0.6712666986723148
Ni 4.8300314513821805 8.806589382809646 12.121455073395921 1.598009520303906 -1.3806368890845706 2.4090208179984316
Ni 8.072643842760758 2.3037550665724633 4.289755261446265 1.1945350429540589 -0.11898602631862089 -0.19176470084324396
Ni 4.412543435236291 5.384974775042542 3.882115124533155 -0.0004162616018121863 0.9794535217617454 -0.7850295289187835
Ni 6.423339049651395 6.885542569071406 10.199181013508039 -1.041581915661374 0.08910260849562719 0.3763382832546873
Ni 5.765579978496188 7.014099640984507 2.372788363506343 -2.7116658853340265 1.445804326920839 -1.549131049435648
Ni 3.589204276183703 8.684724681369847 4.4991152293155645 -1.0151262925730067 -0.8005790466176084 0.07368704527150535
Ni 4.89654389312521 3.1440868646201086 8.087149275355054 -0.28413466723623326 -0.009578130606738343 -2.112504232158078
Ni 7.955789072289798 8.764042357119052 9.54751517742482 0.4826238312875043 -0.2882173219460391 0.2852376704924249
Ni -0.15626498117434798 6.578357156215215 9.750664139456818 0.13987598239375268 0.5001039903501387 -0.9138981044584389
Ni 4.378894645147069 3.5460590497804114 2.267505972760235 0.5560990176585197 0.43752899583139493 -0.139292856196773
Ni 1.1759130509846858 8.420338660129918 2.7864750010607633 1.1821775498299707 1.5534785277710665 -0.08416480487437762
Ni 4.675200282541078 3.9933542858136692 13.74550364547748 1.9301533684295662 -2.1839119944771035 -1.331572270347436
Ni 0.2587096572895986 4.719803623181569 0.3572987428737925 0.0918572884226289 -0.1438989875102167 -0.5838664175797751
Ni 8.384773758382838 -0.023242901754130248 5.065267338830092 -0.27002342464583173 0.12275629199433054 -0.9400241121215295
Ni 3.146021670050239 4.723504990091384 12.393867265760742 -0.6398542457993046 1.528682294662993 -2.263965862506901
Ni 1.8893608697375557 5.104371906356836 2.8534117914343624 0.4397931092752232 1.1530199544294077 -2.0568105381401995
Ni 2.1002266209633484 5.1610420769987675 10.131655369307879 -1.2573658622373507 2.691875590080977 -2.018611658472975
Ni 1.001313217966166 5.858459986028577 11.84543124422819 -0.7430727248710234 -1.215349151485933 0.9813507387844584
Ni 5.789779066702021 5.945759902537837 13.012919946738592 -3.056336662282104 -0.3512072925150145 -1.9474399234241557
Ni -0.06932678915854726 6.771379701807584 1.8663507054482091 -0.7880865705775524 -0.887617316385039 -0.2734162523774646
Ni 4.0738590161021335 1.3740109557488456 1.172927655552881 -0.34651451502503544 -0.3236684636647974 0.6884519522023499
Ni 1.9054842483219745 7.455954989286674 7.938214122288475 0.3080353851132308 -0.8216114418078753 -0.503815634873771
Ni 1.2928893309754124 1.5487136045148602 1.606606347863367 1.3283743322354284 -0.4953546485906114 1.542794822804975
P 2.6838368444025 6.882411362215882 3.573080897599284 0.3937986448229799 1.4436014057322493 0.9155994034202619
Ni 9.01465106819467 1.6129827935852745 9.464353127407922 -0.21559677026583512 -0.9346836737452227 0.7821419229583433
P 7.107484380368234 8.872428848750891 12.395495493325615 -0.29561361441011025 0.0062346680558021655 -0.9663815190691358
Ni 7.144217642882301 3.7973313897716783 13.034944949229216 -0.014457570186226714 -0.07235958470933344 0.43086083978259987
P 4.876027478056919 1.8167729520061946 3.3828455934526396 1.7758570968454257 -0.2862087761564426 0.6980701920184041
P 8.351741862778585 8.899273105733181 2.878568935469124 -0.2726480067528724 -0.32566852481396175 -0.5705288199306046
P 0.8377109311751404 3.3192007763761024 2.8374473099142534 -1.2863393666515652 -1.7031049046833637 0.19472609746441305
Ni 8.909573374254938 5.089127135069191 6.25393234656998 0.2120548185508477 0.22015302217794988 1.4374400141165438
Ni 3.658231030297288 9.206748272059585 7.198912816483719 0.07171526625711519 0.11621694821391597 -0.20577875573414883
Ni 2.3271409756844728 9.214674431502825 12.577399917859337 1.1146452113059513 0.06522143100265543 1.8680247174196216
Ni 1.3816380148357361 2.8942445982076332 11.041971042609424 2.7787824764768656 0.2591278607792505 -2.1461059793729236
Ni 5.9303375404136105 1.6512209047672215 13.45766067879091 -1.2481775108698634 0.4081279169614584 -0.2574414742157631
Ni 4.334300651392714 4.398158577473149 5.938755346067597 0.6606022769799332 -0.4047718560050319 -0.04589779097337902
Ni 6.6012850679065656 2.301792220483925 2.209912329768077 -0.3709093989296322 0.1468364728719858 0.1749345166597826
Ni 1.794732994497754 0.8181067721937141 10.470621129714724 -0.5701943194093212 0.17557729245010406 -0.5631728937861655
Ni 2.505030912622827 3.5398807580445846 0.5280756994627311 -1.0273367185962694 1.0314635962804495 2.9950204798711257
Ni 8.54659639805359 2.995387253084154 7.65834591885305 -1.2977344958623844 0.40265095300728715 -1.3468037425852095
Ni 5.856590608801398 -0.24207500403354615 3.092881818301835 0.7443356507438472 1.6565411979912117 -0.5345737419922342
Ni 7.731211439102648 1.585530989004151 12.156435794759508 1.266863774425457 1.2946088057492091 -1.1199098021390004
Ni 3.466105785773965 3.6292837239344213 10.019013240418364 2.8771436274562836 -2.7806691519766176 -0.02583804410902647
Ni 7.134496881300971 6.983254916736054 0.4944474725230079 3.188507048501483 0.4434047378858815 0.28577605949439816
Ni 8.55825196506505 2.2516087888203047 1.0017450441056444 -0.6465789661176478 -0.25758417044121446 -0.7432326474876555
Ni 1.2458184123950449 1.0842761793083706 4.779831195323515 -0.909487376985253 0.28537085363617953 0.9089387035706347
Ni 3.379142357165598 2.054838141887442 6.151851264325415 -0.2739484707318508 0.01534022990149616 0.14158576599600778
Ni 1.264596306642058 3.23730336005339 8.776722342851007 0.8561195028870741 -1.009222268383746 -0.9896991107491536
Ni 6.125921132807215 0.6257899165046054 10.460620896237932 1.2996988186776068 -0.33664456420949124 0.6907304638238813
Ni 7.284000325044613 5.796050827299206 7.979650737906124 1.0301387068214387 0.766805292601273 1.710991763630608
Ni 0.030187638153100275 9.048281164511621 0.677692240528617 1.3551953090830144 -0.4649153582641477 -0.37882608267354756
Ni 1.2573524698867393 3.412295762289617 6.096556020634073 0.17978361722196778 -0.9134234788148655 0.026234765326812886
Ni 2.026507730009544 7.665297198072316 10.832720433307914 0.8641757975326473 -0.3604691774329147 0.49978800177161664
Ni 2.9094800226091424 3.408136397959144 3.908052733560264 -1.008740957871953 -0.6593174967302388 2.7171659892166495
Ni 6.106610466050456 4.964757468144971 1.4578207449749625 1.762506129459816 -0.8944060571720984 1.004635677454328
P 3.530188037121662 1.7150134026447053 8.750347299552738 -1.1357861070496245 -1.4666590588826611 -0.6010922945397583
Ni -0.06791353997479992 5.398013681202116 4.119314792758218 0.39774965905092785 -0.5143453307605013 -0.6620446658534147
P 9.29367431312341 3.6816356331815694 12.004025469427603 -4.765473632092161 2.7500234020663026 1.82042228505031
Ni 3.5569668659010008 8.42677866467755 2.0156550605171564 -0.2106970189713726 0.05573226056529757 0.8394137600966189
P 3.969893601612573 6.397382746852015 10.694373432856075 0.553130421948499 -1.1382217130743109 0.1663848273175586
P 4.06865280052444 7.762645017177663 0.14107442182629132 0.2473648067060514 -0.3546338016980602 -1.0648005198696824
P 6.950624937235644 8.098917939688759 6.151194178230061 1.8210105534536125 1.0946772528244568 3.16264020803705
Ni 7.980100323129261 0.5876508823156992 7.282799250176151 -0.1902120116441434 0.5137277517811604 0.48337356496933526
Ni 5.966762355685193 4.540605122184189 9.265581312153364 0.21997098807413085 2.7056510465985144 2.40319521245559
Ni 0.6680911190898255 7.656286799837313 4.876618201260708 0.509094366774207 -0.7309291475299541 0.9539247813630216
Ni 5.2991049321120745 0.6135137162537206 5.256008309516689 0.9477363931641226 0.851690777691759 1.2214652916859994
Ni 3.800920594047862 6.848435431111903 5.8572906905729765 0.8324614971485018 0.39744112667157355 1.5238560769189433
Ni 2.983161526018403 1.1767636176230523 3.4043368887449024 -1.4494648064915618 -0.5886175591115154 -1.430794740885884
Ni 2.878981133147717 4.546764720147745 7.679098810140578 -1.446798058292676 -0.1406632541817384 -0.44893723766833654
Ni 8.979086166447589 7.790003352897427 7.2671086324198235 -0.5666436259435854 -0.5506727044366259 -0.22292338583423543
Ni 0.9892090004201819 2.2381118852400723 13.143208996652675 -0.4839070688753021 -1.8304305612159315 0.12333221910245855
Ni 4.5044887541550915 5.891136699959667 8.057134554595468 1.2698801926542775 1.3949769598563266 0.2943478603238092
Ni 3.880191535366388 7.921691631666053 9.247646507035808 0.46132121315498614 -0.643370486482679 -0.494162170944407
Ni 2.0646617192162675 5.608599025843831 5.444451815591083 -1.1119195848446721 -0.7790812817551486 -0.39773783197638596
Ni 1.0106787978743328 1.0278022932752926 7.326917487426189 0.5597962640044488 -0.1584653153601658 0.10577646960688236
Ni 3.412688331507325 2.1583455589563436 12.718769701287522 0.7922332457560742 -0.9054556301180405 -2.1317944478462576
Ni 6.707933038717128 4.163495654145367 4.281670204938716 -0.9300813990865207 -1.086063800123833 -0.8383706635440852
Ni 6.7362727974811625 5.752849519579099 5.873529035856868 -0.8073950410981773 -0.3540056811957581 -0.1742341481586483
Ni 5.7843298320847945 7.419371276950781 4.768449492075836 -2.6136911711597506 0.48786759618494685 -2.377408076189157
Ni 8.22590473473103 4.2911647718755574 2.229584721018295 0.33641419336623996 -0.23990217978041914 0.6615271027870477
Ni 5.828363012670995 0.9980511547047386 8.081198112952329 -0.7598939101934202 0.33535181353999666 0.005472593078797027
Ni 8.624110124778568 4.259946172181669 9.785972936523775 0.5545630406299674 -0.1613521499896576 0.3995329762035958
Ni 7.169538357424442 -0.09724780742369298 0.8345470102181398 -1.293194441900186 1.3459853604489722 1.4100935037827909
Ni 7.697403751949115 5.604944393364696 11.6272337955174 1.4799856007882382 0.13907816908280562 0.3745842766780581
Ni 6.029302370820467 8.114957196297956 8.232800867322092 0.4148230695934469 -0.684795329286369 -1.453222216651465
Ni 2.2313353927915482 6.688594331301961 0.288455187728471 -2.1775035198475985 0.3742826862772393 -0.618724920019857
Ni 9.424745697407065 9.417829001666503 11.97288912233171 -0.5015157830960008 -1.4111430280932278 -0.7256007933385051
P 0.8487813831144945 8.628185367133817 9.421507001360977 -2.103907234517686 0.43494863669872835 -1.9342072267839656
Ni 3.921616934720675 0.35708096042682613 10.468514341579695 -1.0000948521611808 2.177628989681869 -1.478639628283305
P 0.8458623505742545 5.224759799787164 7.990595006882645 -0.6222254769739478 0.9128370101837763 0.2452449321495712
Ni 7.302525853365956 6.232083065538711 3.4542969298298756 2.1033940423266935 -0.4011617700562704 0.6061437409207368
P 5.099857360353199 3.0778454825750203 11.427025363863757 0.8870377897324853 -0.38854768083668567 0.8067813187735782
P 9.200261533081274 6.870400613531256 13.136273607139842 -0.9824740537556242 1.2683431871844606 2.258847053223097
P 6.279883041237679 3.5181399008924927 6.3808696031157295 1.18302035744624 0.10526841962221226 -0.02857164099010563
Ni 3.9748287574923253 5.8361115812776525 1.3976968999058172 -0.5237928493266463 0.06018823945412215 0.29559176003323934
