# total energy = -340864.68137510994 ev
CRYSTAL
PRIMVEC
9.31233390700942 0.00000000000000 0.00000000000000
0.00000000000000 9.31233390700942 0.00000000000000
0.00000000000000 0.00000000000000 13.62954197804363
PRIMCOORD
 96 1
Ni 3.915761964833498 6.887644376116409 11.089881672999441 0.10107572169710334 -1.5107084837933917 -0.49470647348365127
Ni 3.4951797102846833 3.8404251824559426 0.8297690059337953 0.6104045730796197 0.006798768089388291 -0.2348229654852988
Ni 9.388322685013126 2.7121893519302667 12.039928785384227 -1.5496419276337958 0.7119906587542383 0.3952497754472096
Ni 5.504902456297954 0.44588107243325265 5.285700356581385 -0.20225274485876135 -0.09251909037634388 0.18109976493023003
Ni 2.1229421032625053 3.7171298797762353 11.886882437915913 1.557264991396692 -0.38060142940641545 -1.500717691129267
Ni 9.146211312326592 4.672845409890713 9.36449055973987 -0.15163929357726785 -1.0564045824965034 -0.7521996268729562
Ni 7.092245667292832 5.2931586049134225 5.601360543509937 -0.45543338691564145 0.753286946399864 -0.8422028928059817
Ni 1.7549745360354694 5.538184738154243 10.328630958459659 0.5761970739599754 0.5777893581477598 -0.7937993046916135
Ni 8.540546418747628 7.552358779838275 4.262530003620175 1.5966797457488888 -1.0827925855717289 1.38716594845234
Ni 0.31604478632437405 0.21444629072272184 8.991313672851277 -0.4372168639076148 -0.00663498881801438 0.7418635350542707
Ni 6.377561279116335 8.469493310028128 3.6375746100788984 0.6470664472770276 1.0566331535675415 -0.3675906189690444
Ni 5.291743130139456 5.8228348527320835 1.7987723054888831 -1.6162980342004485 1.1998631400351918 -3.0803672208687467
Ni 6.783504544555444 6.339967386599872 3.4311825570667263 1.3065158415994402 -0.8823869212240351 0.08736531408954631
Ni 3.7650977124124263 7.610886799274979 0.7575071562560013 0.5497172825018919 1.2630179183168053 0.7857833763656725
Ni 7.712838232336718 8.376723838329092 7.195158133227423 0.21615624231373096 1.0322750364381512 -0.9760709784427577
Ni 8.199556683232307 8.293713692703191 12.937460852421452 0.3727587934335451 -1.371380403483309 0.8028624433351463
Ni 8.658608189697274 0.538292019271778 4.2397687967614335 0.5830997146170797 0.6790419717423596 1.0081578316749733
Ni 8.820037500267722 2.072720685788815 7.8732552921971 -2.4054418423979214 1.0823727244254906 -0.0771526352226026
Ni 5.042247076559795 4.972246261586731 11.442218487541592 0.7848323253063128 0.07896963382668336 0.16939918866385018
Ni 2.2151993965893833 0.18897891959217325 2.748669489295636 0.19900287046289597 0.018997881258741477 -0.32956477454457433
Ni 3.6833633565499047 8.734159155757734 12.43962906208342 -1.6193234512903336 1.55222974296563 1.3796914944521659
Ni 9.397821265733164 6.816730952407498 6.451503073854811 -0.12622779548269872 -0.006629332391059551 0.03308007038342045
Ni 5.6878432584990755 0.01875224705484341 7.68700768017864 -1.2202954397476145 0.2665238961330055 0.8767389789096384
Ni 2.983904634527586 1.0938919425889113 5.1778765656744925 0.6112777197131924 -0.6021472181668339 0.48198954013761514
P 3.3959381664283663 0.3367321363925742 8.89661561677271 1.1881684773060828 1.6585947380861308 0.21959714967447988
P 1.487561551764285 2.0224247696428104 3.7601593816714107 -0.6811003969332851 0.5529681853390219 -0.6539081527892093
P 5.728081853882686 6.920973219642894 9.580041293279647 0.9703980964276966 -1.1421567864626587 -0.10300456328870003
P 1.4083508384264007 4.492744869571564 -0.07065174712240724 -1.0168211637769262 0.9872002555866998 3.2854301814827935
P 2.241087685218506 5.685245117302124 8.186788542031088 0.3062878062945048 -0.28210683817292703 -0.11957403761160698
P 6.172354686227361 7.2837817538121845 5.772779194804292 0.05628710462750306 1.6387049411407388 0.38246393653645094
P 8.140712044438269 4.3110146707955455 7.0216134760719076 1.382295507733916 -1.749902838873509 2.7084908300401547
P 7.2491771205223205 6.602491395500448 0.9817565410218446 -0.5320178083395999 1.1679074130642015 -0.3429933892456544
Ni 3.3217561134716784 6.858999636611667 3.30724935950533 1.883963500137065 1.3365933777111108 2.139368146428458
Ni 7.23534830447403 5.42329847311198 10.4981955240468 -0.4940081618650459 2.16333031367101 0.04368278559993122
Ni 8.707600379077784 1.0089075821466902 0.21757337249310296 1.159060504196533 1.0745257175772462 1.618392454835632
Ni 5.252100524134357 5.631522262229674 7.164245840384123 0.442180121450161 0.3888004202774401 0.7959078663941841
Ni 5.032348065476069 2.0684649491328764 8.905161545720533 -0.8401609226752886 -0.5723087946491628 0.7764955233058434
Ni 6.798860583386172 3.6183167032857235 8.830852845020912 0.4940888945043104 0.42410912288106317 -1.4240975313713666
Ni 0.7331805460452612 0.5685617610663694 11.690985385365979 -0.37997459445569404 -1.7864379576850653 0.04340587778946073
Ni 3.660753009502599 7.233560336338494 8.625115449091698 0.7021777864288745 0.48035688963019857 0.05719290427122408
Ni 2.2256757723835423 3.2825325624983455 9.256625794563204 -0.792388540387016 1.2980018905911581 1.8393998545940773
Ni 2.3849539337909227 3.3483521394877847 5.26535104423881 0.8217412825175203 1.1261293006861508 1.1372462365349187
Ni 2.101635482980695 6.401819909288588 12.427429904492 -0.09961739198402199 0.9576433678651894 2.1167722634058124
Ni 8.544951152748194 8.189629735146463 2.042918423162994 -0.4944568193666904 0.48436163991421743 -0.8958268487790249
Ni 1.7633556366707968 1.7693807167941935 7.632516557547952 1.2825169075816814 -1.241442763249191 -0.7987098546193535
Ni 2.7189407941087254 1.6236240644118083 10.850396378511977 0.9673904199496243 -0.8541626362710192 0.4476537429702226
Ni 4.984128799820817 2.8048843249569897 12.599448270098481 0.24706655873934225 -0.8623395156548568 0.24591444741277005
Ni 1.205006712345276 4.120949933054394 7.271646851325634 -1.7515133778937384 0.4830403499996326 -1.3032076031618138
Ni 2.2391134704021844 4.133307400324483 3.1383515570354015 0.470492338131293 0.19192565190114041 -0.7399629755974483
Ni 7.546641006738174 0.9915493914975229 11.772912506543115 -1.4590097698675195 -0.39274732074033003 -0.831676025132729
Ni 4.369877934257662 2.0078137175352224 3.398444115518329 -0.3629310087098459 0.9753173881061848 0.7077925615124907
Ni 7.342151463570222 4.530003518062614 1.863635505772491 -0.4154013106944201 -0.5220311294405332 -0.9187963130910047
Ni 2.439170342567453 8.765336850121152 7.283723086107737 -2.3932725540252395 0.49697624335443447 -0.6377539116268499
Ni 0.29858322876737114 2.3368371038101032 5.680302130394088 -0.3858346527808968 -0.23619002103615452 -0.7380888985031869
Ni 4.947736198395417 5.027142470748126 3.8050411068069936 -0.39531508146750627 -1.034693930292289 1.0090340636323396
Ni 0.8586344477552672 7.347804050332047 8.658084836524269 0.010474417168762606 -1.3836977873980816 0.015342543894341318
P 0.6729427820789503 7.5295621861101845 10.797650387280244 -1.0509402169478224 -0.4323947599286231 1.0531554794315863
P 7.601472029561294 0.9891095599792387 2.5006391970937525 0.07230404888104967 -0.6585402522445819 -1.385876540216955
P 0.2683777420776507 -0.024210206035249492 6.55901303910458 1.0341054047786706 0.2635244471850494 -0.2534845464505441
P 8.25323297663456 4.4828458584878375 4.0420176585042835 -0.526971247054628 -0.7937751363218976 -0.8839375535406068
P 3.9387354929083345 3.4755399977958996 10.7063736827277 -0.3065516014788527 -3.1769694801755284 -0.657136687028836
P 4.048527911231125 4.911492594314646 5.599929237768105 -2.14518372466897 0.027167304443411276 1.4354371247539022
P 2.2604014660159164 1.0120179017158004 13.282384117834953 -0.38981343492298676 -0.2771034714210647 0.3575574031027584
P 4.3377410694882 9.115899665028824 3.4037465585202797 -0.47080138473127947 -0.17611516723144507 -0.5788892760801579
Ni 2.504934045552656 8.543591551978462 10.446253187242656 -1.1717681815711884 0.2770965294425292 -0.3092111505888868
Ni 0.2649675653524763 5.478371616620122 2.785932793953706 0.25933946256942436 0.434516177147 0.09842697122034662
Ni 7.838871361223966 7.982886607141012 10.654499325962043 -0.2858418797353271 0.027362708283669004 -1.2360115649312908
Ni 9.279638434441006 6.2800611417253585 0.4792816209318408 0.7857882614616789 0.2363463441083607 1.3014507683717071
Ni 2.509320154885144 5.963525595397115 1.494792579145765 -2.219521773260913 -2.10281914365983 -1.9197650832167066
Ni 6.493537087241189 1.7985841963412903 0.7763199334820998 -1.4325852571274038 -0.8164628077274003 1.1405524180900164
Ni 7.041484134444865 3.3000583751602193 11.159337716431207 0.07723131097933796 -0.7031928579569502 0.152425279813673
Ni 1.2037774842520945 8.397983896940707 0.5861043359295137 0.8785845167588094 0.465565590253637 -0.3538321317323713
Ni 7.183692787558296 2.147275232107073 6.151339542000978 -0.8595969199127131 0.360373789505631 -0.07611982308271406
Ni 4.097818095300891 1.1921929407072642 1.2648170401791852 -0.7740825429889765 -0.4642211604106006 -1.8336243855628807
Ni 9.300013821318892 5.325761086384846 12.115913706210913 -1.1862838586888602 -0.7912217737724244 -2.3734238947304287
Ni 3.869721785343432 7.524123783031261 6.214948370889498 2.2032780577085407 -0.9330551370028641 -1.4143252824759514
Ni 5.9755105693056345 7.307947260644045 12.579712640569092 -0.04929858912481187 1.233662347972824 -0.23922263721489123
Ni 7.590986341433096 6.355202365088089 8.10959115531249 -0.6530977410727721 -1.2657366027995491 0.9527068497955204
Ni 5.887211017945438 8.677549477133116 1.2265470722114717 0.9679372935920297 -0.31510746146866375 -0.02509473818509872
Ni 1.5796791600805742 2.3915284416226354 1.3915765311214947 2.218906251164101 -1.1362373356544302 -1.5822645987648234
Ni 6.74355463152705 2.641424925565985 3.7259896343811807 0.5805288685661099 0.3432931798742604 -0.1534292955981551
Ni 1.9774555085672585 8.377915817086116 4.927038604759774 -1.7689027770147794 -0.6631134734375612 -0.484670686514204
Ni 3.5870738225840304 3.427898096851082 7.442356833999601 0.7372108667736078 1.484653952798185 -1.1410776944658672
Ni 4.3157825858236425 5.058860280485821 9.417332468012207 -0.7457983513323027 0.22207903555606912 -3.4985507222939938
Ni 6.363834898742477 5.076730649507148 13.062621415609222 2.7945232842508902 -0.05854864696817014 2.681655712125182
Ni 9.103896066452227 3.1036519379383383 2.299303741464895 -1.3529296529772894 -0.7956831519778876 1.7319179722603142
Ni 5.072977778889329 8.746190691336448 10.569750567571013 1.725645766098357 2.0783594679555693 -1.5216361864494892
Ni 2.059385423444605 6.12274788280026 5.497012115666495 0.8857830913897777 -1.847617614518179 -0.1607242865976716
P 5.565665435904078 0.2619987932607625 12.753394189034985 1.3862213251508837 0.9351410729976153 0.594439307999615
P 1.3406129206248758 7.351808353968926 2.781434936612747 -1.4899532535239115 1.3670025861305874 -0.014016111773433924
P 4.3224315923276695 5.961421007904244 13.172243418219095 -1.4664271453775133 -0.037832754577057426 0.9778679224421803
P 7.0263050299608825 0.9590865950366875 9.412534753515185 -0.16102433433659366 0.27365459364051586 -0.18157516190475181
P 5.25032186833286 3.67880962520471 2.202138848099331 0.011659695726115403 -1.7117268420244196 -0.586541393308777
P 4.595106045331031 1.8928250168185288 6.4827692353916015 1.0832188744758702 -0.2775037921832769 0.6895698678568769
P 7.37481913137992 3.235337653587412 13.28261599495253 1.7283960751499847 -0.054340265313777385 -0.8317387600498644
P 0.1979755655074954 2.385382301156729 9.823996508105953 1.257666681307221 0.3456650225405466 1.5657817706184516
