# total energy = -340889.9396204012 ev
CRYSTAL
PRIMVEC
9.13167193610598 0.00000000000000 0.00000000000000
0.00000000000000 9.13167193610598 0.00000000000000
0.00000000000000 0.00000000000000 13.36512492203800
PRIMCOORD
 96 1
Ni 6.546102910290864 1.836863194073209 11.516795176829858 -0.5301982386323578 1.0151237214698452 -0.038626197012630245
Ni 4.666293463356768 0.4184442533161041 5.836082547449194 -0.26252403094499305 -0.09213753866720906 0.8535908229279492
Ni 2.920600881353112 1.9029947618424103 4.4192589097698685 -0.42382784419521846 0.2744490645173532 1.6843780176978216
Ni 3.6148088411639696 4.740616140804093 4.863969504087261 -0.21474444956786887 0.4095037142630625 0.3370232877051486
Ni 5.001973721737857 4.9002103702852216 2.689891930756793 -0.07229479290966905 0.04691260539113856 -0.5128335221016652
Ni 7.216888131724478 6.306058651529612 2.554810761275615 1.2072026111193983 -0.879867240125975 1.2136049151013164
Ni 5.434422307052144 4.307802288614527 11.87178618173974 -0.5809204475775737 -0.15461457415550792 -0.38262385915308295
Ni 5.72235305316243 8.139150465115568 12.482959849127877 -0.019147519462728312 -0.7972466398102657 0.6099741704104205
Ni 1.879097176527304 6.640533529222281 0.15626664824734005 0.4272813499614577 0.3168666102516156 1.0630166884963823
Ni 2.7218135161545836 1.7034038095182684 0.3674192103412398 -0.11170491927617537 -1.0636532936391168 0.7944551931080575
Ni 0.4296268987027603 9.013480652798215 4.632860586262511 0.9985311072184868 0.1717075250820527 1.0462222426468628
Ni 8.786531211515701 2.5348151393556733 1.3094507001895985 -0.36536404363137076 0.04162564596058638 1.0412106483648842
Ni 7.088725116861079 0.5504069568495903 5.085309359332682 1.1664380276075266 1.7215080897808994 0.5718688788982668
Ni 0.8146583646027489 7.621503381142532 2.5852557553300914 0.2724047803938147 -0.20392473324454555 -0.5026300992061021
Ni 8.256583765517657 3.7964925849275755 3.712109544567888 -1.3351664154565972 0.39721332693148365 -0.4816990054803897
Ni 7.8775828557285195 4.077830263939082 12.904349066625914 -1.545981705173389 -1.4162065586590642 0.16066283723211683
Ni 8.215673875486447 8.402882280738643 7.088781733226747 -0.36530310848644826 1.1164766080877353 0.622369972971612
Ni 7.077840163977775 0.66591073498302 0.3712125068410087 0.007176206033465061 -0.5278757611467683 0.5118958407787442
Ni 1.7619469579535558 6.686958949070198 9.346031487225353 -0.03107409569698519 -1.3277032743103327 -0.09143794149702318
Ni 0.1250061958938041 5.07879847728084 1.536895991255303 -0.7817400595342343 -0.44296945012067585 -0.06519186331630063
Ni 6.273906034833208 1.9168840347748815 7.047670946414134 0.45302117792972296 1.2823497858761979 -0.6272157310996875
Ni 3.4093005654603137 4.024318666710758 0.435472081874407 0.7586592664553707 1.473542673376372 0.1686779942271095
Ni 5.973547083291565 5.9167754792013785 4.671899396725107 -0.24845161201232693 -1.0467146089022488 1.0961288976693186
Ni 4.949494003432195 2.6967836035261126 9.665056489260925 0.4457626965950968 -0.46385734931327854 -0.2023890133263095
P 0.286217644465229 5.418414486243057 12.706611843693812 0.930989512723087 1.550058446345924 -1.1789652135402597
P 4.068369851869364 5.900457181548305 12.796399007473248 -0.5291613127274113 1.0188237960292517 -0.4248747974024941
P 2.505940792864895 8.85130216017449 1.275025210361773 -1.1161505922068842 -0.8400256826490049 -0.32038465070720307
P 6.385403748512018 7.841421435075931 6.152915948233092 -0.9351099626493637 -0.8248299487451731 -0.5560951610037779
P 4.61824260591386 1.0762497163366906 12.53552449198204 0.8372730596045322 1.1196848306123879 -0.11564333509863307
P 4.074962918968144 6.211098395629041 8.158861178872792 -0.7316115183089593 -0.4130312678003467 0.2974154435055394
P 4.897379552001811 1.185217956904197 3.748530304701923 0.42217899573788586 -0.2027116867730509 -0.69617040389253
P 0.2684519768188632 5.756286345875817 3.7151567834749 0.03798342122230878 0.7751837464729553 0.1396165580847789
Ni 1.2238175339492694 1.1452668924205935 2.679145779286095 0.36342234652396765 1.149835128943523 -0.022548831834793424
Ni 2.0528363657535986 6.877856549762709 4.849842807685858 -0.8238760694723359 -0.05122537383387952 -1.385716360490007
Ni 5.749967228933497 5.007671884992203 9.142266447683964 -0.1292598974408032 1.3418350857260244 0.6214104372718201
Ni 8.8205101625885 1.931175101270159 10.260820460348242 0.0691269367046487 1.4572639908210065 -1.086466177768574
Ni 2.137021248833448 5.429801681079869 7.149713727026357 1.6659388371560278 -1.226642722121881 -0.10107315059394205
Ni 0.7312158864469035 8.825295158654649 8.932059926797036 -0.7597566132846076 0.8818829850044231 0.8242733049107546
Ni 1.3389405213652212 0.8855877127787356 11.651648967681174 0.2660189314721289 0.22288147685270648 0.16610894794835263
Ni 4.113014595700299 7.351452448577137 1.3212095540720066 0.10835040098164565 -1.806528557787353 0.1192755325345817
Ni 5.90489517408294 7.710948107226394 8.377968340343074 -1.3620912648718992 0.036807398636336607 -0.8814980908611786
Ni 5.258838520105693 3.1353504090013185 4.623076913008172 0.7228592260376261 -0.183605047850587 0.2466055599425237
Ni 1.2126677625813882 7.50270946163003 6.955371659699969 0.1375254798837051 1.137048775812132 -0.15031491833888952
Ni 4.816244647330539 4.2182297191243165 7.1249349353746405 0.17409248037446148 1.0962209431624927 -0.6511347038091302
Ni 8.163513765696655 6.961612244264105 9.34194141138942 0.18839269904721748 0.7658100185675392 0.5588665531013279
Ni 4.993371686825045 0.05569863264405471 10.439539150251774 -2.382340480493768 0.5719267287193956 0.047657968197595345
Ni 8.041633341088048 7.176909672225229 4.833791154851737 0.7814101869986414 -0.20204577105427782 -0.20264560942180584
Ni 7.0110054574736616 5.815678739796128 7.108495186485536 0.4063392004921519 1.6188506254189732 -0.20741654844788796
Ni 2.2547193677201145 5.545728255621435 2.4315971125722413 1.544088087695102 0.4722543151277221 0.1457740930457425
Ni 2.3784261267051146 5.069210221804775 11.622580116579309 -1.139917869829811 0.4554526701893511 0.02182249519173016
Ni 1.5755421398269733 3.9579131487850976 4.039207857714304 -0.6750112533164117 -1.0610058287139406 0.29335978537892704
Ni 4.012292254842208 2.7961544569456724 2.3772682307104813 0.09405635295647671 -0.7829875587880903 0.2167877052501428
Ni 0.9677106643476368 3.3830835354871875 8.265848759809101 0.6753647800010885 -0.16377644316043405 -0.12232486088386675
Ni 3.5765471359785304 2.3619891173175747 7.414837209444243 -1.0077917065848063 -0.15153490678891968 -0.5926462206549342
Ni 4.10006588497167 6.989381658457165 5.981133676291103 0.8506412533813221 0.6469065246603957 1.1717792373147817
Ni 0.6887316961832425 7.375313507204716 11.480107771876868 -0.05974883792385839 -0.42083173768137205 -0.2340282374981453
P 0.09883117161133531 5.76758222399381 8.01852655855792 0.24712338011920668 -1.1679500933766787 -0.8100952136381596
P 8.308880850385679 1.5198115463313318 7.865977413933728 0.813619167631018 -0.5403880346811661 0.6811736733733817
P 1.594453832294526 3.189601671652081 10.403292805050683 1.0580626869252165 -0.42877953177353895 0.4219475964533701
P 3.962972095007707 6.613567702154834 3.637920189530039 0.15927495574565476 0.07582183222632104 0.080708470894661
P 7.032903206646617 3.9250208666662543 10.424276473868254 0.3334191152936581 -0.8639726803829055 0.4283702121502623
P 6.431546086531595 7.594546685746968 10.43400627025849 0.08037628436622286 0.0013565140278944381 0.9337822449768757
P 2.5572425254977826 9.091172917169986 5.655238917498729 -1.2319782754021815 -1.1109705906678415 0.1905899638088524
P 6.9356417694317924 4.146829176679221 1.7489471098623883 0.5506323381169936 -0.7162373498457342 0.12284988014940135
Ni 5.807021914852023 2.7572991930879054 0.3724434562106978 -0.9346715895603644 0.15437211912739865 0.511847504039312
Ni 1.2223838614638007 1.1647812752323559 7.023840935470954 0.5044985198734085 -0.44695903089604316 -0.29449775563811215
Ni 6.881527481859258 0.7750460851459664 9.355199685794847 0.5953358516719554 -0.2432883226438326 -1.492756013080029
Ni 2.637327287902629 1.3557062709405117 9.477344015720844 -0.08912369154154974 0.7538037381352823 0.3755960057720241
Ni 6.659509143393008 1.8098882353338797 2.6139246392035256 -0.3771720920098923 1.1785661783296282 0.17324041678681132
Ni 3.985609509603102 6.7743216539649715 10.538695409382107 0.6159527565913585 0.03379766527573534 0.3094950003778928
Ni 8.256401132080018 7.374856923610618 0.013418991830549783 0.6823394115467089 -0.08330065710186944 0.8819534332310424
Ni 7.731832240820452 3.7625684238860697 8.074887237413417 -0.21300818360305254 -0.16214713508712722 0.9700581965897745
Ni 3.237351183922884 8.497112002888654 12.49583002747832 -0.12144914314713279 -0.37627092035186166 -0.06605292576501527
Ni -0.0075445873088807285 4.7491268589980855 10.323609836208643 -0.08258357643018681 0.15331256751463276 0.0882428315984932
Ni 8.648432937644722 2.639272334013488 5.984716031170398 -0.6213847262402072 -0.7516321844052604 -0.7969715317720081
Ni 3.392763107682072 2.8577384521176548 11.77653279917176 0.3838088806001196 -0.8293244941814168 -1.705934917932991
Ni 1.0704693680354058 3.195829471875583 12.87260646199701 0.09330584794369738 0.6910968460243646 -0.8240863857109292
Ni 3.275539835733268 8.43040513979089 8.374480041684162 0.8172791329811085 -0.54766991305456 -0.9612789077352476
Ni 5.808775195853362 8.247789965495324 4.037336778145689 -1.9737672484647748 -1.3707124308820071 -1.9449834914638635
Ni 3.1743883062967253 8.915917870411285 3.3106885539741455 0.6656038439595827 -1.3189764359602962 0.9789737539118495
Ni 3.2753754656393927 4.4938966298971215 9.460664103861244 -0.05453515493340285 -0.37820361859820023 -0.6729870237975313
Ni 7.21921670805438 6.020082083202066 11.692787149509433 0.23095088412440226 -0.09684085768014934 -1.1170615340569279
Ni 0.46157953178494926 0.25213367916578905 0.6509165297528311 -0.2138859582223155 -0.5716027697210736 -1.021163499906022
Ni 4.739839948694126 0.461313800133184 1.4030576423172607 0.7512529466889707 0.850800918887638 0.047609117237530904
Ni 5.979957516952705 5.753802531123923 0.5394663007678062 -0.3224263637275802 -0.5856355936650559 -1.0107248210712012
Ni 7.991473067440405 -0.17110926772428844 11.391363445026352 0.28158850377561184 -0.7785364649952721 -0.11753026770870081
Ni 0.09282892368331873 4.912547258997758 5.869602175426328 -0.11412047069620347 1.131516276029677 0.1434935245416819
Ni 7.86249733377951 8.84015238880661 2.6711939194112784 0.16272820440157781 -0.2966171159739601 -0.20191413057241997
P 8.523548192986949 1.6373818218116505 3.7856048925427066 0.36536944294800944 -0.07514357521237382 0.03745634507424517
P 1.9000269684807713 3.3704087749150182 1.838372659435298 -0.764566118858109 -0.524628200743748 -0.06342577255481335
P 4.908803273526152 0.8525465844082161 8.239425354051441 -0.6667011907888195 -0.46430523548397457 1.2709500286796884
P 8.497322031341941 1.701897083657744 12.487797808890942 0.8678918129316536 0.29019141495327444 0.8403524698608044
P 6.484701548556522 7.719687117217436 1.2209574943158377 -0.7661954269314158 2.25848889855273 0.20111785992336972
P 1.9234405751861332 3.3011724387059482 6.195043090126168 -0.10859439867165169 0.1409296204692476 -0.7543320998349267
P 6.728535451148792 4.051202308731267 5.991999452663454 0.6109180223809285 -0.7647712928903796 -0.645651569207372
P 2.3500996805272547 8.49328583237011 10.446902930457393 0.31257415352384876 -0.05764284732444911 0.0003977496590509279
