# total energy = -340871.9906306445 ev
CRYSTAL
PRIMVEC
9.18174195137465 0.00000000000000 0.00000000000000
0.00000000000000 9.18174195137465 0.00000000000000
0.00000000000000 0.00000000000000 13.43840745053648
PRIMCOORD
 96 1
Ni 0.8055720794296124 8.459625629285844 11.36039963840269 0.35246096241645747 -0.5029885109867853 0.9201163174540088
Ni 0.9392371264023303 3.0876086882436544 5.753587188373068 1.2970503253111663 1.4837867197018832 1.497706415106769
Ni 5.169559527731816 3.971544181976217 12.13121331493762 0.6859207011400639 -1.080255678082488 -1.162372085068269
Ni 3.598820543158924 5.734273393865205 12.652059571838675 -1.5573760630532598 -0.9444045005774122 2.012027063276922
Ni 1.1069416458632817 5.877086210492396 9.215415221222147 1.1705451077973645 0.5161685000121692 0.25660946523277095
Ni 6.246192242922193 6.543552142580686 3.5948145490805876 0.30772453874103134 -0.0029593397386400645 -0.0629118090328723
Ni 2.495202687935931 2.8404545543892943 10.033235744613483 -0.4553778510873577 0.8306812653196275 -0.38166560900487173
Ni 1.9661598898619879 8.986620898871433 3.9575842612870065 -0.4860379991753759 1.9540054924568155 -1.3444283003744977
Ni 2.864712717018138 0.5179567626621082 11.008380828021446 -0.04583068518086946 -0.2813859008465025 -0.3239230028777647
Ni 8.393966991527002 2.4797314524970195 4.685179477756089 -1.7700122080288745 -1.08309134775907 -0.555739834546888
Ni 8.325765011206391 1.987599257666057 7.1987135137951554 0.08318855700403738 -1.2712693596923201 -0.3148148699289094
Ni 6.07463139177914 6.0866594739304585 11.54953158940298 0.6024750338198979 -0.017518211389421442 0.19340300777761532
Ni 5.211832268361338 0.789246941975379 11.876878140586658 -0.887577207175723 1.0575407529834755 1.1850404732000623
Ni 2.242163057395314 9.20093194123322 7.612831200522979 -0.8131447990977609 -0.3639918458741925 1.5124177531750147
Ni 6.601654206591029 5.487275349626549 9.089228703190077 -1.0351731839215528 -0.8706441788658102 -1.9816726193547807
Ni 0.7171473121332154 7.2691025850840445 4.668690905292471 -0.3028114177101301 -1.888853995460147 0.9707063716967346
Ni 0.7724269086219426 2.006890097818669 11.536187763608694 -0.19544214969483115 -1.072304027335579 0.28464425988280007
Ni 4.559855125307233 7.917728392271561 11.089104868218369 0.8994014535041607 0.6007500807089912 2.482563367272273
Ni 8.842384912218705 2.6265107817115156 0.7621525392117698 1.1921146064380244 0.5595774631254233 -3.063595914947679
Ni 1.6903219936864664 3.736592583373081 12.8715215715187 0.6948439717716227 -0.8919768789053155 -0.03929596938614523
Ni 4.215218435574585 8.950297927122868 0.5166061283991623 0.4418109110362004 -1.653255071040772 -0.36412091525288903
Ni 4.350942947300387 6.610330952875759 5.862263206045762 0.4670061793549054 1.0365726353722404 -0.6049903440425838
Ni 2.9296919058615627 6.800099198603596 7.688852352416156 -2.1053547655974905 -0.038995407426590904 -0.41488477606931773
Ni 0.24959280455618496 7.972442393446913 6.8925455689399 -0.654291504270557 1.5278438579220976 0.8430906947275739
P 5.796644967952161 7.447962921196792 7.394309411234017 -0.10533552541472181 -0.298864260136924 -0.2915587276144463
P 6.838745151103522 3.8785790432112495 10.7112174176439 -0.9134237359251817 0.1776953672343714 -1.355680219139233
P 6.104573052768035 3.4116874574138567 0.6366105794751377 2.412439099651361 -1.4942338831771362 -0.43799976482022623
P 4.620518895363543 5.0023967310547786 4.200523975517355 -1.7264770037504007 1.063538365327807 0.790912984282754
P 1.7365520651611934 2.2069235312145783 1.8325012701087404 0.412805782053102 0.422181309730731 0.9408905738868828
P 4.783770269905877 1.9632217323899102 7.746678045989281 -0.5139336971443794 0.10668484035376466 0.6081949670228106
P 2.8973813554108054 7.4945235353871285 10.026960023887966 -4.52999657796263 0.15523163891421654 -0.622519868285915
P 0.09589319632073531 0.7136600864835427 13.231913212521157 -0.5396406149921803 -0.5745441117375847 -0.7067445798639506
Ni 0.5253471468785944 5.770559638645368 6.89069177520986 -0.7259031550702725 -0.44462549766686 0.8156053448231115
Ni 0.911309021456019 7.234615961755529 2.325839027677465 2.18297714136766 -1.6984339815702554 0.520143168389201
Ni 2.2160869098306217 4.673965816129061 4.827277954847881 1.7308918449886448 1.94857995056587 -1.5610439988231501
Ni 6.601268573422819 3.1494936299992973 8.429926366288397 -0.6190869313449661 0.5550381804941731 -0.7885658242068161
Ni 4.594507019993552 6.7363870901700045 9.176282636390907 2.6358476526521315 -1.2781786852176438 -1.9174994271109813
Ni 8.27150091539395 2.2197596066707193 9.861251615159608 -0.8280988493044319 1.7503571528021078 0.3575553462202294
Ni 3.9940578136060148 3.311285107547692 5.819139317923548 0.5997936303329928 0.959124066175774 -0.10586183023183705
Ni 6.155136906514077 1.900225799840138 6.018001161027467 0.033087012361955916 -0.6768588480481118 -0.1432461844175662
Ni 8.650174323092202 5.191485527867198 0.9241965146679211 1.446425762554922 0.7368072035772859 -0.753069173962103
Ni 2.4583839021139533 1.266437687886615 0.024622677790223563 -1.0187587471192712 -0.04856659605479378 -0.5025586225382184
Ni 4.372033408904647 8.821413813261747 3.5327560723992506 0.8371995260541195 0.7120924744394252 -1.211586599119707
Ni 3.9401609874775843 4.57558344952495 8.259459978803692 0.13451960317784573 -1.1149797118272344 -0.3004367468303665
Ni 5.376460904218708 4.647448944943558 2.2211671677346865 1.3672116168176 -1.7986434986123214 0.2060672335088451
Ni 8.936084590351692 5.118711039980666 4.879190606508449 -0.8301241072645769 -2.1456884322195307 -0.22336741535018953
Ni 3.758940943645074 0.9674985285868803 6.030042097617726 0.5430025894858778 -1.4440850302368873 -1.205076565915331
Ni 4.0732870661890175 3.3212748429527568 0.584105705449104 -2.6194483853585018 -0.07993199773995266 0.5628967573066436
Ni 8.451628331916533 4.164360766081335 12.130824009072569 -0.3161407878291846 -0.23073773967233163 0.8975906255476671
Ni 1.8353384284177157 7.499004225532047 13.3055957747014 1.0990774387746811 0.4166902047091727 1.3550600690567307
Ni 6.839378691308439 1.2551441451033154 3.370782796357271 -1.5559462725852686 -0.030620553099334365 -0.22340032547065397
Ni 7.667461647845218 3.6662604388852142 2.2782133314035007 -1.7306511897327486 -0.28370272190513723 2.5221868952011657
Ni 7.4143577451099 8.6011070933085 12.158520734117955 0.1670790251711058 0.057009070395192145 0.22283956787117754
Ni 3.8874486060800852 1.4394400725394072 2.0006290678805128 -0.26795420082162885 0.7687004527414568 1.0256369622963433
Ni 9.000384330279697 1.2111727821852483 2.4230654129511553 0.9119970307809843 -0.9060513547205106 1.0318636599323456
Ni 6.632504860047847 0.7734378184271795 0.7416414455340354 0.09329736330326513 0.8517902793841007 0.3516793470554266
P 8.204336471930668 6.674226696151355 12.775988299488294 1.0510191498148738 -1.3599587919099287 -2.4599528289616086
P 8.429849239654754 7.009966277788867 8.654267543720492 0.3687640704518553 0.44772650518968693 -0.3724823998437069
P 8.716172685308754 5.821132674133511 2.988298965687419 -1.8846695250651544 -0.42636243769161414 -0.020904868473467224
P 6.401859498489725 8.487914576696696 2.226126226643028 -0.9316880814520084 0.6277196673192996 2.166222033396508
P 7.709679298022138 4.156225742580519 6.500695443153589 1.3267193131305088 -1.016824506211036 0.23969597730688397
P 0.9861833737608764 1.474101148967827 8.957249424066962 0.23615993912916747 -0.299062235080343 -0.3006570903712887
P 2.3825335306238395 8.064094543091546 5.7799801060402185 1.1900759787414408 -0.8538543610019811 1.36614306634377
P 8.1075884554204 0.20129316841206293 5.742366181352359 -0.38298329937503073 0.34402285895143336 -0.5419283825850925
Ni 3.0096832430388867 4.836115381619366 2.4172065433169903 -0.6356530632337634 -1.0347911179917855 0.3504706714593061
Ni 6.808270949072813 6.904302789699261 0.9688537537208765 -1.3953202021283582 -1.4655174890790503 -0.33240327243463397
Ni 6.011323279997959 8.669612071118419 4.982733112172897 1.5779621147347276 -0.10777498809414987 1.8911265935444077
Ni 1.1899262309652843 5.7889506680721565 11.79179920011159 -0.595301141779278 0.9324817809978972 0.23063103889113828
Ni 2.5266685181134654 2.115289745054146 4.017828425729336 0.27445112139988215 0.38359933569247484 0.011617786744586444
Ni 4.495610475831827 6.55087917277668 1.8327298954870364 -0.7544935651134554 3.221240534178762 -1.52997555955312
Ni 5.800308483050158 4.977284666410613 6.584376004306789 -0.06879757838968796 0.3867412237555662 0.9252058161617743
Ni 8.69230933759022 0.030633046169043096 9.68127110651063 0.13997831229957183 -1.9767047338265442 -1.599153146990046
Ni 1.1767504310514345 0.934517710962805 5.83842373085669 -1.5173419299495092 -0.8315590399388906 -0.6621058581086533
Ni 4.103531724667221 9.108288163441761 8.817543708966495 1.049308080661038 0.6931403588169547 0.5204879533231294
Ni 3.3428335734041292 5.332856810984651 10.522192893026181 -0.5487191802546808 -0.8555312344837717 -0.7786701623596589
Ni 8.820991453125137 8.050129113357075 0.8568897542020846 -1.0557690057950335 2.3845220615261193 -1.4292731620350352
Ni 7.557051199089788 6.780835903677284 5.6144323777986145 -0.8720996803654143 0.9188346225281079 1.1813154589399912
Ni 2.496736038866671 2.401952915165855 7.616055828348584 0.6889234925221297 0.34147181039480545 0.0449451972521226
Ni 4.877332221907359 2.400695016498122 10.027067450270538 0.17106217818856992 -0.09309424615352355 -0.36333081525142585
Ni 6.45252435139887 0.3913038121313464 8.389866425505033 -0.10652363218555204 1.2209209891467554 -2.21880006460354
Ni 0.8765699002197469 3.605385488760598 3.2913212456991316 -1.134139058364505 0.10234533243814631 -1.6926924511007881
Ni 6.334428784505535 3.8190079004648685 4.51190531353713 0.4846958833251846 -0.37548570544640497 -0.48388161495400533
Ni 8.235049399255983 5.880428364616885 10.502693627327895 1.2842665432829365 0.9149733398004888 1.5566435557626095
Ni 6.598458960340143 7.757268267327702 9.842760504743927 1.2147272016312178 -0.07145867016161887 -0.20527739061769806
Ni 8.292719921387613 8.325195743196176 3.4105599394839468 -1.432885819086958 0.2386557089678277 0.6179888131847808
Ni 7.247800943411479 2.0607501969786988 12.294248000366387 0.204035547790797 0.6585451373405884 -0.348127110927794
Ni 3.171942989434393 6.858467533134845 3.8461794298621195 -0.9239786286228925 -1.2305058046217132 0.2523553179421073
Ni 0.39897791217873013 3.605302853081696 8.249435352778645 0.576422302596904 0.8362119653298695 0.384077560880474
P 4.755361959847722 1.8584305097998286 4.0632505038992415 0.34311757352834454 -0.19645670700227455 0.8364287093263659
P 6.723165381545654 0.6833713556432588 10.434009605547022 0.11909915485771747 0.5102025122367213 0.9261733222813662
P 1.7848021198979742 5.347437417439838 0.7491787376241255 0.1676158715111823 1.7826993165782394 -0.1378977756214593
P 0.6568067393988337 4.096076150081823 10.499293628228173 0.6666461691811679 0.004479375927592286 -0.7414053644709296
P 3.420979380419303 2.4594948929080824 11.926747854629923 1.1869369188918268 0.3281002741839059 0.0006815994480568906
P 2.697733555183106 8.265321602960487 2.1276492880952844 2.4838784865392705 0.37987355010145546 -2.179656047414227
P 5.00168973691306 7.1097167239659145 13.080744092408533 0.705817697174307 1.1415865157814855 1.2960249693704453
P 2.2281792641766427 4.5586064083816 6.880424751193368 1.0758338948657085 -0.34095861820381274 2.197523414612951
