# total energy = -340866.7750962649 ev
CRYSTAL
PRIMVEC
9.32234872720474 0.00000000000000 0.00000000000000

0.00000000000000 9.32234872720474 0.00000000000000

0.00000000000000 0.00000000000000 13.64419967971214

PRIMCOORD
 96 1
Ni 7.170340450481179 8.413876513010806 10.299351372726207 -0.10439038789263314 0.05031006110846175 0.6514188107084523
Ni 1.8954665530712702 8.93021344145029 11.21089342706913 1.03985413433699 -1.3834597032453464 0.8562385449634415
Ni 1.5800075948055443 5.926804387951555 3.346021216875149 -0.6514938869207618 0.39912391369063516 0.7687680727545987
Ni 0.7450523641198292 7.855272055484265 1.9148682252230071 -0.904144624616101 0.622146029886264 2.369915624466854
Ni 5.621749170855029 8.477753246425998 12.928929581461952 -1.5521289557217075 -1.2061973097833356 0.45799651965712734
Ni 8.466855420774749 7.756995855299943 5.984332601889845 -1.731298336398444 0.1409285920279831 -2.775669384769181
Ni 1.4877349871955632 2.4863636265566873 3.364359209038171 -0.89435746332235 -1.0321822196140287 -0.8510397743713214
Ni 7.722130271094919 0.7300377892747459 5.265310099860194 0.6347629473193263 0.024587459531377007 1.5364994767145668
Ni 4.146254427526096 4.070678146469911 6.23071948179988 1.234796718687583 -0.9135461204356589 1.4792746907641428
Ni 3.4363575726564184 0.09494998616176811 6.885272349035876 -0.35426536261504793 0.6949013073721194 0.6254766369213938
Ni 1.7752828333998336 1.0401969922943337 8.399983416716486 0.26632463563800585 0.42000152847059274 0.8171824595022443
Ni 5.4462093444965785 8.138531621278293 1.8745770340641528 -0.727831739551553 0.3504423893245319 -3.4099505073560827
Ni 5.121465326907803 7.884413717576486 6.889542916983555 1.134881078736852 -0.6762816353884031 0.9107780707722184
Ni 5.548727213347555 4.372265449843371 13.118134106571134 1.2373289981911335 -1.111297377879641 -0.6186081919363347
Ni -0.11547220462939921 6.627127190687928 7.646072956844889 -0.011644269107147687 0.2855911971771017 3.4973374187121835
Ni 3.3559150255694785 2.574226763223092 0.6416311596780865 -0.6673298255117539 0.3995700000891183 -2.049581367381612
Ni 4.092949237557025 5.235934446815154 10.834490546294866 -1.4552158500427261 0.5934540612682101 0.04752195684036332
Ni 2.4105356420851183 0.4787193868929313 1.5766832452527337 -0.09880312361284274 0.23791343148516447 0.337319993009961
Ni 5.838810738403099 6.464088633960209 9.539696481574627 -2.729378729232758 0.48301309630612294 -1.1214442365056558
Ni 5.906034195008027 5.044639851123416 4.6062545381934425 -0.45835338877591386 -1.4004091866154915 -0.2728457245859753
Ni 2.0937156209065764 1.8449301006714207 11.036219646906574 0.4879529568099016 0.7429138306956561 -0.3224474467735028
Ni 5.9370403268438325 0.4441027093986755 8.52469127222073 0.7235217993222894 -0.30774330779410874 0.7647820915236571
Ni 0.4885022596375175 7.147155769219711 13.562921076365704 -1.1554866708023455 -1.8279281065090518 -2.5679677009807067
Ni 7.1573171293222435 4.548588353494127 8.313847711267513 -1.2241088999564338 -1.7507826703753009 -1.6446740142399805
P 7.846294633668907 8.593396982271807 0.7834483217843301 0.2872004506457505 -0.5495604452090536 1.2221435486999466
P 5.561731889809054 5.9874649110590665 1.2141128655061229 0.06838748743546287 -0.042088701639933966 -0.3541316652506611
P 2.109945830024477 2.8569456327914797 7.0576668149369 0.07246602838021068 -1.230651843281274 -0.661065589769597
P 7.1714964217222015 2.3996284940851513 12.317519611857625 -2.6682227265487275 0.638645570203184 -0.9173539242175233
P 7.409272248121493 5.489567588383628 5.982640595597542 1.2907830042452157 -0.1370768223820607 0.9783826572950699
P 1.8120035649997241 8.280883886200945 7.905571720226679 0.198657057087703 -2.1207333049360897 0.9098966966085298
P 4.0404830589725655 1.3070958360884095 9.453424669834371 -0.014317702174252761 2.521225559729161 0.3547741839306664
P 2.054627012732334 5.758489381849493 1.0631504793075985 -2.993117606421458 0.7819097523428792 2.1316910894991743
Ni 1.0072891013200729 -0.12211344585604607 6.1980688876502334 0.3256782950059746 0.17600949489151624 -1.4534806125191742
Ni 1.8073423906407635 4.256892062110381 11.155497234282628 0.3005192792418437 -1.334571976405708 -1.4212096683006106
Ni 3.3750351627899344 1.7178944546923125 5.150685296729255 -1.4503927176224698 -0.10321179420349967 0.5200287542985238
Ni 9.012306044260301 4.605147043165753 4.281358566320565 -0.5221941373809587 -0.13546242670708927 0.12662297403858835
Ni 3.9161975058652434 2.134081390855174 2.8169676725495476 0.9817153212127286 -1.0035167333585362 0.8863636464835961
Ni 9.527720060176714 2.2757997360650077 6.048118908522475 0.24728535961836767 -0.49876984491974746 0.4795865871230773
Ni -0.06072391507879326 0.022848144472752373 3.7860062448451193 2.047556109421467 -0.16507382181561894 0.18071821322109521
Ni 3.261293186082581 7.554803433956956 5.45264549405143 -1.0485539761038327 -0.32399987886228715 -0.6181034843857741
Ni 2.1738505304858244 4.919468674887893 7.588699493895317 -0.08725115710918521 0.9321591075511558 -0.39352302256409
Ni 3.570981610491914 5.451634951450408 13.528892639075549 2.0255063287102795 -1.347710570670195 -1.832453248072915
Ni 6.084958033951083 0.9885045686534623 3.69326658756437 0.2624273574661287 0.26823213707336385 -1.6947303074664235
Ni 0.3447376588841001 2.920943556740007 8.820074552522414 -0.6880580591980409 -0.7209406688586746 0.17733978366716552
Ni 0.6555130691539425 4.731660637616658 13.095729705897353 -0.20675577493543748 -0.14998915956835457 -0.5600001524851388
Ni 3.895921397403766 8.639132425081927 9.214964583039185 -0.9269053153513843 -2.419563883621601 0.5971783041973328
Ni 5.6226627610293844 0.9069172371439619 11.157162205763647 -0.7376160726318265 0.504517288926486 -0.13353461355675714
Ni 5.300678158661114 2.756786318166137 8.159695217337717 -0.03924403310228726 0.9194619716994616 0.45443734155095933
Ni 2.8837287406580665 7.6645181560181666 13.692499859075062 -0.06979079554089271 1.3506465133700676 -1.2788803392703587
Ni 3.0770742530677464 4.334948087925533 2.525159512981187 -1.3098410493179313 0.2083632286318734 0.7646190835832315
Ni 7.592941162561971 1.6982895553385249 10.043399763031585 0.34266351671006146 0.1879764374454053 0.012679652350197518
Ni 7.094950616399353 3.159754163846987 5.998849363313392 -0.2636224062154944 0.36839357448631393 -0.05865509063904737
Ni 0.18368289796355475 7.796513291515209 10.138022534753354 0.4780596089555895 -1.4147178899286796 -0.05301948961982482
Ni 5.037349774426003 3.9785733411368525 1.6921946037467481 1.3580762301752352 0.4580214593577918 0.013374107314060838
Ni 2.010047541163236 6.390087829837353 11.668438031084174 -0.009129215994777826 2.0272240827323347 0.5691576506146908
Ni 5.562738703470589 1.0904164848377738 6.3412508416087805 -0.05968481745514237 0.16418704833529144 -1.3758674927203853
P 4.191365272972115 7.331281478747367 11.510329132358493 -0.6181914161138902 0.4906718984029614 0.12936377000851912
P 8.572347118866743 2.4093144144030707 4.070132789069913 0.21922485393672567 -0.44128177800560775 -0.7637209972489944
P 4.498872267781454 5.295877149071385 8.22683850174367 -0.7016031448723272 -1.0176459736710668 0.3878030893611773
P 0.0986518908376545 0.5918339695315683 10.460680210699058 0.6520762417867931 0.4829004819876587 0.060678805937295494
P 6.115125154402275 8.438543447718423 5.054030252986979 0.16838514557703904 0.45816107025944963 -0.2842974180663427
P 3.500849581086995 5.50821228581947 4.813032622870773 -0.09247358185038912 1.043791007497551 -1.3946712556904497
P 3.8085616675681284 3.312025407805507 12.006691064200089 -0.5165477377284587 -0.0028994330349821035 0.15116081127895256
P 7.4928191373315 2.0241429324247324 7.838319364340726 0.03999170990158919 0.21605082708411827 -0.4713436303879947
Ni 3.034312639498643 7.49492598814175 2.273014218268093 -0.37857411456374157 0.3061865048299501 0.5130114424404262
Ni 4.264666900941128 8.912892517532393 3.777778339866682 -0.37275210856532576 1.2999780404809222 0.5121940887454534
Ni 8.417586807800538 1.2692750673398043 1.8475608674796182 0.5279976314366132 -0.06949280468449968 0.8758779164609238
Ni 6.461086837673038 6.244267651191634 11.866742100776918 -1.3392845513900289 1.7781217245098861 0.37581120710662375
Ni 7.542647091228787 0.1190445286581065 12.546414968868223 0.8613768946312713 1.3631883545908199 -1.0727601410363912
Ni 2.0899121026296643 3.9302369630344325 5.096094554871981 -1.2531101722847902 0.2874583322928275 -0.07030553039378214
Ni 0.2922845315878463 4.435470974150874 1.6559008357181386 1.3742068171885107 -0.1424861663230901 2.4846840131597014
Ni 7.964371502530093 5.958034256156591 9.711654661555652 1.89310351476512 1.2768278276167042 2.4312582892403936
Ni 7.71938950057185 5.861128441233802 2.023653509117042 -0.7368758520316921 0.16006916951217592 0.5576393655624461
Ni 8.608974626979453 3.8476409533936535 10.95189900275298 -0.11618018143870959 0.9841470705826729 0.22380810243203392
Ni 6.854107737271867 3.3054997637029624 2.9076610742867133 1.395269808506397 0.5660039354770575 1.7100373701371387
Ni 8.063822318652873 3.2778869668004806 0.470811238475519 -0.46413271446185234 0.9997742355969684 -0.5774003502394572
Ni -0.16863383042821503 4.443702608068799 6.920760666135258 -0.049512762018146986 -0.34313531414015747 -0.6524590790475085
Ni 2.4352118991414553 6.506477353580595 9.323708848598859 -0.3548649438722598 0.6809677280101627 -0.38374048925602944
Ni 0.40989435077826475 0.12603256125706003 0.08776338753512287 1.153148509587472 0.7186927533647622 -0.18976309703218286
Ni -0.15502879470928124 1.9468420168557323 12.348601254718043 2.3247027753756413 0.13565988742987606 -0.7126306063310823
Ni 2.9237122943092295 3.3680806906463654 9.06425110355143 1.2069385588247343 -1.0507607539471646 0.9585514815017554
Ni 3.6127084433533283 0.493746080791348 12.663959531617616 0.07333994634473176 0.8144804871900488 0.44087914325055044
Ni 6.058314761315265 4.319025516315325 10.7184058633547 1.832480758876741 -2.8310658592616145 -0.7123207884001473
Ni 8.679330392753602 -0.23253759865469112 8.224873350633933 0.5146592624564943 1.4006452138856975 -0.18976386836313125
Ni 1.204130494498973 6.171627909981594 5.923997428752589 0.6974068474027925 0.9147589097968375 -2.412037236227252
Ni 7.246243013742492 8.384324667574996 2.968772799072172 2.6429187005662995 -1.1757631616631943 0.896211228701637
Ni 6.311425851355536 2.0150629647734775 1.1450268036273543 -1.7443217452413056 -1.2139214179004707 -1.052767242854232
Ni 4.845383969626575 6.6995431955287374 3.32254008492445 0.3112155826134253 -2.9049920171271197 2.0023905686284222
P 8.460693348272203 5.987129306505221 12.064678869930173 1.815779901182292 -0.2693467102937813 -0.3118190205253791
P 5.241192251492061 2.6057363018896647 4.65224914229792 0.11628508244769005 2.07603030560176 0.40860897036293503
P 8.861321284424854 6.834651995497565 3.7571209473426412 0.5680497622624927 0.5115052902085448 -0.14839687538057025
P 2.1755099085576144 9.35851943094645 3.933022480831347 -0.7888910687567188 0.3891832575381555 0.03152506719147474
P 0.5455298634496552 5.019609344815799 9.243726825538586 0.7587528546104416 0.48278118280097504 0.3057658723527637
P 6.989291116030438 7.791600413740865 8.229935385987764 0.09818091664781156 -0.5638370097327258 -0.4276623874499602
P 0.8163217200683346 2.411822126208192 0.7620544637115734 0.48050241406912736 -0.522202879131707 0.23790160441062252
P 4.646491659729732 0.5911208098546472 1.131501007872523 -1.430154021978092 1.0663930611677828 -0.9265700434991527
