# total energy = -340888.5141275671 ev
CRYSTAL
PRIMVEC
9.12054133034944 0.00000000000000 0.00000000000000

0.00000000000000 9.12054133034944 0.00000000000000

0.00000000000000 0.00000000000000 13.34883415541110

PRIMCOORD
 96 1
Ni 6.300615767904089 1.8783389715014933 11.55410950067805 1.1464610702649676 0.6219416271849418 -0.09167216899501632
Ni 4.77721177651851 0.4577681697373792 6.1451625280646995 0.14873728943912448 -1.0514233272318279 -0.36536430074168685
Ni 2.7590275472793953 1.259118069944042 4.93893538841129 -0.3520578134407678 1.4687707059090254 -0.5908878432029308
Ni 3.5290657176002536 4.440216900881166 4.990875046258039 0.7178121505320219 0.18714879933778736 -1.637533289430141
Ni 5.078390286986897 4.327140431473285 2.735830362871264 1.16145420123969 1.1611492684047615 0.6694003348875375
Ni 7.169602689362721 5.94221498214412 2.4639278774998576 0.27475142624912036 -0.35833696158126027 0.4276433612865667
Ni 4.971844125055709 4.543142207968433 11.676652179764789 0.8974615561689705 -0.5322265819162963 -1.0777041153052278
Ni 5.68818966951722 7.91502451906962 12.567659735820804 -0.9945453830978613 -0.02909151804931764 -1.0463292005383722
Ni 1.971778915773452 6.4146042914288275 0.4803898479977735 0.1993692526633792 0.2981230110955253 0.07875134716829019
Ni 2.788961163394628 1.8563949494499234 0.4235561077599713 0.10232682049538507 -0.48921356868988003 0.7301886698195037
Ni 0.5417829467657418 0.0002480787197849952 4.795568689728483 -0.29614608987481256 -0.7391859882221076 0.33083721349909473
Ni 8.865357547210692 2.5522466379056663 1.4345060766155662 -0.5201359693003494 -0.19466850475360023 0.3864419473475925
Ni 7.064342523736301 0.666772667048004 4.55470249389959 -0.5797079153267113 0.2809138463060904 0.6218745213924323
Ni 0.705690928268392 7.593096777442746 2.494723384755521 0.8474672265287148 -0.8430683261300707 0.23366185529766212
Ni 7.841376149133449 3.839364769237206 3.4438525014623416 -0.049560327426630774 -0.6564404322927597 1.2306155907267
Ni 7.750781813706084 3.8282194679292183 12.41055750213814 -0.9080064215643523 0.9580025509768212 0.10385611265571791
Ni 8.293089191589017 9.064395117132307 7.09020655438212 -1.6740709793448587 -1.4242548828848374 -1.223447612223351
Ni 6.696693509231405 0.624483453811714 0.4183200050750976 0.37775521820687197 0.7047771717249346 -0.6224640753473151
Ni 1.534895873257972 6.640228238856813 9.378783819429245 0.7447323719616336 -0.6916658311539572 0.7291581716724603
Ni 0.3064292060191299 4.967402421506617 1.9436840007578013 -0.10650434891184239 0.5999844061875603 -2.9458769282669395
Ni 6.05822826580828 2.341370605547252 7.118959972470142 1.2166478156926983 -0.7101996282920866 0.9725495955530605
Ni 3.9313271858398573 4.770991567441548 0.7651513843627411 -0.7433899990011262 -0.6137809457510204 0.09217816209715737
Ni 6.21144423689902 5.481965113154773 4.797383677421029 -0.6093447643565376 2.50076857742639 -2.1849628043391207
Ni 5.057230631475824 2.6665726214536414 9.65246207416617 0.5608267621514922 0.6683772929396617 -0.8011616585939557
P 0.08521139202967842 5.690533648597541 12.842125093260577 0.7987260525692695 -0.9471941475074075 -0.7954751497321397
P 4.082573120038187 6.25335312356858 12.670953512771282 -0.14310271686116646 1.464337609838336 -0.9105075907196513
P 2.4332418167382173 8.588521761121207 1.3855287705403667 0.4842760221789466 -0.45012508732885065 -0.04182670622779894
P 6.43907470338409 7.9988970156557535 5.881015238848926 0.5869846514937826 -0.4112659483698079 0.3845205619551636
P 4.732584968580718 0.9690574991601374 12.677093461085962 -0.08481709374639586 0.10531932746480571 1.1660621323253466
P 3.9409767183962 6.1937139048673275 8.171528794786136 0.7417378081096839 -0.014238769307201285 0.9330533372306512
P 4.6873744460081355 1.1535022032120477 3.9478910006560897 1.3174317171809955 -2.7892900608764095 -0.9020278353834142
P 0.14270089917750048 5.692403359537097 3.916120507549507 -0.3242379630150222 -0.034642786884850015 -0.23209039704548415
Ni 1.5289948831219098 1.0456882860584291 2.688695406112115 1.2100395663475614 -0.2643839669718672 -0.587317352242853
Ni 1.709891696659248 6.533508786643422 5.032937158019232 0.5394704079629032 1.1776192410353266 0.5248904532661992
Ni 5.987872411233962 5.735233420864684 9.22108054208357 -1.2225744655897783 -0.7490572245892326 0.7163445648475599
Ni 8.7970538143993 2.058150440639772 10.18598819501201 0.22735031125733746 0.9422550583345772 0.4683639789343805
Ni 2.5274843686330097 5.121475723467203 6.966222829790751 -1.3306392170102053 0.6138912460766396 1.4802612230471281
Ni 0.30017798710219473 8.85754124342923 9.572675580023555 -0.13328110278505434 0.676645446485725 -0.8258236801170099
Ni 1.6213038802889663 1.052054423794088 11.74278248761571 -0.9828604905607653 0.8299379593956997 -1.58219775008263
Ni 4.262831495693725 7.134826065886979 1.4213569924128444 0.07127895005064498 -0.15539541818559047 0.2876295677633692
Ni 5.620059226988032 7.708298332942903 8.145044567340854 -0.1340886862880142 1.6751850383446438 -0.8079691684340924
Ni 5.391790322621162 2.8513365444464513 4.86318017346518 0.407685172997085 0.7664060002803252 0.12219527728453794
Ni 0.9276137600901736 7.576634200633484 7.2835246329369285 -0.12363612349612255 -0.7945968608922443 -0.49338672623096314
Ni 5.282170538316167 4.540059465053457 6.741681490599475 -1.0079544574149155 0.3098518694966793 1.3773289077572601
Ni 8.012997372302356 7.054638267932947 8.999597320346114 0.49205180946962346 0.1052041420431801 -1.0146961470141234
Ni 4.39439530205029 0.28240387647289333 10.559928558814981 0.9815577125889419 -0.5523426359398809 -0.9322861200473234
Ni 7.986374512631311 7.448335548015266 4.244435364156727 0.09594071446338315 -0.11605188339096142 0.7176848809255382
Ni 7.146719251570788 6.010536956037848 6.88799868435031 1.091032714093334 1.7939000703900652 -0.38608867777323186
Ni 2.4332691783617233 5.563666920942788 2.970569379143115 1.2639478863302427 0.3604928315819985 -0.8243265267461932
Ni 2.4888041535371213 5.214961270445005 11.580060176464974 -1.3583132858867057 -0.4041434783924136 0.5984078057290597
Ni 1.176212350721777 3.488059764506381 3.55008218061498 0.91014506517391 -1.2264136368302105 1.1104545702633715
Ni 3.642342838913843 2.5588863918763827 2.821609964615744 -1.2277246423321502 0.45849325678788777 -0.6750922430659922
Ni 1.0842681752014631 3.2044109341639784 8.22963576257107 -0.5148981179401777 0.7354249785177787 -0.12179212830884832
Ni 3.608022242496529 2.9649967284891208 7.567414245566181 0.5467949666487745 -0.8837372646043425 -0.5759667031167243
Ni 4.080539239357597 6.77915232193641 6.042015591827036 0.4884944311356684 1.3188946748797674 -0.373056527179622
Ni 0.8739512320166818 7.671697601233448 11.92223095921548 0.7512619455500352 -1.009476550486397 -1.0036982532417231
P 0.243570436285373 5.543692935783628 7.995350949249415 -0.04423171612486576 -0.6496905151634359 -0.37342548048326657
P 8.453638077779285 1.7718475328173167 7.98340395237271 0.117050756969121 1.1239752304576256 0.6754226298222175
P 1.819693891787614 3.142254446100201 10.577509313971511 -1.170209835945133 0.17725159482873343 -0.12913571315811306
P 4.443883358430929 6.21500124795476 3.87013382692348 -1.8985586243424206 0.11904824701512401 -1.4552166213736744
P 6.921642536612917 4.119876133417622 10.31301544419133 -0.6115852236512822 -0.9149062340079792 0.8667250463170622
P 6.653845206821482 7.950065638239251 10.447611830486442 -1.4866866669574976 0.7250294942160674 -0.49046749570163917
P 2.344964098767667 8.569924977678502 5.913199804524561 0.8858558536092421 -1.821058633082728 -0.006215899002724778
P 6.98057947364419 4.019094153504968 1.3305027215621743 0.08973561409393578 -0.40018732195814305 0.47826658276007306
Ni 5.245031694677767 2.8645886907643776 0.6842521841975607 -0.4374122677478725 -0.8053404725619936 -1.6011760909573456
Ni 1.4018362981497627 0.9012654287083033 7.1719411961183415 -0.10663933182780991 1.666157380924737 0.013172532826216022
Ni 6.954968994042858 0.6466564014466147 9.162732792011786 -1.2416242831323778 0.04410264674616921 0.3520657838605678
Ni 2.6189269143890526 1.5199108241180181 9.262742262087464 -0.2753060132010097 -0.038031243741108695 0.7635199369817818
Ni 6.366320146482439 2.0552592290893363 2.547518549363882 0.805608895732032 -0.32630024486068965 0.6965812661777036
Ni 3.924924565939524 6.772074781989603 10.419272484967474 0.2912687071778532 0.9513233391844326 -0.15458783468263054
Ni 8.05005413107024 7.437144644001436 13.251160387426076 0.19823436772798764 0.4663911714787258 1.7532465585347612
Ni 7.466065880046958 4.160727037311629 8.184197226469275 1.4598757174122408 -1.6994012305795314 0.08507986048947927
Ni 3.146750872896304 8.553872825221825 12.45428867293318 0.3172548468289697 -1.3063361214884663 1.1780815253837258
Ni 0.07325253844945469 4.665749642897466 10.252745084041212 0.3654632882133964 -0.3059857016730537 -0.11031266691433905
Ni 8.626882757276196 2.2395762455648867 5.706786452959926 -0.13657185772118413 0.14316210934419216 0.3134277597733957
Ni 3.6270750529976636 2.549145653908354 11.578631899717974 0.19790346675113016 0.5575501482827495 0.19234988392275262
Ni 0.9242938831048155 3.3928139530830466 12.748950556736625 1.276675104088924 0.5884293543601091 -0.13437562140081372
Ni 3.1241228102570915 8.506719627380338 8.19290004685232 0.5960454761444701 -1.5226049781206616 -0.6980766197763074
Ni 5.672593544118972 8.01863386674453 3.613729877159818 0.09842337167592081 -0.08944765053987176 -0.1330813280694224
Ni 3.1990480559568617 8.309725058680483 3.4582957904568823 -0.373924274496556 -0.4585220531432942 1.0641549158658834
Ni 3.127606856983484 4.531230781202286 9.40725723690339 0.6151210047186825 -0.33637048461249813 -0.16779867694594974
Ni 7.554763142911263 6.2027432406242085 11.216958663786725 0.0031539722479494068 -1.0741912170559629 0.9637029437957081
Ni 0.6598109579740375 0.30548523000818334 0.45870484931539096 -0.49478283524754146 -0.474305541229796 -0.19423013166460096
Ni 4.662612176735479 0.4124491127248916 1.7608709615209477 -0.6996005126200016 0.20138833997593703 -0.41445205940727337
Ni 6.218330245481288 5.677764890961549 0.06295635952426053 0.17021525680724234 -0.011051372718155162 0.8789365007815894
Ni 8.154301916626949 9.081879194552448 11.560717332754677 -0.5419944599363375 1.0657207176911065 0.156932166545091
Ni 0.4861522059080735 4.441366089068405 5.882243775744331 -1.4766022861383021 1.1363175540730623 0.10448937536434262
Ni 8.066699118702873 9.04702048620619 2.157852548478068 -0.40281550360960944 0.4859148433339502 0.9241979437225503
P 8.847764023296527 1.569216469675286 3.555488837419706 -1.6603582577444564 0.989885772838663 -0.14223111288949053
P 2.2011696467040553 3.727738465875127 1.4726965186507026 -1.1404930256069907 -0.2443825841492759 0.3386423113658103
P 4.646696832396332 0.9114403044359555 8.315415364315552 1.1000889107583312 1.280924109173265 0.15212214675095737
P 8.456812026105947 1.7994645314757347 12.743637841505937 -0.3106321993061295 -0.9472399131436784 -0.6129347957006411
P 6.487139955342433 7.576479151433619 1.4008129734306496 -0.9154880746533781 1.852372098484029 -0.24843207162830117
P 2.1701142040250883 3.159948295967219 5.95624967089431 -0.8785420935566483 -1.6317493357585124 0.3407120494106455
P 7.2022268651226815 3.9820921179840956 5.630631758310634 1.1691970784099024 -2.2045481826702162 2.1330959402665006
P 2.2670108333999335 8.557703452512623 10.201699239228981 0.5664754757968373 0.03880308891012672 1.8199000939982528
