# total energy = -340861.1400714638 ev
CRYSTAL
PRIMVEC
9.37912835039894 0.00000000000000 0.00000000000000
0.00000000000000 9.37912835039894 0.00000000000000
0.00000000000000 0.00000000000000 13.72730239763139
PRIMCOORD
 96 1
Ni 2.07433492684076 6.5976822008077445 9.575150281214237 3.268839624113964 -1.0559340706179878 2.0599385422462198
Ni 6.338227372597151 8.386272602605525 5.581727512030892 0.2146809433197851 -0.49024766638134926 0.31064119816719404
Ni 5.378583094752256 1.3395364935063152 8.16666031172778 -1.2019539611259495 -0.11445419988653838 1.384326679231332
Ni 3.305383042444753 4.446035118779914 4.395715157140444 -0.04490637359438718 0.10879803004202553 -0.48840572807660404
Ni 1.9681538145184476 8.845634172980041 10.210642503324527 0.7274602151447472 -0.8597709835967322 -0.1542757027588504
Ni 3.63276151834002 6.178500816387541 1.28290719220964 2.9862638167244184 1.8772153827799543 -2.578703856451288
Ni 6.504641247337438 7.638015120054356 11.145101007746657 3.028088723180004 0.3149557663821479 0.5347570616476338
Ni 6.767575732174794 5.52568534417043 2.2961794502715223 0.29244730086698667 1.1709785957903573 -1.1209405573963598
Ni 6.397634771718211 3.2793465820784653 2.956613588466852 0.1993404563079728 -0.13149187209511548 0.8311504916465621
Ni 1.4641663513403305 5.367056145980582 0.2583743526219062 0.6802426769186801 0.038669905766372116 -0.606240157289285
Ni 4.172464702366416 9.509685840989231 5.0475289384472095 2.8622469128501096 -2.7986198229177677 1.9774524106258462
Ni 6.622808885721752 3.1914735283422457 7.748019165101922 1.4861937864814792 0.5950705138257106 0.2350695342784661
Ni 3.022883695819185 6.856499248288904 7.720852519766564 -1.4179446243960936 0.40805875428641986 -1.75548007585097
Ni 4.393962198047339 7.178766099220329 11.735086636899029 -2.496464550734397 -0.06897627005939733 0.19545243410747629
Ni 2.964461105177397 8.542275644850646 0.20930275296901876 0.4052493098620827 0.4048600448434641 -0.03234473487929268
Ni 5.8670387213429915 5.968230137370323 5.956317706422478 -0.7114255302793877 0.1702538233546616 1.5810196706141286
Ni 2.416569942080479 3.218569830214798 12.252536900945218 -0.9539270953558667 0.9274930695340543 1.13023432399346
Ni 8.494151337163535 6.590103865081534 12.488839350764536 -0.21277755564948517 0.8663172693556823 -0.159133545071784
Ni 1.7610345226349013 0.7464369937337698 12.259441815254172 0.10814728383190407 -0.387346718550049 1.628435183783615
Ni 4.162344622850846 9.372112785999064 2.5823666701737555 0.4282246877113335 -0.7959019528569131 -0.47425360494593805
Ni 3.750122551684168 6.898846012897618 4.958589477814864 0.08487468645720866 -0.22436037539107812 1.034710128242205
Ni 2.2025663699704 8.899498507232053 6.04925173782932 -0.1150398971866793 -0.2592985820291599 1.6018921431877637
Ni -0.1357159875721104 2.2622457638143074 11.880224896835681 -1.4881851058798952 0.09492435738372684 0.932473296357465
Ni 6.76521219182454 3.214677491939578 10.448851729942286 -0.7602255825012262 1.2121658686619445 -0.25700490089897676
P 1.2484463987378054 7.437930174451328 0.7984845908197347 -0.8660527028403859 0.017924702799220742 -0.20709258944956593
P 9.11636271349621 3.774902208848336 8.583764219213137 -1.500349766266887 0.3580238012162157 -1.1511895860888883
P 2.275123307071841 5.496037919380145 2.4407830998908566 -3.465012995547865 -1.7769912104498686 3.872691997897362
P 5.278657861055417 7.463947876560867 2.0173642252712707 -0.7312227675109729 -1.5191980093216415 -0.8442353498549784
P 6.047586942542932 1.165675590837054 6.176970142636901 -0.415837112680258 0.9377908519156366 0.4737105879582745
P 7.073325938039565 3.6430504221663234 13.0109707377822 -0.9043497986483715 -0.543529151413309 -0.9926867326225677
P 8.86190696070897 3.699128230714605 2.8526572053948582 -0.8815453991593462 0.4285231927883587 0.02982942465660669
P 5.668379403252814 5.208483222560979 4.0386545536799066 -1.2814036199128447 -0.4829503613889876 0.2201509652954209
Ni 1.0905112560476349 2.506037447640283 4.230644373583317 0.9717939483339586 -0.06792211776327012 -3.733344377203254
Ni 0.1334181011204748 6.830594095719854 10.002618125552887 -4.720611995692781 0.21311385594298138 0.721317592582119
Ni 4.85202944870624 6.349970041321427 9.36251418602109 0.23853281023671818 -0.07713232350762844 0.011384587687857812
Ni 6.1214569576167355 5.365668034981227 11.526362576150687 -0.7783387471621692 -1.229070100616451 1.5588377352004508
Ni 0.3018588055023883 5.86715127088348 7.460898721926473 1.0961607793485184 0.3440539692996849 0.9897299639870889
Ni 0.7332583804554302 7.357654214698067 5.0286403118147645 0.08471244984773153 -0.9035704972801858 0.1759580728282905
Ni 8.034864799816011 2.3278340085338494 5.218242205634149 0.6101814013252201 -0.055531714518717266 0.21549778279412565
Ni 0.44467573116647136 4.7664824188067785 4.718375931463577 1.1356516383542892 -0.024523181952344864 -0.087602626911333
Ni 1.4173082259837124 7.380173501924095 12.295764365708251 1.0301453916896581 -1.0125970983932495 -0.14945976942744582
Ni 1.076592629540585 3.428146453732338 10.152891458274318 0.6939996214934563 0.30899054993764846 -0.7830366668584708
Ni 3.59254381587221 4.619295757233238 10.564683027448629 0.2552215837463088 0.17356900377082365 1.1521470649061512
Ni 6.644465293137371 8.735851475362104 2.8701595968536218 0.39445581879100455 -1.1570589003854719 -1.8358522464521347
Ni 0.5455754563013716 0.7008159754096854 7.944497835845138 1.9171304738073371 -0.4308276725518193 -0.17870143990138257
Ni 6.410540452360867 1.068338996571445 4.151616775816638 -2.955317504854549 1.6140215794614459 0.19842102981749699
Ni 5.733845719303494 6.784974015308607 13.605871030202557 0.8044899516362404 -2.01712170419101 0.46718847056904056
Ni 8.567693082744249 4.632379641315 11.444671305925786 0.16877055394091578 -0.978649280692895 -1.007681149148871
Ni 6.409658814293708 1.4552374211282608 13.351792318375953 0.27785654753700534 1.4487682946451694 0.5881177366569613
Ni 1.847594498398758 1.3010633089160735 2.045217422803606 -0.9836220513171382 -0.8960016837939924 0.29250617912938015
Ni 2.6751712696090366 3.4730724786439073 1.6068219559963803 -0.4910058847036125 1.0497837347458758 0.18989525173467295
Ni 2.3830301790149737 7.8118572644668705 3.212477148423033 0.038935757833249075 -0.5181292232829657 -0.5463321680797429
Ni 8.022990823294498 6.255616009878757 5.260632114233382 -0.22826768086528426 0.5812158673308055 -0.46975983084064254
Ni 8.898560594394652 0.5449639371313854 0.10533699076865044 1.2707955053796953 0.0991777333434421 0.47180102964038745
Ni 5.373086925525079 8.924850291227038 0.3155767186622341 -0.29097585852778274 1.1637990473227828 0.1676845199655886
Ni 5.02369563533598 8.858727436190177 10.14991264710273 -2.1948106436674784 1.505699974835207 -1.656816048919153
P 7.270118809583312 5.939539383674187 9.927269021934501 1.083438960906476 -0.0989944136880424 -1.273626289960271
P 1.0251668686658177 1.2979869548093939 10.34780569040475 -0.3769124105906025 -0.37499925272828966 -1.9030727101626903
P 8.20231037867744 8.227896640881776 4.17547446466164 0.9293139247928769 -0.9179889866983609 0.3878606820719901
P 5.540607537413501 1.5667552574953922 1.8482163346099556 0.7372196085243562 0.41436849855453156 -0.06923440881679044
P 7.513141404882617 8.735757684078363 12.829756598467704 -1.941758556768662 -0.09259236681644054 -0.010725613947620238
P 3.892675923840941 0.6454669251360644 12.219399502486956 1.822687941156035 -0.8883868475612119 0.48969050832629857
P 4.834218483923971 7.573130309962867 7.405193264774638 1.1321752497699147 1.5360485052200772 -1.1545749576213533
P 2.261129647537799 5.535524049834781 6.214665797484936 -0.22367980438428575 -0.7232266366793739 -1.3489902087135672
Ni 3.297842223232039 2.1044606871781215 6.10173077482049 -0.4004287485449878 -0.2891796858593084 -0.2658006448137358
Ni 6.381587083070258 1.0773148224253848 11.175177058703637 0.0091883513674874 -0.8003599886282667 -0.7365727189689766
Ni 6.114253787025485 3.641324662545503 5.4794453033736605 -0.5607033491997504 -0.9439671559296775 -0.5585487647505929
Ni 2.4753676978572283 2.363765449334731 8.145218686351926 -0.7428688363903334 -1.055316234528331 0.9144346936881994
Ni 8.350481848730253 0.9194181341615478 3.2030464348429524 2.2091450580122793 1.0881461365741583 -0.8099710293554696
Ni 7.840116578257801 2.1824481396081215 1.3575556749384876 -0.07464889496414241 1.5936517575558427 0.29902803940829786
Ni 0.3218447901545935 8.660433904106586 2.2473789074286437 -0.572607042615872 -0.28739199783126634 0.3020606555870346
Ni 5.001317035035562 3.9758218968766528 0.855529387503379 0.4964885050847385 -0.2325693935644317 -0.014129754533162764
Ni 4.8152163698382004 3.295938260172112 12.216900902688119 1.0493846995352443 -0.48882584633315806 0.28420485835253634
Ni 3.4012940091975103 1.9068330732090861 10.563667267845721 0.38904467507776225 -0.40062543793682615 -1.4974043104853179
Ni 9.238056904149156 6.107125649461229 2.8360608377370244 0.6946241424513326 0.05349694347687561 -0.8818115083365395
Ni 9.181322556614692 8.797960063454882 11.49268962946227 -0.9917791332066339 1.0801623470377333 -1.2934788059098237
Ni 4.042620049156444 4.2209079004182435 6.762315916982642 1.477681378135094 0.2589306571667799 -0.7643709721281674
Ni 8.505218708644882 4.227717147617785 6.5165836914960815 -0.8803758043312774 -1.4161690205529094 0.5592583892231078
Ni 3.2957225402195096 0.04019425464687486 8.32842307670739 0.18924707662771278 -0.4752637913780072 -0.8391895599009547
Ni 7.972118430993798 7.525268617870228 0.774927971995539 0.03554884363888716 -0.1970118081747962 1.883779409150717
Ni 3.6998598027277794 1.5455678064984746 0.6900431085592827 0.8944747056265047 0.16630640867113938 -1.9317297117777505
Ni 7.693211290535481 0.5483976360291151 7.4670486164013194 -0.6731104367492731 -0.9078341576525462 -0.31110553939812224
Ni 3.9368797558677104 1.9369119379045774 3.9020541143021266 1.469028330445786 4.52406864251397 -2.5087413112192216
Ni 9.506309354774583 0.3641746723322334 5.156867065380219 0.43872275902917995 -0.12982091215059577 0.9550918050879292
Ni 6.745159615360879 7.110776797637037 8.002564019608714 2.3254843907366727 0.4362128481231326 0.3528954788507148
Ni 8.679051473929022 4.556418080613789 0.34623708931691477 -0.5166690937976715 -0.2643852525234479 1.0252309851071764
Ni 2.7599398318534556 4.558284527160219 8.472065365668387 -1.4490799123483173 1.0005494232000962 0.3015603189118484
Ni 8.253267183133508 1.6507922477266368 9.565293755205975 1.4363274977786553 1.166919081009003 -0.11524121456420798
P 0.7606735726926991 2.3909649216193967 6.149076614852557 -0.4756042054365616 -0.014985160554922577 3.942394347489507
P 4.936835527464155 3.7277533305121238 8.9268780587815 -1.1776210408075396 -0.17507078512733076 0.4624920935346357
P 0.19869026921381192 7.942180253223918 7.264763327281744 0.3987842709630293 1.8382174042502017 -0.4583492750108558
P 4.071432731521442 5.342464071383894 12.97158683982684 0.19798111406660096 -0.9075024853447403 -0.5572686124865887
P 1.0538294849768315 2.2774493309085986 0.03422912900099633 0.32992550031810275 0.4654907711516435 1.5210756859603287
P 7.401285919894021 9.13771898880386 9.58440279135521 -1.1048207690163618 -0.8908070269669304 -0.17305658291077938
P 1.393691580737923 5.210752971627492 11.342609506785342 0.05149842498960809 1.1508563711191857 0.8102191408105337
P 2.4034297832284732 0.6450711259186807 4.162598797229782 -3.3043074780032704 -1.357161945891082 -0.9781314605162124
