# total energy = -381171.36182549567 ev
CRYSTAL
PRIMVEC
9.17825449609622 0.00000000000000 0.00000000000000

0.00000000000000 9.17825449609622 0.00000000000000

0.00000000000000 0.00000000000000 13.43330320722634

PRIMCOORD
 96 1
Ni 2.361821820776898 3.022601060366107 7.111859368201832 -0.7002759414204713 -0.5825204450748419 1.573334386154729
Ni 6.17265135984847 4.901151079585511 0.8429519842781901 1.1723222543024454 0.9018766545175305 1.0600144113349488
Ni 7.966174031295083 1.4148646123237345 4.519903834926504 -0.8231448477332662 0.1621669325814691 0.8236678101162718
Ni 5.70646028953074 6.439949659631182 9.294126082414188 -1.7085553862749736 0.30944075010118965 -2.2249596564470324
Ni 8.545973533254827 6.810062764007031 4.811191337955519 0.40237918740313927 -3.024131538304469 -0.7367570670656408
Ni 9.190644936559359 8.031945401560607 0.8570222481097629 -0.8360636126774632 -1.3992395917874225 -1.008478962459818
Ni 8.647237212872403 9.298581207048137 9.726678850747106 -0.01568887149016653 -0.6939600265047726 0.2472838169564709
Ni 1.357886009671155 3.4392203792459215 13.002590551352991 -1.8155330752788088 0.6074555177536247 -1.5497360300094987
Ni 7.531345055897432 6.155010755096818 10.591810086524967 0.9262771948490822 -0.23788720623291934 0.5203100329843684
Ni 2.3530198749096582 1.0787385835958403 4.508216245909463 -1.8349909268931042 -1.3180030163034333 -0.4431617686371401
Ni 5.378860859041287 6.637842000448235 11.477843878630308 -0.6687896978867321 0.1788310235007114 2.7566416787137684
Ni 5.852724949948186 0.4091160959950718 2.881067790036838 1.3164333578234684 0.8928919345204169 -1.6528614351467792
Ni 3.1603024095279384 3.0525405258707323 3.8636861877210475 -0.2823037846750815 0.5598060341964617 0.8496058701382724
Ni 5.347131633949475 0.4305317167375434 8.478697847110636 0.47010230178172585 0.9954810075382532 2.2793616282366806
Ni 5.250603933547223 6.648442884156955 2.6017487306062392 -0.3787605195429348 -0.7796448675681025 0.49344046228703403
Ni 6.744750306456168 7.183746209302959 5.831813215366415 -2.275369219247836 -0.03786463625625737 0.562825794859392
Ni 2.990936083054348 7.498450192510377 12.151080762771764 1.1815391449150232 -1.3676119375798124 0.018604245364748605
Ni 7.807757362193355 8.161138508992584 11.931231284208936 -0.1696850953353852 1.1447831683419123 0.2797527361184537
Ni 7.642200011251468 2.9362336874664976 12.895970442529869 -0.06546928534740337 0.8517324295629719 -0.9737287034628264
Ni 6.927746340555255 0.6575806179680067 0.46260787984164053 -0.3936238098080124 0.02366983281311407 -0.42195556687317004
Ni 6.543618041873593 7.504572088123983 0.6964027979776526 -0.8582180372873155 0.3017922324169964 -0.3075386479824704
Ni 2.1955852790173105 6.779903020399367 1.390589047543482 0.1908103073497746 1.4884653561244754 1.4172154595395527
Ni 8.79159279639685 2.290956519378611 10.69997489554565 -0.0968655402704977 0.8777347671640046 1.9478582419084967
Ni 7.169253745773895 1.9962519522762145 8.728597848055037 0.7470029131633651 0.5438978476066375 -0.06458225475675973
P 8.895564061030939 4.7064711277711 11.42440624648407 0.3491432108971342 -1.0422511738142566 1.4199683396943419
Ni 8.022372482332734 3.8595018215887484 4.882615595040265 0.9800412759444154 -0.15402039221493471 0.8515413965980884
P 2.7579919890913214 6.220332390901974 9.875358309869112 -0.11072430053046091 1.1595281878615709 -1.0083979727102375
Ni 4.945169987176003 9.24084998754351 12.391133414684923 -0.3085940858301782 -0.30542828650768694 -0.28634401618272615
P -0.2651230535152081 6.124566485606063 2.4595169951252527 2.7743092711968607 2.120598579130438 -0.9687543901766864
P 6.472137797437657 4.613486233526048 8.604271968874778 -1.779600880158574 -1.5736429185340832 0.001044639214430459
P 8.908734855941772 2.6745065880397974 3.0253949209729765 0.14937132347869758 0.506004929215606 -0.11981392153655496
Ni 8.785250622680206 4.037862837269737 1.261524435671611 1.5208638270598387 1.047790615575247 -0.15067667255368244
Ni 1.2512438730377269 4.448002308618507 3.5685300505074227 -2.8545408024551033 0.4356443772141723 -1.0429474285503328
Ni 4.41934779871494 8.52072415569406 1.2001852444043022 0.2327750818173346 -0.6304236965140239 -0.3380856675313919
Ni 3.108610481348279 5.45604079939334 3.3386459865257705 2.0980620885908188 0.9191673232771782 -0.742895832973527
Ni 7.4716955812455135 4.925308244885381 3.0297738660962925 -3.3208651252516357 -0.8419447540485888 0.21117190172526212
Ni 3.1866807123667775 8.11387967763657 3.3884435230193004 -0.17708318757166921 0.08419308700915178 0.1197298464631809
Ni 2.0429600883746324 6.720602319410592 7.305338804354684 0.5881444761298387 1.5520487373030754 0.6046270471658941
Ni 8.464700091487979 4.288888092190493 9.255075363872638 -0.6440788254036133 -0.7943842306608061 1.683776379558081
Ni 3.9010884917915254 8.22505587189087 9.860097626455703 0.4110836571556727 -1.1214038701860236 0.7133631136217328
Ni 1.6143539693878155 6.695160198509665 4.740371010003268 0.45647648346817515 -0.29087918504891835 -0.11231221384287109
Ni 4.389371620193141 7.788033293717132 7.476962981384418 0.00503807664453971 -0.3930723081799166 -0.1350273960521997
Ni 2.841119438225409 4.833406384646934 11.418266912187304 -0.07588225315061126 0.7236233578971603 2.0008484209522828
Ni 2.4638197607379344 0.5686369090882786 11.081292812762713 -0.16482313925739356 -0.25771066871674975 0.320184618881255
Ni 4.234919956946103 6.526500597616656 5.26199965407774 0.4140201140761773 0.8040950301906667 -0.6845922121366275
Ni 2.70874147655367 8.373036865861158 5.92036593061325 -0.29909128854606554 0.9919825074666916 -0.5172028548139544
Ni 0.80898601861511 1.9594471525602282 8.85046487291013 0.8455232154284664 -0.21152182886551316 -0.8530197809158278
Ni 1.276291329004043 4.94153539847587 8.487536505995047 2.301533793458346 -2.3033811310797296 0.34354283399122126
Ni 0.8847993169028955 2.8053609594988544 5.056698626395164 0.7435046702021195 -0.24262137848379506 0.24969345483922803
Ni 4.113133700728791 5.483144184321347 7.425715280712551 1.9347510151025775 -0.7722552599722506 1.473054935106676
Ni 6.122997004121915 4.9144595483107425 5.550627299012566 -1.472579281021838 -0.037055252981084565 -0.22213559982561742
Ni 3.7427636052327307 0.9814858011044207 7.007186884939737 -1.1946970224532198 -0.48230218628202737 -0.2746249279735851
Ni 6.652655702877563 1.4220695419439462 11.145598415817606 0.24114890770332661 -0.8163203686122651 -0.4754818209260844
Ni 3.5980592480451388 4.145092382177934 9.363885404170135 0.10553350035814082 0.005194399716745892 0.24323150126396823
Ni 5.8030247029501645 3.9308627487188716 11.060242486541114 1.610344387720175 0.9740117819208838 -1.4942323405152393
Ni 8.904026411489328 3.3121749833185694 7.196825221670859 0.28269896323097116 -0.6633687839814769 -1.1223706049746671
P 4.429058391757212 6.501765202296311 0.2722150906076128 0.018580334105348647 -0.3895856351828968 -0.21408521871731517
Ni 5.928399656596143 2.6052291246342447 3.9742024654916617 -0.04778755179692415 0.6740213785993165 -0.49901538527165024
P 5.464631645411834 2.2812000350648716 -0.5808935498715027 1.079502344856231 -1.227604314704202 0.9370375186893798
Ni 6.996996269197928 2.663465148125001 1.733124251244362 -0.6835779119395002 -0.5447013173445394 1.1449839714988088
P 0.6718986946654978 5.376740682299544 6.444062435379993 -0.5291235175109403 -0.6705354769332452 -1.5432416805344067
P 3.208983870299408 1.7850052514624628 9.010844770605187 -0.8586384126541856 -0.07743005725370536 0.6233925006988555
P 5.394555673882768 8.165305436441725 4.309336324930454 0.3662287056245112 -1.4524557707990855 0.3616320873927643
Ni 9.044664802025004 8.151281063881619 7.2283662925496595 1.3006982064763986 0.09018735691937371 -0.9845391638147688
Ni 1.0530670063375824 5.919331541354399 13.09428681869527 -0.3010360709772622 -0.6167222877675314 -1.42026864454358
Ni 6.043458252416494 0.08561659169842015 6.218235159795963 0.7919452822020102 1.185735185274242 0.93892162308597
Ni 4.880958920140332 2.854437085204934 7.932419165480747 1.1082627048183753 0.8752125149627829 1.8346170884934532
Ni 1.0269089816017816 1.0411169192477534 6.586832016562565 -0.12464888103135309 -0.4473503527971909 0.3681794015929788
Ni 2.301796037698955 8.950110426295804 0.3304887449409718 -0.19923735507120527 1.3928457724459367 -1.8132059698075287
Ni 4.2642811924302535 2.9255593777234328 5.826466882240589 0.24374520767559313 1.4300141539661178 -1.139841765176237
Ni 2.851408261288157 4.7249928449349055 0.8325062130670269 0.33737424328666415 2.3111535759362973 -1.247067051414504
Ni 0.13836126564551723 1.449659374349496 0.5507347240892683 0.8746808108290292 0.20906154025047866 -1.0655163149897842
Ni 8.54679957614122 0.43045645505233865 2.4861550425605916 0.20221392120102594 1.6474410354621563 0.4262002010821369
Ni 0.1725741263490861 8.799247460477432 4.861284414237292 1.3202367907299586 0.7561128458844334 -0.3833604802087914
Ni 6.5202134934257705 2.645016856995542 6.298016217414727 0.533789555528042 -0.3102807295039818 0.5135971397405671
Ni 2.0364527060807083 8.975745290536889 8.589334360012492 -0.3966134885639556 -0.00853786226768207 -0.49184432144450774
Ni 7.091523110164248 8.130060939955595 8.21789040876412 -0.8841231871888515 -0.47047536885042845 0.7202788669049596
Ni 4.3674539489408275 2.1228384354889043 11.029037339769447 -1.6741542830872846 0.05929529532620756 -1.6254815004719294
Ni 1.182902591570087 7.670909590680797 10.706369385311765 0.39351530925460615 0.8720099488650853 1.430434529332988
Ni 7.903293811131934 6.147383625779115 13.068562007562113 0.6017116732913121 -2.0138908559585382 -0.6733629190797112
Ni 3.03186191894801 1.9067823294254824 13.149618842527639 1.3863786766643542 -0.018078711878581767 0.045346289345283196
Ni 1.927314084279513 2.834263282268341 10.748724275398889 0.33636379974427877 0.036708668274943235 -0.17850809294365386
Ni 2.760580256802022 4.825760898820644 5.850659842732202 -1.703537621345408 -0.636216391936401 -2.031145786384244
Ni 4.271660508882038 3.4142371710596584 1.9936636845655142 3.407502302925906 0.3065251191162915 -1.3150326208211998
Ni 4.513773678884034 0.905483430778194 4.766377593543231 0.007677571149915809 -0.34131934397734126 -0.9604286439198106
Ni 7.794623280299695 5.465677966401266 7.140311038685518 0.31183676113719194 1.181770544199539 0.010762380722826625
Ni 4.5951021901766405 4.174270052576219 12.97258133111574 -0.9945649234818872 -0.17903953996709165 -0.8955126599727157
Ni 9.35300825500719 6.7094782752071565 9.161714161201562 -1.955553810780542 0.3607399145957981 -1.8124976308865948
P 1.4285493894749903 9.050015724277976 2.129446778580054 0.6071223027839222 0.05480692053755078 2.5882210519131035
Ni 3.7075374652551853 1.1995060535866007 2.267501490532176 -1.303422290275781 -0.072516679112488 0.6236303277412744
P 5.102430196236779 4.532442248116531 3.635791051444745 -0.03789343261166377 1.3504832483193256 0.3036318567288964
Ni 2.1445817199096453 2.954764582884597 1.6774572211302896 -3.2842752419427437 -2.2952420469123633 1.4842199505845601
P 7.963539872312915 1.148722772581974 6.772802722878098 1.043981526241802 -0.9632170052982251 0.694856570177113
P 6.177782003998405 8.504340971780584 10.461507328148937 -0.1088355681481803 0.10530801461089606 -0.8311872584217685
P 0.4422707039786274 0.2838301714157377 11.950575372957418 -0.13255039526661688 0.45282448853788465 0.09814594964481807
Ni 7.415790834345246 7.761462247538134 2.8692994323820153 -0.17911024530402703 -1.4061165214129137 0.8440340324774497
