# total energy = -340857.2542564595 ev
CRYSTAL
PRIMVEC
9.41067780154911 0.00000000000000 0.00000000000000

0.00000000000000 9.41067780154911 0.00000000000000

0.00000000000000 0.00000000000000 13.77347820845757

PRIMCOORD
 96 1
Ni 6.1924989804833 7.062102084283498 7.064307006119963 4.057843564299463 -0.233709677816462 -1.1892182587268356
Ni 6.317228105624177 1.981399414528536 7.9888101227651 -0.28166640820139877 -0.34654305427012577 -1.0558739068040137
Ni 8.091865515590301 6.2177007759508784 5.685182508809132 1.004801770718547 0.14003436234848785 0.8372527478895581
Ni 0.7267480719191789 3.0472998490450105 12.115950443528275 -4.7385289851825165 -0.09821331254764375 0.7839594357830564
Ni 6.4813691498906 -0.015422218973960164 12.323048409292399 0.007496051266729025 0.6715559477779596 -0.38082280138860225
Ni 5.318454036705248 4.171480611914997 3.5454719649851083 -1.214357734106941 -0.5297632079774682 -0.8696447910670184
Ni 0.7428930309573324 7.812528362915138 0.1699389629324323 -1.0137340402111703 0.24135870972128756 0.3424794257237134
Ni 1.5460896860208015 4.1635850531408005 1.9352146305045523 -0.094264869422857 0.1394365808634889 -0.07036260888396269
Ni 5.32675425462997 3.468267704403907 9.417739691895427 -0.9873524648938481 0.16804575995974927 -0.458237689133656
Ni 9.509019503440353 1.5403209404563412 9.75663608405332 -0.5661026658384508 0.818539487750771 -0.40191227506904975
Ni 7.2566678502626445 7.413694422022164 10.443739793102349 -1.3006799516439536 1.654166784221764 -0.2509044444281937
Ni 3.5093547241990684 2.3027458334349418 1.5338285137598955 -0.9099422051344844 0.8408198964155261 -0.836490930022869
Ni 4.294939295536783 8.80295516051975 4.903620061214077 2.3851046735024664 -1.047762076330157 1.1545495037000568
Ni 3.5674750710279537 3.229349413391642 7.931567792186075 -0.7273422015096441 -0.7932138645017888 -0.6586333261790205
Ni 2.900314470625262 5.438957767460411 8.187740561163166 0.7643210927268386 0.09663491231693036 0.8651980681495746
Ni 1.0738336360023473 5.241380584547125 -0.0665062019226714 -1.570265260311102 0.5492850800604798 -1.0559826644677361
Ni 3.512601408081187 4.5320977897781605 5.574127098684832 -0.9454941340971653 0.16454057501996824 1.3421490174220174
Ni 1.1157582061323157 2.110372755410965 7.365959699344891 1.6301364827454374 1.08800189768681 -0.036692727435343256
Ni 6.041551706659576 8.830490804111284 8.401683854045707 2.757675005074289 3.137304814596055 0.7796795774607798
Ni 6.024951270810134 3.436788986764234 11.530453823972683 0.7601204243819296 0.5057982125214386 1.3111371424215355
Ni 8.440728756732405 3.073452122982425 7.890384783476138 0.9493592734795262 0.3680976405124499 0.7141239030471572
Ni 2.6522207686417913 7.387768004354809 9.718951965393737 0.4193788072849294 0.8950400912116715 0.05901864462605319
Ni 2.956778538140371 5.074406926227027 3.4238521278287304 0.20748211157850074 1.9832759592861584 -0.6511614432820075
Ni 4.239359831746077 8.078568227690495 7.316540465320083 -3.69177966638759 2.781686023276906 0.8091508474470194
P 4.936474619965535 7.924449555408003 9.76753082588036 -1.6618821505881507 -1.6918954091207896 2.3724687299060108
P 2.075826156769637 3.1719066353729373 13.703274896987567 0.6521019528184059 -0.007058706618994295 1.235012177132499
P 8.344090505180295 8.879859220475328 8.443707236293827 -0.9415035248805333 0.13674309319172578 0.7192956770560839
P 8.010585490402303 2.667842493987638 1.3030909250627773 0.7715140109308519 2.854922354164238 -1.5801974318231495
P 7.137989791023805 7.489431557915764 12.938474748902165 0.9252343554068646 -1.4335687040865956 -3.6706338855479106
P 5.11189906705706 1.97396497897238 3.0776144658260804 -0.05924438748361409 -0.573774837671728 -1.3572269948010625
P 7.035968631701922 5.108370062837365 4.297656158252051 1.1558661656289515 -1.2485999431192625 -2.105206412945084
P 0.8351920189209058 6.709634553498348 11.794395107572063 1.7232968062502063 0.13716321144827992 1.1730334214368572
Ni 3.6770812367527004 0.14246166554399634 2.9236407179835457 1.3028157670400338 0.2035969175914816 -2.6055777980239965
Ni 1.5477083226229014 1.0465614913925494 13.575608699268114 0.23540994833702036 -0.40353798359793086 0.010738983684058926
Ni 5.310963137081578 6.392400600842626 4.942061739446155 -0.05065484604239018 0.9652708025034602 -1.2645649510889512
Ni 6.5514410576768505 8.21184224838199 0.8634664007290966 -0.8403447565513205 0.6994683579175114 2.618311186430265
Ni 5.910573891380361 3.8088401382992076 1.1130592237050936 -0.6204542440061378 0.018919976832954512 0.26405023778153236
Ni 1.1014822077289124 8.983376677586362 8.047980701249768 -0.7692018178579074 0.6017188723801636 0.7830297248799354
Ni 1.500711397094492 6.971797218971 7.277052319703392 0.04367841472455703 1.0186625878610394 -0.46398539025071056
Ni 8.38595861124275 2.8671135989263776 3.8579516431560577 0.9375190863114886 0.4447481392876534 -0.8586677232302244
Ni 4.55761954829499 6.88406146873044 2.7393937603427845 -0.0029439131196723495 2.261152561427822 0.7384740497567476
Ni 4.5699193043353645 7.768269944661212 12.49126427709783 1.4963853823025004 1.3666025224786915 -0.6889438042371039
Ni 3.030840573364356 6.52662510000396 13.398826291352849 -0.5686596279323497 -1.2684110643079187 1.0371801870492525
Ni 8.543211039272327 0.8235886530465507 0.23596427921343333 -0.3938963467431087 -0.1142996765865451 -1.0878494312693456
Ni 6.515671070906029 5.852237098959334 2.1086647173686326 1.1779061761481264 0.03926408770694528 -0.16379598354445984
Ni 7.558637683333449 4.490464950663687 9.497185575956976 0.418592306827892 -0.5513180513301086 2.0404146132806797
Ni 2.7889202760958702 7.122179852119574 4.773364044931262 -0.5527383287164028 -0.3913468408483776 -0.15706483546821337
Ni 6.577047512294952 0.17768959726667297 6.162378223667366 -0.25842209296147756 1.1883060313252116 0.5089814953454267
Ni 3.0484385410732315 0.8124633496104904 8.187313316385636 0.022304834144787393 -0.03710667504431029 1.0797977646094628
Ni 9.362269391968583 9.283840802190097 11.734714470344176 -0.8821282682460098 0.059475786768129826 0.11628893910243197
Ni 2.971957961624016 2.9018578218040085 3.834095574630924 -0.7675043755508265 -2.0594297209306016 0.6004389772264757
Ni 5.871293721745683 5.755015385376235 13.130339650318506 -0.26852241462027304 -0.47678562733917235 -0.1744930582469898
Ni 0.7968115100953022 2.0519418562107457 2.0509396190123526 -0.7158866513745349 -1.5114175940452745 0.31585102450290764
Ni 5.2230956373501485 0.8230597729474926 0.9867180494366609 -0.6528856250619659 -1.3407737343410457 0.3562633668816832
Ni 5.642802461867874 5.871124329543138 9.001408477547312 -1.387191916594269 0.1365626017498035 1.0591898585511244
Ni 0.876289390461778 4.818605879027745 7.051208283524249 -0.7076403522053427 -1.799126094675695 -0.1395309403495081
P 7.081892739947544 8.0408502305904 4.963203768459395 -0.32056231393564794 -1.5011290676350728 -1.346970864290693
P 1.4683574864083344 9.359097993509819 10.097680933980165 1.4921690302283075 0.06418064844296688 1.3008293327376241
P 4.410850615467383 6.170148620425237 6.874218840694764 -2.5633631123291596 -3.9267574122831994 -1.0238580160190496
P 4.526658417940872 4.90790380180289 11.130899025151102 -0.3113863038633347 1.0915232805765072 -0.38049549995617055
P 1.582000832960411 3.956220765191562 9.298984465097648 1.1382615651733106 -2.774551469114654 -0.7611771477812181
P 3.5972692773200934 8.559209191734942 0.8082803032754128 0.18172968520474508 0.34053772861631026 -1.319963482463914
P 1.9100100118335996 0.26650287012898016 3.818325160573954 -1.5519060410776242 0.5445542502437137 0.7642308470058774
P 0.9100737241916517 2.5537662562512793 5.192146740877325 -0.08646002866645754 0.3788235115703863 -0.021344270003730983
Ni 2.2211928985872857 1.940227698632102 11.135540371500843 2.174326664781513 -1.9186289127297342 -1.9546935196627757
Ni 0.6766117442369295 5.73082053244601 9.674174077718671 2.1286466462458953 1.0166717826832554 -1.6560714574436448
Ni 3.031348749971992 1.0460439041069942 5.639908678407726 -2.6020872683722347 1.6890031751746588 0.2563253583334489
Ni 4.075783428154805 3.944918541010621 13.06119657644288 0.40150192700450854 -0.4966543412386414 1.2591612635748768
Ni 7.5917162162193845 2.513243877131269 5.918615315662304 -0.750532009362546 0.7413176898531297 -0.7701780657282478
Ni 0.5328401123265827 8.02792936980736 3.9712242089981182 0.6220452426423415 -2.343671088948028 -2.522129816710985
Ni 3.8537761253633156 0.8082614819195744 12.544291565036852 0.456878089781968 -0.2624762084261931 1.3073969586528131
Ni 5.369770463398564 2.2204024016420743 5.163304895190607 -1.1646683373016136 -1.5236048801400857 -0.21642209438060792
Ni 7.0458780755508235 1.2308225650501892 10.202029353951461 -0.3571740516214107 -0.23022788991544865 0.21411041552829577
Ni 0.8995290595832051 9.063800331083716 5.742631874302379 2.330010817852116 0.6010323878361004 1.3609208987128822
Ni 6.075825395641247 9.01123228422715 3.241230394264613 -0.989816095942992 -1.9690955540207185 0.9633517311038764
Ni 2.3223012221510078 7.22394692313764 1.930821726051877 -0.27509466852115205 -0.11315450723850835 0.4260053114625114
Ni 6.363086339124365 2.1818562648850928 13.4024070543011 1.0618740902515067 -0.5577334679381492 -0.6732575038500985
Ni 9.345038440698556 5.26487904731133 3.525280414441705 -0.6184963489488187 0.13138439998297372 0.490843133873503
Ni 8.457442120716877 6.6599273527292135 8.22929529165091 -0.34227785123586857 -0.02078376951457066 -0.21096158548666893
Ni 8.349398127526715 0.307604947008812 4.428076861398451 -0.34886604597634757 0.8049833463328911 -0.5916018385508198
Ni 2.30357397309183 4.434829022805466 11.601689832617538 1.076506752563017 2.151814085501294 -1.6080291093234371
Ni 8.792810449722868 0.8437406787426932 6.746759677889532 -1.276503097287434 -0.47301690432535953 1.5640653021479771
Ni 5.757424518923546 4.254068721333763 5.887556314257827 1.1543147619814313 0.8371213645180163 1.6770316046350793
Ni 8.569805615071944 5.771954605630768 11.102567238207602 -2.37560547576278 -0.8834318175487818 3.1576478970287813
Ni 7.24194954999704 1.1780380726014812 2.3782392327704347 0.13595427874184327 -0.20907465287660124 0.1959093191392368
Ni 2.130379856667152 8.440502900462345 12.069657436708221 0.646865387009815 0.3216496334625557 -0.5857901169650491
Ni 7.940560636005649 4.312104372061376 13.123384218268438 0.30903862956676453 -0.7722156649835669 0.8793720456571114
Ni 8.206139377562964 7.507293024606376 2.59774705950659 -0.6774496875545752 -0.09177115646672583 -0.5321250233414254
P 4.68819270442368 0.9663542834873368 6.892234642503252 0.8936776636465061 -0.029064521466124135 0.8811052262981343
P 6.970639705586941 4.728404531172357 7.550786354745473 0.7738043496269253 0.4274214750837478 -0.7125727565099534
P 8.074973348725365 2.9589053513501065 11.154672279710546 1.284755052883581 0.23524128396964003 -0.08595712088811003
P 8.763562062750042 5.611530779142423 1.4059693971430982 0.5005732166770733 0.06598504864155733 -0.3472063988857375
P 9.201158585992138 9.30631350106111 1.9837247930423667 0.7668536293407051 -0.2699316362629738 0.6378109901170306
P 0.8679665869100508 6.263766044365288 5.325005750672585 0.6376991471295146 -0.4416543308536781 0.034549198729779206
P 4.0854199623440515 5.297364707488356 1.5103723990463271 0.25679792709449323 -1.1847273128350175 -1.204448702523345
P 4.888837768338622 1.6582179134278892 10.92977872200124 0.5248359458791799 0.1315674625280573 -0.6392536361008282
