# total energy = -381173.03946744814 ev
CRYSTAL
PRIMVEC
9.26424340439309 0.00000000000000 0.00000000000000
0.00000000000000 9.26424340439309 0.00000000000000
0.00000000000000 0.00000000000000 13.55915666640261
PRIMCOORD
 96 1
Ni 1.7780584570255946 8.517916018734272 5.018067340264509 -0.18819549543474684 -0.5949123909812916 -0.21318661816244572
Ni 5.725774942676777 9.078134085784738 5.972171394204083 0.8319251650290577 0.7322656069531904 -0.9311355513826481
Ni 6.968008085716084 9.043735949769816 11.115078120963473 0.17183145225442667 1.152962618828911 -0.4848581199346617
Ni 5.306493811579723 0.5595908777673496 2.241274336368587 -1.2469282118437943 0.6689660755635962 -0.4000376837541562
Ni 3.0968698366119924 7.147095176290947 6.530523642619104 1.0496919463630179 -0.30753787665152194 0.1148421793535764
Ni 8.957541428497843 7.552813454943658 11.322465622499386 0.44555160902555524 0.4608728127636579 -0.03027628238603818
Ni 1.276177331124056 1.5476474576107988 9.193650864072826 -0.12342195060278745 -0.4852499560564417 0.03989940729809903
Ni 7.190581535152796 6.376402761779392 5.049375851081216 0.09150813261332627 -0.6997185262551047 0.11283106246081857
Ni 6.349351170838489 0.4960122276614486 8.313688550646969 1.8009145540346856 -2.033769082939704 0.836312752573792
Ni 8.96580513367568 4.66430571828093 4.843954222010253 -1.2874644813949438 1.052915081286006 -1.0976995845905482
Ni 4.2202797928677285 5.572840811425945 9.790551629578635 -0.7491965783805743 -0.37751276317876276 0.7827438182084004
Ni 7.978032966106849 1.739778602995522 9.743311399261561 -1.5466481351127945 1.441511613082756 -0.8358283567382057
Ni 5.939186055318779 8.307478728247075 0.15276552201962543 0.11574103701876196 -0.3945892590450753 -0.17268557272460583
Ni 8.63434903070183 1.7686181929266973 7.3430153972560905 -0.16260350589825545 0.20533678310072376 0.19498269355990935
Ni 7.462477816839292 0.9840942629100845 3.3260607351614055 0.15134618781688128 1.1796815228809943 1.9826828057868497
Ni 2.7001656668584246 1.5829071682687021 11.346437778909893 -0.3696930100240278 0.21615572809309871 0.3070156855994648
Ni 1.9425821568610402 8.887494483599154 12.816928911180892 0.3247547547504407 0.39070380794774 0.2980826447758931
Ni 2.7623009478312457 3.4172366401487646 9.737359122830215 0.49751746056988505 0.36813749261144985 -0.38812242037380895
Ni 3.603040307241489 3.9455023314611566 5.021131952005349 1.1002573180153956 0.7858206573615112 1.4077753971725755
Ni 7.963404725663121 3.3508305429349305 1.7113688739614898 0.0403074413697951 0.06588837516269298 0.1452624435166466
Ni 3.498956531823322 1.6929200595095328 6.037702946834075 -0.8054312325035871 -0.8255223468265072 1.9146758416192573
Ni 1.5888455483348385 5.8199922987962935 10.115469955933648 -0.6945917465515006 -0.5641244590661575 0.7231621019900256
Ni 6.32718183620781 5.624655725169942 8.031684979331525 -0.9383189565049647 -0.10103252716399373 -1.5835061844814082
Ni 5.703448115907059 2.2037041233885395 7.125024969065428 -0.5629242681104693 0.2559067827387915 -1.8490281217124607
P 5.643147155141874 5.2999903126617385 12.713119357369523 -0.4708425223818601 0.9560868220113471 0.0266962783442637
Ni 8.992300870008208 8.984333620621504 8.961043312530602 -0.2661359166659675 -0.2838230495330854 -0.45927178682512515
P 8.275628259187204 8.78918233186461 13.301288573402113 0.293545676137488 -0.003835828806322426 -1.4099490077851264
Ni 3.143997043158696 6.723913798691797 4.0157206648640935 -0.728183723574333 -0.49050426247684553 1.1301433069415505
P 1.7965313585105815 6.275209430324773 2.162563470974032 0.5970829162700491 0.37635396698397117 -0.8096087609200444
P 4.026925767344581 0.04380875453470659 0.44527196616030923 -1.2566960898638357 -0.24346315765880006 -0.2312136508674857
P 7.516719962373193 7.4126454511984985 7.210217099193634 -0.8198980586611944 1.509487209791781 0.6380966396782495
Ni 1.0122575630677373 2.5524473046828415 12.949876363563263 -0.05481797628114431 0.17092745238291854 -0.49203072642370105
Ni 0.9449157772631395 4.297098899745115 8.207967783407137 1.013907589674557 -0.16982830578146882 -0.17119638977358903
Ni 8.884381697792255 5.393234923216599 1.0355710317673206 0.3788865035978378 0.9499202881893191 0.2801846814495497
Ni 5.3755865394007 7.632032000880529 9.110736811414611 0.17278044643125728 -0.27434956282501133 0.28406601878182686
Ni 0.8381787225143303 1.2749822437160505 5.528366884209883 -1.5723319130321438 0.1511574688448429 -0.39584447160841507
Ni 7.1839668653131366 1.221416387955673 0.9957597982911754 -1.1884142747683015 1.296438145648464 -1.1013976022674257
Ni 8.148615481173579 8.64061165928952 5.611172545219466 0.9476798288945742 0.9673369410038694 -0.5880879118602904
Ni 1.1059005360919325 6.305447921020358 12.672198267525323 -0.7913091912799082 -0.5353653846555941 0.44302704283148864
Ni 4.395179445392835 9.164680648308684 10.91423951313856 -0.4315383254655988 -0.4560028862658662 -1.0886981524228863
Ni 1.3570541766425785 3.521737306523213 5.838152995276243 0.7887198332861772 0.13834977555721334 0.3530512877022887
Ni 6.659008508920575 3.580694951984825 4.136193813410189 0.543443019457406 0.2620347500134003 -1.851152110033999
Ni 3.2366765348617084 2.6513986892170154 0.37901872896377853 1.6401882105544847 -1.0331720943311238 -1.1800137094094323
Ni 0.508121520304892 3.2309512323954483 10.770037857785294 0.5168187320016583 0.17319285137832752 -1.1422750572080778
Ni 3.2582714863970663 4.705188824726892 7.376208255195188 -0.07723722451660892 0.34249536656331336 0.7871946548909023
Ni 6.4775312435296994 6.334574702499194 1.6355595696226504 -0.23979085101353542 0.5973163724370939 -1.60820291589714
Ni 3.1606078317056276 6.405946434214509 0.25198742246320827 0.2445671893562562 -0.006121796627021715 2.263780228858656
Ni 6.007426472740249 3.2152298112219166 13.25833305569126 1.7124806894713087 0.059884335060458156 0.6772080038574143
Ni 0.2662914143853845 2.898939274813226 3.521136983546168 -0.6570477268594554 -1.3417150152083925 -0.5628088255785275
Ni 4.323131423903998 7.439243094209229 2.2703862950578664 -0.5111599910539841 0.9570522712484097 -2.2378437114985523
Ni 7.197214733479401 3.810679796199867 6.345590814412834 1.2808022388834202 0.3499549081651521 0.7309903397851927
Ni 5.108461343102755 1.809417921181402 4.461002821692223 0.9755001935409524 0.28308077205042215 -0.6484414732476832
Ni 7.68758040474411 8.50725287449695 1.8109205814727083 1.0740140680481502 -1.898791823399149 0.7397045797297389
Ni 2.589893376800352 4.509166697083545 11.868831792709154 -1.1468770747564636 -0.007410176421142078 1.1452289976300793
Ni 8.094197315013693 4.051216613730556 8.687188569773932 -1.295540316424543 -1.2968117269377988 1.259909711705127
Ni 4.663833241863812 4.630815478126354 1.0703397375211594 0.030307135623973615 1.0497875914006176 -0.6081813401760557
P 5.863608357066763 2.8300410961051785 1.8295509750967345 -0.7031936292878986 -0.055355851062485306 1.2905582898289192
Ni 5.217223561474742 5.513966544155589 3.341111425107499 -0.05046869817351308 -0.4296575635031181 1.474976577609421
P 1.7142463479841765 2.5740607847051455 1.83734683597919 -0.14089542479720252 -0.23636382760985744 1.343601433597828
Ni 3.870841793312958 3.418496577261081 2.8709075269128883 1.436466337349365 -1.5198731810117954 -1.3437006781798535
P 2.2972822467084244 2.6071433981469143 7.664421648910524 0.22978900260581714 0.052457703579083845 -0.2625332869163737
P 5.170411339206118 7.1465115289521535 5.170580874861671 -2.442002158020459 -0.44595167267745134 0.575270448380648
P 7.877784587486468 5.57902932606585 2.943163993879866 0.4276307628810765 -1.0589630872522988 1.7465287801949534
Ni 1.717637061095262 4.4107526386708 0.7523566238299675 0.41592607284963845 1.2512859745918579 0.23866265094636316
Ni 1.3978168479233917 9.172175421278268 7.204007276793741 0.5407826990164235 -0.16128401575588353 1.2796542413219059
Ni 2.0046618523730237 4.588283336342214 3.4270363568944107 -1.4546707761725333 0.1081179732558654 0.29433294792547376
Ni 5.183075560033589 3.607598315030162 8.953287287895082 0.3375660475824961 -0.2354174045361881 0.13812608958218148
Ni 5.272475509547189 1.159985189486793 12.582463878822349 -0.1591713402882549 0.30514855048373896 -0.08380330776990083
Ni 9.222915682779409 0.699697737505588 11.179185759371675 3.2226351005334433 -1.2713642333989716 0.9142729712993544
Ni 7.582218163726681 6.164890819049337 12.8371045806162 -0.49821988595354844 2.2405672810773027 0.310883138974671
Ni 6.077399303691155 8.106898592815057 3.5838346040977953 1.4321096030425657 0.2589445411238508 0.0035920882266325237
Ni 1.096367629558306 6.7556994180473575 7.8980186216556545 0.6404890511698259 1.146304232972129 0.9051291000165573
Ni 0.6805624426122882 7.909662849276758 1.2585150509429495 0.20770271222973904 -0.27184710811813184 -0.7243859470947975
Ni 0.22569549948708384 7.1553681457122575 3.6038342529071175 -0.5182914598924429 -1.3373711364174 -0.023553876060540078
Ni 1.9780364166318747 8.336939022490935 10.167007868797805 -1.0900927187775677 1.6634451241998964 0.17186281971299436
Ni 2.377399424262168 2.0160846645751245 4.074743160030017 0.3730557558486736 -0.21934518156467384 -1.5843438498913553
Ni 3.1437561728284003 7.0970126760763845 11.792154428756904 1.1511643892779078 -0.05562890221821388 -2.1367579624991198
Ni 4.633613279655173 3.8635415694563036 11.499629456129274 0.6372245214859412 -1.3762631854969072 -1.0458766863819857
Ni 1.2300969840897917 6.178268386624222 5.647510613817616 0.1552547788426681 -0.5560997889894681 -0.5258381618914493
Ni 0.5223476925818958 0.14000495306003635 3.261411138510036 -0.7938553547405296 1.0345651180239084 0.4638110694563754
Ni 4.221725014849503 8.854773175652829 7.582727697117692 -1.3555040985726847 -1.105421378714838 -0.4992521838728047
Ni 0.2709717101878997 1.1463296946077206 1.0470031082128939 -0.3714544727998248 -0.7421967500239735 0.2726937723891433
Ni 4.027379715274754 1.372831183276948 8.724585541401037 -2.215774904623971 1.4228857704514526 0.4407750135725183
Ni 3.804092919090627 9.205304355937402 4.099502777135721 -0.006062147033679882 -0.8241614619232386 0.17246291519083845
Ni 8.285003673581791 4.1571810305737245 12.239538642429036 -0.4116444147551492 -1.3959480655203442 1.9992792766929506
Ni 7.8499548000938395 6.963079508188495 9.32468617660239 0.04317524983589338 0.01597143572759185 0.13819679491911682
Ni 8.584025660156973 5.663648925947429 7.035331343033736 0.35880438813598203 -0.7889959697656992 -0.9087504988192284
Ni 5.754846138694775 7.212852776461676 11.432334917966388 -1.0151610024656839 -1.6463917682620357 0.6868990058929332
P 3.0573578382000224 7.030717749784225 8.96972112939168 0.6998583942670785 1.116351909584413 -2.0221314987007757
Ni 6.4905938268265055 5.18142652469541 10.30737227450459 0.19350302369058933 -0.29789289736259017 1.5277345860377431
P 5.654449532178827 1.624744491792373 9.984596767664861 1.02021193462603 0.3300088040605284 1.7369588771183313
Ni 2.47163530886863 0.440725075463804 2.0407210672426395 1.062920272127834 -0.02775505862608123 -0.8844839129623799
P 8.644437791843833 5.226413690999871 10.528278160116178 1.118539404154035 0.6835370313992357 -0.78934126892026
P 5.19609182211303 4.430402099076847 6.462226713312449 -0.2817270862360051 -0.48672294105754244 0.27931513436040284
P 7.393394353261788 1.7416221874466316 5.5292886764354385 -0.48078035032086236 -0.7074176946715752 -0.5073349608809392
Ni 7.775664831684558 1.7774099599824909 12.414248377962949 -0.36467293110161714 0.4812809441063647 -0.11045844846358396
