# total energy = -340893.637966386 ev
CRYSTAL
PRIMVEC
9.05549673332624 0.00000000000000 0.00000000000000

0.00000000000000 9.05549673332624 0.00000000000000

0.00000000000000 0.00000000000000 13.25363481286712

PRIMCOORD
 96 1
Ni 6.171801026086175 2.0442331302684074 11.37432249989996 0.8883423674765217 1.0030130542492404 0.9239125512716475
Ni 4.686726713633506 0.3775426790868611 6.2304806454980755 -0.23219375539256784 -0.7940517870220518 -1.5639773704198614
Ni 2.7668255547424723 1.7189506288957457 4.869955636346527 0.2643248315991577 -1.3550544126297759 -0.45142529419751287
Ni 3.447445751442748 4.097123315499434 4.7442318351074855 -0.9975481744799272 2.015663888698561 0.5528514572554994
Ni 5.020829268911598 4.450396357551445 2.9734529756959884 1.7457967871249354 0.29821119993395745 -1.3521938032525294
Ni 7.254702613643586 5.761994517369275 2.4800732868012445 -0.25918185394563753 0.5173434941568767 0.09947495286888675
Ni 5.026778730324193 4.522469056764301 11.629614160779335 -0.3131688496850542 -0.4238000762810766 -0.991205777201667
Ni 5.689604875767619 7.790253751242221 12.732038493937068 -1.436842746852177 0.4353168186714244 -1.8350852863791236
Ni 1.9673066847585172 6.369111246358688 0.34980569231855113 0.32868854258720814 0.7463174570605663 -0.10463644246516818
Ni 2.667260367175522 1.4592389800171532 0.403531954968366 -0.328618351470905 1.202655100958032 0.0764419823088232
Ni 0.7174380356825136 9.08773439151327 4.667506421627062 -0.3501868216703001 0.18197214023285435 0.2921189709932904
Ni 8.61014748907753 2.2765156792706662 1.37776848620157 0.2096446664474583 0.7624583284864869 0.02969701284380047
Ni 6.871510210088965 0.42458326843238503 4.642973269634667 0.5448311580541843 1.9781774617173287 0.7306082738554256
Ni 0.9060749010981253 7.268820133190368 2.4622339580602817 -0.0910209085642626 0.16161697361527003 -0.1137360907735912
Ni 7.797353260751315 3.6505062121977536 3.664669914778333 -0.679078738517566 0.8077112867870153 0.07192455405444388
Ni 7.623632609702259 3.7782973833614464 12.789479321383608 0.8356218971543544 0.19872133466673517 -1.6446202781839094
Ni 7.827046234833356 8.834261979945602 7.064293587499747 0.08946719092389753 0.7371728144468207 -0.8125740141959555
Ni 7.126748443537083 0.4278993913689032 0.44682537972860537 -0.5483939357047781 0.563773503484642 0.0016727597167326032
Ni 1.8610857070267917 6.364456720991757 9.003445827086423 0.34265477495931307 0.2824328540537781 0.9678051388895397
Ni 0.31463323710902036 4.872183288564941 1.5219012069317308 -0.8511858130308825 -0.21215406313287333 -0.2950369159710338
Ni 6.394493803953064 2.053813845906955 7.015559620248355 0.5275638863333043 0.08326003367192111 0.5885933907417992
Ni 3.5792122857116606 4.331878015134325 0.4237900069107056 -0.13391565104525968 -0.590880387003763 -0.4709255690139696
Ni 6.080503507118465 5.726044194982664 4.7335490655056 0.45758488604100545 -0.8537165498725361 0.5148605798340229
Ni 5.3595772940597985 3.0293806296234322 9.103259135266319 0.543231160556916 -0.6595440109187479 0.486436263055059
P 0.34617353254291644 5.642851345671379 12.43744959904537 -0.23969237776245816 -0.5089604122995041 -1.5585909092969674
P 4.018883822950235 6.262283550339833 12.667254564116904 -0.700990965209625 0.058431404664015495 -1.3165971370948422
P 2.2524552242124227 8.566907491748545 1.261631739448852 0.42059571041116595 0.08405964675508104 1.1254325317294425
P 6.260716949389485 7.743898663006185 5.700759436753974 0.1488956693938597 0.2228827624042871 1.4927747821331065
P 4.8229938298233614 0.8203392682789921 12.52734894930364 -0.8255364878938943 -0.021600351878595055 0.9690030158523829
P 4.009918881095639 6.1208729119546135 8.133941549907272 -0.14169786609383983 1.0038332361576905 0.3878372850332224
P 4.6544982004410755 1.1168687561398227 3.8073718670104877 0.30522619779920984 -1.5788843694386807 -0.09548665764510006
P 0.17205081743492714 5.684452298075433 3.702230304500042 -0.3663606032166852 -2.0813604595654223 -0.433864145385298
Ni 1.526965040755054 1.312277322079542 2.762097679851276 0.6240170216567318 -0.16568420170610823 -1.4763914556790767
Ni 1.600178732567586 6.691342045302058 5.023075032123659 0.9838904744871766 -0.01949873215455997 -0.7334310880162014
Ni 5.865987842882586 5.742914585563584 9.361572615435467 0.16197152874121137 0.11779303445178423 0.12042892941273453
Ni 8.468854572151006 2.3761623663090217 10.281732436291813 0.7131306858959524 0.778296323960008 0.24930213293808035
Ni 2.3117415619114516 5.329051214270059 6.91617101486945 0.6731050374326343 -0.6110738312325025 -0.18800163425638589
Ni 0.37384079198569065 0.23081374741759675 9.162702133060382 0.6365452360307295 -0.0005155061838378218 0.22610152645190093
Ni 1.5093611549314838 1.267262447373284 11.386463204490322 -0.8936025874341965 -0.16656429031821635 -0.05214737142751664
Ni 4.199061043233964 6.774362840173709 1.552464414258444 0.06414465299870888 1.109643901436618 0.766425540664351
Ni 5.807887775267347 7.942114432960979 8.059681042662021 -1.2996718220944135 -0.11358362435612697 0.28582105379972067
Ni 5.245215424684354 2.835991439475202 5.063856462065247 1.168966193346019 -0.7679864573935677 -1.0238891263673011
Ni 0.8925206334537223 7.7329415118505676 7.21656448322458 -0.5174630504538765 -0.4265457573470138 -0.16881966201129636
Ni 5.220783694256375 4.6064678452928165 7.142768522966341 0.3048125073005589 -0.22912462954894092 -0.5641691962611639
Ni 8.078155161730264 7.306454777986025 9.087076056894249 -0.7226995605313102 -0.3723415033904684 0.11624754434153527
Ni 4.699205188255357 0.4077699274814477 10.396019145043628 -1.343957017165034 -0.5935206528400875 0.07910333119107021
Ni 8.168474687041112 7.250374086162276 4.67882488710591 0.05301948961982482 0.25357556350245364 0.08978960726032278
Ni 7.347784065485394 6.339499771748054 6.952804121716502 -0.7348966168181343 -1.0995350951373903 -0.4249107928467521
Ni 2.5305585871381706 5.236476870250329 2.444460734446125 -0.14033723830088737 0.07275013527953277 1.6428886402047835
Ni 2.5605413371185413 5.259188056281971 11.357437620524124 -1.1374249282046283 0.18457358241144342 0.11315656412103736
Ni 1.1806647312566179 3.5300771599510172 3.959033327799144 -0.17771285073586812 0.4089241876105087 -0.3038416587468573
Ni 3.7226241888947245 2.684927641476852 2.6514431308750956 -1.2153455519415068 -0.723806934662876 -0.6891536062550648
Ni 0.9014303367776988 3.4989986948550853 8.15733370929999 -0.1512718829355201 -0.30443249825332086 0.271339572354094
Ni 3.8672042511679323 2.5595180659775623 6.972207334758767 -0.7179918706429956 0.6830467220263784 0.9659536875030976
Ni 4.24102421551093 6.791975781494101 5.934832257478106 -0.8309977681187818 0.7084260813314316 0.22450178606494883
Ni 0.5475062045041273 7.401863492511299 10.814966272253486 0.44399197784791916 -0.49650084637991276 1.7959487253889779
P 0.042909471694951594 5.663244324516379 7.932591672502098 1.4884242184738947 0.25621145846340393 1.275957252086293
P 8.360505552665916 1.7007490802818697 8.034114658482142 0.389846087933135 1.0033339279237687 -0.3237553669516489
P 1.919928325381502 3.288440282730781 10.283336164779135 -1.7137359020346485 0.8443019414268556 0.9740914861188836
P 3.984165048131527 6.159159552521514 3.798186876583097 -0.2106782499182952 0.27812111405230167 0.2389580706995949
P 6.885365120227886 4.0310091331959965 10.607069270645411 -0.02674770040748942 0.3737890344702724 -0.6338522625795987
P 6.336873677669435 7.802859002819591 10.425587153269513 -0.5014180811758719 -0.7014036272670114 -0.8557027270646295
P 2.4668260004991356 8.52196506101687 5.904560637149087 0.30931913692166085 0.722879280642284 -0.6035955205775863
P 6.731385452252586 3.676477377085613 1.3758595874713186 -0.30194161351066706 0.42917985253575114 2.7900187115123174
Ni 5.0724727672921635 2.4733187917211006 0.570310662153045 0.35712622910261077 0.9119078135012875 -0.3852864935869107
Ni 1.6613033361216483 1.2591396667232109 7.001179491293711 -0.9390697186280602 -0.15741476260846438 0.3195289875751271
Ni 6.807487847551599 0.8422200652519818 9.411154177189474 0.10004368088816318 -0.4893629497835507 -1.5834624757276665
Ni 2.7085262661971314 1.6846665179245341 9.20096522933554 0.6881297929762408 -1.194127265992679 -0.7784485332671561
Ni 6.37793130026412 1.8122675236549473 2.6404950352163015 0.3379889940525276 0.3837708282733326 -0.32361112806430076
Ni 4.093863336643217 7.14354639014342 10.246477576061194 -0.6417362933133657 -0.5061496823235864 0.5137151533756701
Ni 8.174541869912403 6.866891906709324 0.34276413798912325 -0.332661154081711 0.7739131072906478 1.3078384170656057
Ni 7.486613887276109 4.216302709184621 8.499344429953455 0.2577708325307238 -0.9416418502306104 -1.0721291923206115
Ni 2.8929052370066515 8.448488759796476 12.420431603866238 1.7934670966177046 -0.8418066858088276 -1.3787350440761676
Ni 0.037657283537713665 4.919661258407007 10.254376685939743 0.43286321492460933 -0.16858594873393545 0.6107501293444966
Ni 8.508807424133307 2.3361732923394305 5.817722950366616 0.5918010990458195 -0.23285195780185705 -0.2903613648722354
Ni 3.610118696367959 2.517962391057623 11.48874141890539 0.5169837968246128 0.4675278561863303 0.3032127669136069
Ni 1.107487261431377 3.512138220745003 12.59286184661804 0.057342542475210916 -0.1923642821004558 -0.2388701389714789
Ni 3.1956848287745947 8.338781415787963 7.968748460216269 0.43535127145378577 -0.02906015059074995 1.057786293335378
Ni 5.589650301837288 7.819430562005359 3.626101648260243 -0.9352408318002731 0.07706727459764792 -1.626062312676064
Ni 3.058385385946937 8.334099723930564 3.2987372881680144 0.14552649581131066 0.11733563519939147 1.0938868957126773
Ni 3.5503524173373204 4.354217925796231 9.34309668526786 -0.35396171533170007 0.35299035255736627 -0.5182127841357076
Ni 7.052140205213836 6.054242566332275 11.662111622227401 0.9051347564435123 -0.27216206825538936 -1.473396891827127
Ni 0.5989124488679347 -0.4211539517855815 -0.09759833365703267 -0.7449162058376655 0.920274697408744 0.08008394993678467
Ni 4.612969692011604 0.2958439867513429 1.5291510376880835 0.040412085268459436 -0.7613684378564177 0.1763365392136318
Ni 5.795527022104193 5.4330717062738385 0.40344049445045554 1.35715011881654 -0.05520492730691783 1.1715362680660404
Ni 7.800106131785453 9.038653598733562 11.411101400245862 0.9303673057580557 -0.4679106934470457 -0.057331486731617386
Ni 0.1154775065840164 4.81811291703586 5.953175071842418 -0.7098409594010872 -0.3699987141899047 -0.9914508033329377
Ni 8.064046697680306 8.722969923993094 2.551801877134834 -0.23110695008629228 0.15982542893248602 0.11145449382826611
P 8.631482239592103 1.666138971425036 3.5197946433087006 -0.6858571948919802 -0.9651252780645313 1.1479409972446037
P 1.9054576414586293 3.412817531592269 1.4535394503168677 -0.15224530259238298 -2.0956239114629716 0.5452728735772931
P 4.790973593057855 1.014097922697593 8.297504650170167 0.10415461773274322 0.4483073173938215 -0.20713269865888195
P 8.555868841121523 1.7146945453890186 12.498270843455868 0.6442312918210776 -0.46102450785017374 -0.19654052496533247
P 6.341002984220643 7.581959213323623 1.4363358174528666 0.6612622791614354 -0.10514526378078666 2.0391673711371396
P 1.8590391647448334 3.311577077113097 6.125895996042234 -0.242233399016757 -0.234273520739732 -0.16113771998600634
P 6.927962177282449 3.9812672891482235 5.822003483714765 0.5973451687925003 0.281412897429696 0.4344035628285357
P 2.257318026006279 8.579865907702006 10.128534257692323 0.4802707576742955 -0.05087673224520915 -0.08660709576728311
