# total energy = -340893.09277787467 ev
CRYSTAL
PRIMVEC
9.06612386307080 0.00000000000000 0.00000000000000
0.00000000000000 9.06612386307080 0.00000000000000
0.00000000000000 0.00000000000000 13.26918869145135
PRIMCOORD
 96 1
Ni 6.184302198454138 2.0355533048591967 11.473176897838181 0.742496026431947 0.2298324542492429 0.09974440448018951
Ni 4.728563772511422 0.5355957668917876 5.994860102824666 -0.6803169818000412 -0.8102844468308305 0.46145825295348275
Ni 2.58457962748834 1.5521838504965126 4.739502050827286 0.48708443816201924 -0.016345531237558945 -0.19253448912973292
Ni 3.6650349265293953 4.36982632147089 4.958576771964756 -0.9823670958641145 -0.6291548571039293 0.35526166509004625
Ni 4.958816117632007 4.373933275533953 2.633097895399799 0.38631724884427016 0.5932689418405976 0.31697613924628637
Ni 7.240342426210799 5.989298942510575 2.672123025122662 0.2076471764014553 -0.31419754805988465 -0.2137358057976964
Ni 5.317209055969678 4.697593893748895 11.524913639684272 1.099940300995609 -0.7380727005532708 -0.7472340553375647
Ni 5.299058676203114 7.97860595007245 12.535031230761824 0.5998211411368186 -0.5766254197466456 0.33910459571420953
Ni 1.7302334550097684 6.522477680808075 0.3579813363189887 0.5187470593726228 -0.5423240753616143 -0.23072951214221551
Ni 2.456176116682228 1.623552376731471 0.3652777527206521 1.2160184096388154 -0.23081667253938312 -0.03915892958764869
Ni 0.24190503398869845 -0.11147705774708463 4.953759940411322 0.8161198225656848 1.4976087131866402 -0.7162165239101279
Ni 8.557659274593131 2.3135297254499063 1.2703298487738557 0.19458057302548423 0.7814130152121187 0.8695977398791669
Ni 6.892067281988755 0.7703421895599672 4.878218277409855 0.43407343318262653 -0.7183721368005499 -0.48711631984121917
Ni 0.8162602931771953 7.589098074992099 2.560687671544872 -0.24866784178819112 -0.8641369738749117 0.8951028261288068
Ni 7.395146489404641 3.830129040190294 3.9375653265777597 1.3039966747220124 -0.35078306049340235 -1.1238374193281806
Ni 7.606505032610381 4.00855942190145 12.732437009501659 0.8845957559498959 -0.9404773976088642 0.04830768596645228
Ni 7.808235352383509 8.855055332276736 7.154255048052256 0.4155283231905876 -0.33341602996986447 -0.25824442973303263
Ni 7.023562340996865 0.6387410569038714 0.17080667824177367 -1.1897893007389573 -0.19135178167554143 0.6681649198185396
Ni 1.891782714280694 6.404817526656996 9.148800461922383 0.5023601333741671 0.7893320129488793 0.2512733977318382
Ni 0.19901864215665477 4.6942031634628325 1.528039856312529 -0.6047250061963391 0.2941773961842159 0.17027979149659062
Ni 6.477437177970769 2.11993171868907 7.077453193848217 -0.7343811106342965 -0.4332817905192667 -0.15092375556748203
Ni 3.303704564093639 4.38632666671322 0.6118717859177755 1.746510011141876 0.6877233015664415 -1.074573025875414
Ni 5.890668582130734 5.489238754306611 4.927141801053364 0.25614306711931367 1.3917011173185323 -0.2138939286421155
Ni 5.319684107756028 3.168048154279909 9.314187411380715 0.7443737030706341 -0.8003293925006475 0.542279081056292
P 0.22664856092617455 5.555992623547973 12.267988555425099 0.2768515033112587 0.03553495968181622 1.5389029439497368
P 3.999357306285535 5.975182987816999 12.510668742995236 -0.49709477121016965 1.2888487633369803 1.6856059765676519
P 2.393202821048587 8.342601752893506 1.3391136231249745 0.28578505835546264 1.352233655351529 0.11199236860960712
P 6.349586700713987 7.8253884585365245 5.823873008720078 -0.5986356054691496 -0.32292618618213415 0.7961968583895126
P 4.448991714139037 1.1147705774708463 12.518311485324515 0.5680747019631571 -0.5099135202413928 0.5837484039446721
P 3.984361937587285 6.2591158517177155 8.268216927283754 0.10558903618642461 -1.1587524860378107 -0.09161303362230674
P 4.899487403749694 0.7772034320211737 3.7476173412425067 -0.0720299692840566 0.9741310811075673 0.10729419180298941
P 0.26745881041728764 5.622211591487522 3.6016554685513276 0.06503913978852024 0.23846441889262804 -1.2618303257666075
Ni 1.4203170804142626 1.000310765006879 2.473973824234546 -0.01764470966495671 0.3903759922946761 0.9267189103721911
Ni 1.999669587019008 6.4106923748531655 4.802623124278207 0.18553980297945466 0.45776743436545675 -0.124268871984115
Ni 6.1424076405613866 5.7357103948329815 9.307672494847122 -0.021672342767111063 -0.1935567597466602 0.5032430501997526
Ni 8.613098621382608 2.086513986511471 10.245830448420596 0.582314756821939 1.9244164659457892 -0.2250607438922124
Ni 2.3597578904997096 5.2210628134999455 7.09070968000939 -0.9265633586309333 0.19260365180477151 -1.7288236496057066
Ni 0.7032836985602856 9.180175596416962 8.971338342228744 -0.7071646981205046 0.21917266054255155 -0.0055232438110743584
Ni 1.4212508911614932 1.0108093363204056 11.342728069511919 -0.17599483960349688 1.897723787145951 -0.045142143754277095
Ni 3.995250352222471 6.87946536996302 1.8228012984316178 0.8793689603333178 -0.3352016611153776 -1.8866222779161508
Ni 5.5159656871496825 7.804790225354891 8.137701009641672 0.8336130942544417 0.940019227025523 -0.24221617262557643
Ni 5.36763483632014 2.719447284534992 4.927645877534394 -0.26507816482541446 0.12007668827963837 -0.5067610906553403
Ni 0.8360815595526385 7.32666099052521 6.71535039766815 -1.2363393805843546 -0.37739860619840165 1.341064268998271
Ni 5.278614567125391 4.540477968996375 7.153830753460311 -0.904640590415913 0.7346215087798768 0.5155722611890668
Ni 8.530406506572007 7.26159342030312 9.001976400861674 -1.4840302031712571 -0.10783052392243365 0.9017362722849245
Ni 4.713949181011072 0.1593634168325048 10.466789110075293 -0.4884507223819265 0.5165806478489232 -0.5680009113024282
Ni 8.06968422936061 7.096227322929436 4.71312325713658 -0.43175866900652093 -0.4156159978083874 -0.10744151601413109
Ni 7.247695052579772 6.053015660292497 7.092115835804491 0.5816650390530822 1.0306953506558572 -0.96501446351828
Ni 2.3448078524202574 5.334389360493972 2.648238322078201 -0.10400909329381441 -0.127345968247542 0.26368359847073297
Ni 2.2853612789290705 5.316864543266816 11.296179870293406 0.23438536372724794 -0.9948462021677319 0.09459474195845
Ni 1.0393313616678623 3.3812924512276297 3.714337414146053 -0.5348583631121886 -0.08545524155102702 0.5723540460648014
Ni 3.863646499729248 2.298307703657668 2.5842804454042763 -0.38283391828136004 -0.3838783003854743 0.2094124958319942
Ni 0.8025767925869484 3.342607301145749 8.310320006022975 1.1664030606045332 -0.340975073264045 -1.0739042819431635
Ni 3.8928394182349093 2.7042887256090715 6.998953254664019 -1.2507835810341428 -0.7320079824164296 -0.9018450299486468
Ni 4.098966808031405 7.099518325854142 6.014498233500168 0.5345829979636149 -0.10355709335806036 -0.20362237151277837
Ni 0.8762499274815775 7.3746661158318805 11.24448301939186 -0.5001227594032162 0.6141537557094068 0.03314177685929131
P 0.1653534048004211 5.4848688826545215 8.094841816180908 0.45324743500791626 0.29698041285064986 -1.705347163750321
P 8.41860306836958 1.7395896947295952 7.962893450984821 0.5405574703794949 -0.6936478945809924 0.4422117460190449
P 1.949878435331712 3.184403441542087 10.314179955443635 -0.47712269896361703 0.34263703434750026 0.8926394521899789
P 4.150335465252858 6.119588207058669 3.827019359740778 -1.1666426874191649 0.46426666893655527 0.10888878998361894
P 7.182881333822948 3.9136733706342905 10.539199333930222 -1.688890046635562 -0.25759574040544025 -0.3591167771700783
P 6.59353795883521 7.7117989939534715 10.184129129950417 -0.15667351356706566 0.959218168551477 0.679462604219546
P 2.2489607920345893 8.557795266449524 5.732130182560346 1.519732798779189 -0.01544615935174114 -0.7083749163785219
P 6.911378125596538 3.9929928874063503 1.6339013570029657 0.3579654371744545 -0.3023540184577373 0.07565573896210197
Ni 5.2605639147201835 2.8026924328949248 0.617704929944652 0.11105571572795069 -0.12638643254775006 -0.6948501424192097
Ni 1.5776868566320486 1.1667375988604274 6.911283837909439 -0.5875695774629752 0.7680648760399869 0.3909174666204429
Ni 6.792430581871607 0.900146416486926 9.279952821452383 -0.5939816516369061 -0.8997968891703664 -0.32919659257187817
Ni 2.638396138124864 1.4978596369294557 9.121651954324495 1.2608803031485123 0.788967430520609 0.12313964347567825
Ni 6.536430445273979 1.9377932923602692 2.6416436236555247 -0.9590158227326837 0.12766709903238657 -0.531796179247097
Ni 4.3199717069172765 6.798477686419208 10.555997954644242 -0.5394413544971806 0.3179845259061426 -1.1217543115469069
Ni 8.232103836512449 6.976500092561185 0.6940969953547618 0.5161026797712402 0.16538698218066356 -0.4581351021175207
Ni 7.44259858116198 4.036510281452057 8.30988211224539 1.2054100379953498 -0.9186554166377663 0.16949329103955324
Ni 2.8005890921827157 8.60209234713855 12.377910772947425 1.2898946881029913 -1.233831012340204 0.33581255522649905
Ni 9.14563366489318 4.769669577637096 10.140048729619243 0.1979389479747559 0.05472130280227995 1.1938241329299633
Ni 8.618429502153209 2.3559682507682296 5.815620116261785 0.8912132612664135 0.41983440676510925 -0.4481597360723637
Ni 3.828533402408618 2.9626007237653766 11.648078744182133 -1.7694709908134234 -0.06012756141951581 -0.27936398532046725
Ni 1.2871719868819198 3.538127326143604 12.85654317764576 -1.212906346372395 -0.053818074261720215 -0.95495296551722
Ni 3.141638535768421 8.366327798772174 7.987798999564605 -0.4084063674338257 0.4413110885816464 -0.3514080956719109
Ni 5.720950745352479 7.757691712424172 3.513575356390442 0.12017798974419303 0.16371782200835677 0.6480275256387161
Ni 3.251429294496234 8.380978654767564 3.5701017314186867 -0.5335620128982682 0.17391893091107466 0.7251325954528349
Ni 3.2778389130077223 4.065630670967642 8.78882004531442 -0.238856255014408 0.6116253328605983 1.7987692255569085
Ni 7.295518855411252 6.314174421309294 11.849650406789468 -0.02811938394403544 0.6136724451976141 -1.8346394570909563
Ni 0.4644647730993285 0.05339402926932989 0.31656003008648376 0.2763645363725111 -1.0549169422073832 -0.01602748577650788
Ni 4.687648355984699 0.2100530213843692 1.3291481398885074 -0.787511929021005 0.6179605310500066 0.29931574585204584
Ni 5.997830164968286 5.590634282433107 0.4722480403468783 -1.180162833392787 0.9873342100614029 0.4604529516174199
Ni 8.111995828946299 9.144092423854062 11.30883799228645 -0.6547139365199562 -2.037009187143556 -0.6719925210947458
Ni 0.05471858995059607 4.930203431046955 5.581166529391037 0.26631306567378005 -0.5174000584264251 1.5843381934644005
Ni 7.891815947322544 8.915426650391394 2.487627406616386 0.2792472572369449 -0.7055901545445332 0.09628395673541483
P 8.56491217360075 1.6446945773386767 3.4380463859622385 0.2813540191673025 0.12563104243896428 1.9316710906256733
P 2.0700136412691403 3.274430050474142 1.843382305978109 -1.2021601635994845 -0.9888886990327164 -0.2966960488410116
P 4.722235618127276 1.18110740501927 8.30551677365518 0.514118559461676 -0.5447501683046038 0.02552668351619475
P 8.67987062287149 1.7389369338189098 12.54356335983191 0.2749936241669135 0.8573721443472525 -1.25629731176352
P 6.3328053056351115 7.862378243475376 1.3555269335792133 0.008532720061359498 -1.3946488870929465 -0.6340037005557985
P 1.846814740433464 3.3376662636968093 5.988889153716645 -0.08036728550515836 -0.7345343483827091 -0.25413092178529134
P 7.028149799619183 3.9959121792569166 6.0040821639128525 0.03487752860347541 -0.18851482644737855 0.6857623211853286
P 2.4760127954680624 8.56753228336725 10.108640050466756 0.049983788117294564 -1.0836053112810113 0.42199336208964094
