# total energy = -340891.4537325491 ev
CRYSTAL
PRIMVEC
9.05023947254394 0.00000000000000 0.00000000000000

0.00000000000000 9.05023947254394 0.00000000000000

0.00000000000000 0.00000000000000 13.24594028029208

PRIMCOORD
 96 1
Ni 6.242239754436861 2.067554352444666 11.438346040734046 0.45216731456986 0.20581166585461327 -0.04204936376156629
Ni 4.466148363391172 0.3052600514363233 5.928524969308909 0.29370277054064253 -1.5788332044857711 -0.038903361933416876
Ni 2.7628661486986825 1.3221766315684127 4.661299581616363 -0.8373872165848933 0.945117981704669 1.0439843544552794
Ni 3.607914156607599 4.255304934988379 4.987930868483444 -1.175362583790666 1.4828217846854528 -1.0082897292671473
Ni 5.128598740212191 4.514874852575215 2.727100507427059 0.8276062259387295 -0.8508919359395475 -0.5013977694608978
Ni 7.546324957350203 6.388165815284466 2.6278881625104265 -0.526953506442815 -0.7063092920987448 -0.10647375278422307
Ni 4.796853163033464 4.395122084209084 11.374341842339085 1.4339001192840852 0.6402959613224134 0.28841298289661293
Ni 5.663730348489169 8.0242771527994 12.466377219931314 -1.4423436220657484 -0.40992074719582305 -0.19762141673433709
Ni 1.75313998380744 6.60161571264807 0.48418238028468946 1.2692646705574657 -0.45333408118445156 -0.3795197663064625
Ni 2.482688835890437 1.6358579308104104 0.3486731450408801 1.0282222065250162 -2.3338150220895546 0.33515846658226794
Ni 0.5059301056764528 0.23924126974040286 4.65401413886132 -0.5153940837399899 -0.6730734128637504 -0.3988709171395647
Ni 8.666391641582427 2.3037746522575735 1.2590358260167205 -0.15851005255517217 0.16747703194047286 -0.2632279989905531
Ni 6.834161615245391 0.7546505962139148 4.583572505147524 -0.15781714025320562 -0.41695837076889486 0.3129775596098545
Ni 0.862067888213432 7.7218543514297915 2.4831766437966443 0.09173978900815814 -0.522412681149668 0.8621978478706699
Ni 7.9508887611215755 4.278401146057784 3.8645961427868145 -0.4197721860686061 -0.9198093277365513 -0.1263445235662211
Ni 7.73857014368888 3.951560798659471 12.622903826243492 0.1397962781957528 -0.2852083599163862 -0.36586309475497636
Ni 7.974048323867112 8.830562985155705 6.969920637097943 0.18506697710809417 -0.5495869275716148 -0.014480710114678287
Ni 6.729975258728544 0.7912597198020223 0.35742834668215845 -0.19619214048697825 0.4542815326993853 -0.10619016010553324
Ni 2.0060217744427518 6.364617092242698 8.985211666782579 -0.02292112757254762 0.7923584584800288 1.4490799123483173
Ni 0.2571163976726841 4.693526579264107 1.4899825513037104 0.5727548810476458 0.7063892534070608 0.2545934632440067
Ni 6.054664491652971 1.8230802342558579 6.9027904859979 2.153521040890072 -0.3894905043659292 1.0317034802053973
Ni 3.496976321463098 4.326964730931776 0.31973047928854575 -0.6108144069235286 0.3603066837131214 0.7366300545694734
Ni 6.178860927587706 5.663386439390174 4.825310735951426 -0.6188136230789214 0.03649012450623393 -1.0893820658637885
Ni 4.92411763014082 2.793890369523886 9.351117372754985 2.0814476199625895 -1.5860176380493523 0.5101153518395537
P 0.4192342419153798 5.619148868971972 12.400557543503234 -1.172803564814238 -1.2495219407128997 0.2920737195776518
P 4.054914533147169 6.291826016368393 12.76619898248378 -0.40362437266415 -0.7537021795604116 -0.35626645220547676
P 2.508264812568391 8.53189603315671 1.1935636787834145 -0.06948740536786098 0.7619749610921651 1.7784240862416534
P 6.407741483208887 8.033924708050177 5.850334520580369 -1.1510466327531208 -1.128624813414495 -0.683585625248984
P 4.57739390667688 1.1164827894111096 12.462628610752262 1.2639370876969651 -1.0007186017881087 1.3105876976759687
P 4.1311537502508795 6.309111973712658 8.119588844514263 -0.26793003245191277 -0.5582021800444517 1.8171757530885544
P 4.769177530803746 1.0025040738123292 3.74102417337394 0.6797400262506487 -1.376804659822674 0.040332895291091825
P 0.46093141012073624 5.828164149006419 3.530532799285645 0.22913105730684408 -1.010186432069228 -0.596645057401682
Ni 1.5066386119824462 1.194939315179398 2.5591027226154797 -0.19546374696138596 -0.35368557885217794 0.17652037308966373
Ni 1.988283305126124 6.312125703448595 4.906826242652888 0.6424340907113387 -0.9482297878607734 -0.515228504696403
Ni 6.378328205005295 5.784442442236711 9.184297929119438 -2.305901583508738 -0.7612789634664051 -0.5171138946445739
Ni 8.530466095324043 2.398213900889721 10.176763477336868 0.21974884476099574 0.5592295928677015 0.20336577541728204
Ni 2.6676395292346227 5.053309798250443 7.053449822076421 -1.4137475555956103 0.15725715398467754 -1.0975435186286582
Ni 0.47467600876928856 -0.02611718099690009 9.16894600794505 0.4603943304653426 0.6378462142303403 -0.2627094074829217
Ni 1.366984367071792 1.2866001403012375 11.430040635993297 -0.8376235009654156 -1.6625467807553433 -0.39631626903851097
Ni 4.0681912344162985 6.946004474334617 1.7594977770191393 0.4919006286037399 0.22943727569335323 -1.899247679989645
Ni 5.5202659527712195 8.093194726190276 8.150200374420672 -0.15258854486441464 -0.37927782549898553 -0.8958939545715344
Ni 5.133313914964213 2.7582686270594747 4.958035212517314 1.553881162526124 -0.5607629987930923 -0.6437109005412334
Ni 0.8402721965525983 7.279723003712847 6.966596484148965 -1.0536432177012822 -0.18234315041902788 0.3318558845715962
Ni 5.132707548921246 4.579421160313066 7.033143799828606 1.2482862685335856 0.8106767971732426 0.45726349814584477
Ni 8.176665084612347 7.152512838042174 9.416684547502486 0.4729019760140501 0.2502896936623302 -0.7945873478105476
Ni 4.648610240887361 0.3211993331508358 10.349569654366777 -0.8496513786642271 -0.2913638379948208 -0.14092602092482182
Ni 8.306056357989808 7.0930346643947875 4.858332344622639 0.20057638559760294 0.5912184870694721 0.27761203562636705
Ni 7.164993118239944 6.173041623623118 6.8297396682514595 1.0335171363753684 -0.1937979292231888 1.7334030414462727
Ni 2.6463714665335636 5.09664234472392 2.5988531843157303 -1.040056737266099 -0.2850345533426833 0.39396473808719895
Ni 2.5511991485061882 5.109140725400584 11.360513076463674 -1.9243143931502855 0.3949088471680231 0.4072300877375373
Ni 1.1497424193797863 3.354425999929321 4.100002826073414 0.5308934649271695 -0.08376628388437832 -1.3617179406928805
Ni 3.7442017124438727 2.4512483040506594 2.6829118083018724 -0.5350236850454592 2.4436834023776237 -0.41749393155739073
Ni 1.0187492536201592 3.427570035142068 8.133126192679473 -0.24810682707839848 -0.5501844519462976 0.6763600540348224
Ni 3.8503791216391154 2.765698873645674 7.147442893903819 -1.8537316978357175 -0.3909447203139525 -0.5695993661377996
Ni 4.281867387766084 6.682334798278173 6.060865715722233 0.2849826170588253 1.4872119433333484 -1.4054855726971343
Ni 0.7747421277868298 7.356749591648469 11.217324713048866 1.04981201688065 0.1643171461552525 0.01928815880565065
P 0.15996569730213744 5.545878130406963 8.089706763907303 -0.4965404413685965 -0.3017163848737384 0.0546588249954607
P 8.29958543678502 1.5953581092839262 7.957286375386843 0.9347014143570354 0.9364675051185226 0.8463621663899941
P 1.8211796839719334 3.2588916723240544 10.480174564854115 -1.358843704468879 0.13838242856736166 -1.9896582086634187
P 4.309859778376456 6.123039050677012 3.7334083968790717 -0.8454147148750601 0.7172418798508486 1.4972960670422277
P 6.708870100337536 3.997925175347779 10.463948390549126 0.8545387886635154 0.1820803836759445 -0.17350266930926247
P 6.141610142022788 7.754498565116055 10.276134201443826 1.1207618657266505 -0.5050716187680593 -0.16592562829295293
P 2.197008977498259 8.241347145941907 5.668335110319934 1.3832499012273853 2.1398111475031474 -0.16115134683276117
P 7.224027830154414 4.132113075632289 1.6100973292477323 -1.114914662917254 -0.27460718736177225 0.1816299264020872
Ni 5.3335685632137135 2.9115072813804646 0.5578621896727146 0.13834334779931012 -0.19528994038768305 -0.5264451993478289
Ni 1.1950026668555287 0.9476777232408342 6.841792777147319 0.4707376213728796 1.0064547329409377 0.6895385003983092
Ni 6.922166143630537 0.6729930007531307 9.37650962957216 -0.19738204703002135 -0.07589356600452092 -0.2977129201413002
Ni 2.614197865298558 1.5585688859308184 9.225293703767631 -0.15843754744602392 0.17067702693500927 -0.2068164529700438
Ni 6.352507871862265 2.3251513178319994 2.634789875112906 0.9381112113695327 -0.40932553681398537 0.29673050162337283
Ni 4.065702418568302 6.703811016486519 10.574975823064154 0.6327191774164199 1.125305776343591 -1.0080878976689867
Ni 8.17034801747816 7.000342111975961 0.4588923911732688 0.6247505573886466 0.09975623155473141 -1.1974714998745635
Ni 7.231177519317749 3.5670523255032247 8.30994615090424 0.7248358901480226 0.22759739427113707 -0.48957840822846654
Ni 3.157556141233095 8.402803417681008 12.331864416050648 -0.3375151397399026 -0.14543856408319467 -0.19994877931593308
Ni 9.145266961455244 4.953422305471045 10.2705447735612 -0.044141727514220755 -0.6254365277120777 0.13485873168481935
Ni 8.362267395196735 2.221263619216913 5.737505185391391 0.4704473438259704 0.7292952114709569 0.4487477473653497
Ni 3.3915862830997665 2.6137544035656424 11.752473516780794 0.6357332816523955 1.2265038825511716 -1.4037166537221695
Ni 1.1321578041337623 3.2837888810434643 12.720050001494316 -0.8895088769807971 1.7702793456473318 -0.3949319870964747
Ni 2.857051990626307 8.413600353341588 7.854815944269197 0.7831107146295159 -0.07098378740772937 0.3033760319643485
Ni 5.7910038658359735 8.015407918141086 3.2972592574367647 -0.08092444356020902 -0.12493375926162355 0.8464768375909874
Ni 3.34188236805542 8.238985033446172 3.6192016152462205 -0.6429393124825313 0.0472249944252348 0.40102087360303196
Ni 3.442303824962206 4.299488203969897 9.064819383008558 -1.1163627082176903 1.1987246555553743 1.3567631677907666
Ni 6.961064072774857 6.065081317256766 11.544565081030747 0.46114406414717357 -0.26596005320973554 -0.006867416543794624
Ni 0.5898131550173179 -0.03238356679018224 0.3824694542087794 -0.7731248070613975 0.2367140118604246 -1.1836024552019553
Ni 4.499136486176432 0.6539540120279319 1.4356747794525433 0.2914697674450658 -1.8314345770004137 -0.210185883662909
Ni 5.911996517006379 5.483947341869369 0.5508944103222698 -0.18942165453236412 1.016915266152629 -0.5212675118016312
Ni 7.852331653540925 8.5396882893208 11.484812685128109 0.05299017904378616 0.9545708995874527 0.3128988838531192
Ni 0.3129192690805385 4.612110625196565 6.07073319179158 -0.8089587860408712 0.6624573279108009 -0.2993190882861555
Ni 8.040205574226576 9.172689186980438 2.252604598422771 -0.5165935033647296 -0.8880217509123094 0.7317989517294171
P 8.50300766884106 1.8315603086179395 3.495299312093521 0.09439033925712777 0.45663177809911676 0.3049333491491394
P 1.9559105986232785 3.1428404518918525 1.6281118308675013 -0.9128010147395184 1.8200319915904268 0.8187660019392802
P 4.415611826317678 0.9789553507705614 8.072353834791128 0.4688105795534958 -0.4829735013174392 1.0539481505362107
P 8.25183637346128 1.5293637632345134 12.282827503653564 1.3998759398198406 0.5883964442396447 0.10144338944916723
P 6.349530343084116 7.830936887487605 1.251215514110344 0.28536211188543115 -0.23319262897072743 0.6826044922826373
P 2.0151806167633777 3.056148208226558 6.052202826523317 -1.0005573936198962 -0.34817236234343263 0.2310933232395375
P 6.9039118106654165 3.8314822216732383 5.972660272021357 0.0006546028648633887 0.8726277849547424 -0.21563790791641574
P 2.365823093907981 8.594487489173954 10.208844766129511 -0.016656377609758407 -0.4284589152093266 -0.19074294444694892
