# total energy = -340865.513261129 ev
CRYSTAL
PRIMVEC
9.32272947760571 0.00000000000000 0.00000000000000
0.00000000000000 9.32272947760571 0.00000000000000
0.00000000000000 0.00000000000000 13.64475694641217
PRIMCOORD
 96 1
Ni 7.281079470524226 3.533407592702444 7.781454585587366 -1.5591804632518502 1.8200641303799427 0.31995090560389416
Ni 2.968049326049178 4.231568136757484 4.062507900965328 -0.3231048778518435 0.693019002747742 -0.29402981486275814
Ni 1.1651360494993959 8.266277523805185 1.5080866270803264 -1.3229392772627862 -0.39642117004749144 -0.10525916365083163
Ni 0.6499415241057624 0.556030876092334 10.330418333800836 0.5870371019982729 -0.4805106415992434 0.06091663297971445
Ni 9.096569108759862 9.26460197979458 5.4756136307204875 -0.14395555177976496 2.1537244151501294 2.9824516420671796
Ni 3.2525044392877125 2.966417848439819 5.938730458550481 0.5553981349367532 -0.0006201500825021578 0.952747987446101
Ni 3.9982668386192324 7.718119692519154 2.264511431793693 0.6468545883765375 -1.3773764731657439 0.5504523608957036
Ni 7.608997147276068 7.448860627870644 3.078816400722497 -1.4105128507083966 -0.3227415809751539 -0.540231968719276
Ni 0.23918580480697724 0.38501659626062745 13.237828900065379 0.03628803579775686 -1.277431265528658 -0.5412881778979323
Ni 5.310226550231688 5.510441482452151 0.27526290225094946 2.3680747146033734 -1.4655095186592504 -0.2806575073209102
Ni 2.758241305485688 1.2679564298057604 3.9940249968349004 -0.3727726773906161 0.23406860381777753 -0.026923306753405242
Ni 1.8388523976016486 4.634095615267585 7.052306221956633 -0.5362644994310958 0.3194693379817853 0.5987381924852849
Ni 6.598497206956259 1.0777913996589452 13.159698835762585 0.21312439746594264 0.02942319035712352 0.4642766962388843
Ni 8.43764793189219 3.0402165727579975 10.313961852223468 1.8309509524957757 0.5284907690229479 -1.6436784830959303
Ni 6.666963330174135 7.487400790368287 10.75829058390409 -0.5099623712014572 -1.3674378738957935 0.9338699195946756
Ni 3.398731446732207 3.8480963167246887 0.23069839214663498 0.3962237093247047 0.3569200266290756 -1.0199409403528303
Ni 4.362282122819279 4.6307021418401195 7.813506128564362 -1.0851292041247054 1.395023496823546 -1.1206315107963731
Ni 4.988042351935591 6.326254868964922 4.181517200521127 -0.37523913665323766 0.824084071718084 -0.7009174316592123
Ni 6.04807395247552 0.5774573046042678 1.747675173788585 -0.7012226216044569 -0.3076201519526831 0.7794633476849158
Ni 5.846069056249361 4.350209188510027 3.0623608514180485 -1.4340299599937303 -0.29886271747502724 1.6255635186627744
Ni 5.691470237986559 3.0480942789288994 1.1361498198821551 0.641266809876115 0.4327161478237838 -2.649194506272683
Ni 7.842652709123779 0.2947287608128943 11.34250407035694 0.13069251612227167 -0.4758703146137546 -0.8056556898095673
Ni 8.66268929196249 5.61014807120694 7.199382530030914 -1.3433900889179704 -0.4590023352138224 -0.33073694047580454
Ni 3.56665244501657 7.115507799997339 6.276055701334344 0.7684173742833992 -0.5448427280184099 0.002771392097550066
P 2.488711881690483 0.30694153606009145 11.923552490247635 -0.13569768264634693 -0.06078036451216629 -0.40048377015263925
P 6.007510757742272 6.174928328650034 2.1743466563713514 -0.06588940360395748 1.7020533234903976 0.2552886895388184
P 7.859088680696916 8.838105764520705 0.9527027483942179 -0.17966868891065832 -0.08910080872341429 -0.7266480036560969
P 1.1427708221573911 3.059169681214144 11.30678216889535 -1.1685568737227423 1.5787051635483393 -1.4960778783644104
P 3.965972904683132 0.3526163832116892 5.774952481120968 0.144513481165764 -0.612160636538778 0.04175728644244422
P 6.73431072588845 2.933545905293547 5.126062560868553 1.4266861180341495 -0.39743392758272195 0.46668196324626726
P 8.60460868906933 6.31222416152444 11.336814408728417 -0.05965062178309727 1.2534485294608153 -1.3935852217151226
P 3.5877870721046583 1.960942859156835 8.370362066190571 -0.17604266212229683 0.517205940137748 -0.45843669251833946
Ni 7.78289401497528 4.769191284051656 5.0192101001847735 -0.21144392443972615 0.3943102943520757 0.09549462806490004
Ni 4.016269028697352 1.5138154441714733 0.07241616357836145 0.22921693215243105 -0.19503540117471574 0.08974872672005833
Ni 8.87364400821713 1.932396662357661 1.210029651944341 -1.7187261561603882 0.47910836193507816 0.2047996796503312
Ni 7.337994732267843 0.4372070988475429 3.9700105786980644 0.8785716612430031 0.4803190944137276 -0.7813425669854995
Ni 8.458819849897065 4.785217055540154 2.697923247585408 -0.5862151203176097 0.04741885560359576 -0.8951169671961938
Ni 4.180498226219967 0.5759087992847568 9.958857232589276 -0.13585323438760474 0.21759066076741237 0.7929588110681892
Ni 0.25880548840066153 7.79243116694313 4.068197562593851 1.0900346118461226 -2.513120157013207 -2.1238667083587486
Ni 2.130318203195826 8.530949805689099 5.147007004281035 0.7073050803531109 0.08675056332368286 -0.016006916951217594
Ni 6.553281970354041 2.2071841054195973 11.009680773501987 -2.1861344560497185 -0.11683966939957942 0.9096737819644461
Ni 3.3036768998463883 6.082577373231151 13.546814910638227 -1.889385956704217 2.701986453262734 -0.32009308760871324
Ni 5.184826519811803 1.7251617150523588 4.550526670751649 -1.2207816353554135 -0.6583096242910146 -0.9701746675629809
Ni 5.1803795779851525 7.354365444736605 8.514273307702696 0.877305907156702 -1.1384955355609878 0.19941990339565657
Ni 8.648005993478264 7.375546685470675 9.285611682311439 -0.18981991841204726 0.7534268144118379 0.5774121773139991
Ni 5.06852547308754 3.2750840894012323 9.444163337753485 0.6278111985918413 -2.251865222588625 0.4348146822240253
Ni 1.4429160886333554 2.3533738219473066 8.881944966293545 0.12556573641866764 0.5593900297049657 0.16444261598952326
Ni 5.674847811829496 8.01282048514446 0.1346416518722105 1.0759333965580502 -0.502441894454696 1.2649801842494988
Ni 1.6745113273286778 1.1956586648881924 1.56424861230488 1.8524397184971713 -0.8407941853839133 1.6402008089599753
Ni 3.1765521645251815 2.5489367122987994 11.365549856930276 1.8546187284263607 -0.2753918880465967 -0.5099608285395604
Ni 2.1628172371742456 5.194783194593487 11.77224552766406 -0.5644268207979247 -0.6905867391571655 -0.43286989979282875
Ni 5.275853647684805 2.7979095182160876 6.838943444750582 1.4883972218907011 -1.391517026332184 0.27329643897014866
Ni 2.8582928352207406 4.391434297016215 9.607190835482694 -1.058145990667642 -0.9035306451811859 -0.22495789976576097
Ni 4.678854038139183 9.189320941534186 12.133408989002946 0.2466094165972656 0.05534119577446597 -1.4556321116445383
Ni 7.2989138514768115 8.133083691777165 7.363338571588076 0.5560648219864747 -0.7124141194449021 -0.30323384995952934
Ni 8.667285397456283 2.5559846955712273 12.55604186529786 -1.0170211956028743 -0.18926224613636436 0.1341118262164658
P 7.7908183347921645 3.902130855146639 0.6225382939060591 -0.5758605165561631 -0.05046149908466148 0.39055005597869513
P 1.4885322025910164 3.34842599998879 1.6144067599269945 0.4226165974959367 0.8166073037250646 0.26822056710913805
P 2.470094391485405 6.709997048144411 3.946009212382103 0.9281569283702984 0.021700624901885207 0.8487450647998738
P 9.161818890405002 4.143002209392313 8.546106698816498 2.3013422462728306 -0.22780848184067862 1.3939811716019606
P 1.2177255648959144 6.437549610110754 0.24589444073665898 0.0330481887042205 0.39845414131712026 -0.7757442469621156
P 3.8005410750941904 0.4027372399170186 2.1166976958399824 -0.22828285037393586 1.9802114614282218 -0.24013203640303804
P 6.618186811018917 9.020999065894381 9.295927282167181 -0.2765411711596915 0.6061601959809689 0.28032403524089144
P 3.2502203706346107 6.422045911457251 8.302002222085536 -1.6056665226285314 -0.0379134872163218 0.4625216612209905
Ni 4.900390052031661 0.12376016235424979 7.809439554088922 0.471712069471007 1.5719853283260026 -1.967806917116282
Ni 1.307745838015713 6.200528543023165 9.314225002760825 0.16444827241647805 -0.7426268955828565 -0.5433214062778772
Ni 9.264928275316453 2.8404584542681546 6.856380677439404 0.6293644020115742 -0.837496488469248 -1.745157867989356
Ni -0.14474562577519698 4.955533995227975 12.880090609433225 2.023334517869941 0.45151502569784174 0.7793378778506449
Ni 0.8199582719134614 5.402120691919949 4.854667658961162 0.061922705646725626 0.01328797535815776 0.15029254974138634
Ni 3.5983310788257117 7.334181736026543 10.302091221137776 -1.239357084364756 0.8857494099383649 1.2597770427820045
Ni 1.856071478427277 1.1206013721285097 6.550779749837744 -0.4479252514640544 -0.17792213853319683 0.7263710958456265
Ni 1.6973706593180882 2.3512948533365243 13.214756077577373 -0.3948401987136168 -0.25127365484215436 0.34238120958295226
Ni 3.6830280735744036 2.6925067419223385 2.190502013795678 -0.5698346220770573 -0.3782928358778969 1.4736537450329394
Ni 7.664551290557021 6.405665876259293 0.7646735555062827 0.6787702061382116 0.1078104693177756 -0.1421462664851681
Ni 6.099255735763393 5.7779385512825545 6.802784307289681 1.069414621602926 0.8051162723663295 -0.8460652039748654
Ni 0.5752860409744417 7.351838985124398 6.923867914091663 1.4784971891681697 1.7731862348814817 -0.28243928181168126
Ni 7.138656136591836 4.741521423796938 11.909321344129433 -1.6232914347991465 -0.261384260913595 -0.38427142205883497
Ni 1.2021566071380372 6.090445756672858 2.3773397618923213 -1.3078291610942252 -1.499422112246295 -0.01881456160334179
Ni 2.56925093921761 8.745559031788702 8.404842180123213 -0.6351671247362803 -0.6001762104833921 -0.22443365183117478
Ni 7.607962324335275 1.4379563967009057 8.472302380860803 0.9326792417206841 -1.58402940397473 0.9442831445081995
Ni 3.157599056069035 8.572454596071175 0.19540347168223518 -0.9470974740285432 -0.07253750504809443 -0.379152869885347
Ni 4.846989459195061 5.352710227179381 10.314098896342653 0.6121027867176491 0.7123210455104635 2.2851658936232835
Ni 6.953786416628538 2.4525863060546897 2.851058397364386 2.032082182155584 -0.3968454020691036 1.0650334618160948
Ni 3.4862811966149767 5.471947933600489 2.1977476389270687 1.077430035708235 -0.785388454920099 -0.5680081103912799
Ni 1.1716433144784368 7.541360746956667 11.362356822180534 -0.289986755141636 0.28030295219496887 0.6213425601483622
Ni 0.08529178487141796 2.6849460085441117 3.4317385694518263 0.004662438472675842 0.548259467009443 -0.03867453375206242
Ni 5.43700634457263 8.585273348716134 4.183918735562102 -1.0692176751007716 0.4358071280442817 0.5409513633838039
Ni 6.927841261275141 0.8088828696282168 6.2812540551342195 -0.6596134307041027 1.7058811818769202 -0.7437741218134223
P 1.389431591233989 2.8749898432113747 5.048915112223051 -0.6402059727117684 0.8148278432271385 1.2117120689539778
P 5.097295415387426 3.7740924923641916 12.245118591598015 -0.1909082663802196 -0.868894028943923 -0.39155818552823535
P 7.904527662799847 7.114799272578417 5.395532319196901 0.27728242020109023 -0.41681824564660475 0.23438947749230601
P 4.905759944048749 6.860288765518507 12.11109969803612 -0.3620761169087183 0.31043602413492344 -0.5464563523624331
P 4.733149612978631 4.719883369332248 5.390361001311694 -0.6706547761199289 -1.9469838097233436 1.7979654987086906
P 6.497597308864339 5.36804611670735 9.02397301650801 0.30011715870741856 0.09554142214243545 -1.2148269604338755
P 0.10646090605753294 0.5448920792485544 3.250385382941386 0.655057178791988 -0.928454405006059 -0.49729685991864686
P 0.36718780894555886 9.299096077821016 8.011791255841183 -0.09392316981272211 0.42883609604308726 0.22442902384548444
