# total energy = -381164.1441067435 ev
CRYSTAL
PRIMVEC
9.29386635712748 0.00000000000000 0.00000000000000
0.00000000000000 9.29386635712748 0.00000000000000
0.00000000000000 0.00000000000000 13.60251285207271
PRIMCOORD
 96 1
Ni 6.244734633450198 7.603525765749163 4.553318815011825 0.07809802985500744 0.4117194909674587 0.6673431952481926
Ni 2.1135553070773954 2.7875093145176777 3.3045401073015235 -0.05852267882624115 -0.6066165667920972 0.8251842467607983
Ni 5.283525806908418 3.4504965597430073 8.231873841947923 -0.06431177470419246 -2.9011474465700484 -0.9601275677396237
Ni 3.733150915033996 2.576835953595174 1.7303078606764362 2.433093028456287 -0.8555350911385137 0.8205102383238966
Ni 7.529909050914719 4.947719830340042 0.7364496818794606 -0.8361777696578244 -0.07078041314767165 -0.7515193129764799
Ni 3.630537337393914 7.554909551218298 7.154772361619683 0.4328117928613836 -0.38721584939913956 1.063678490450097
Ni 8.28667140694418 7.532604272137038 1.5827472869143584 0.09416819594399266 -0.051607953984278865 0.9044737258207455
Ni 3.376786906245726 6.116265519808423 0.7726149037498392 -1.310868462141181 -0.43471466631105127 0.4582955389547849
Ni 1.7041697911397127 7.0565724410778055 2.520191697368313 0.0799512810136623 -0.790369195964142 0.869224158589832
Ni 4.647862528557632 2.452093680333225 4.061927940531889 -1.7579431926794822 1.288890158097877 -0.2701123848152122
Ni 3.7996299405624354 1.4571481191810378 6.701848799688637 -0.6603369391336885 0.2942596714853771 -0.45635101363390446
Ni 4.947292312490985 7.690144599514724 9.365751551404255 -2.234625718781887 2.4378765658878594 1.345503021495915
Ni 4.885469513970759 0.2809814593598938 1.7260912335434497 -1.3971729390663807 1.3707360850310908 0.8998441974685342
Ni 0.09594987551455508 6.984888850430405 6.973736210889776 -0.744945259303388 -1.0508106333484937 0.6098875242338851
Ni 2.7458913812985597 3.5604615856136212 7.945880200501144 0.9793910439549263 -1.3251331995903113 0.6554094199250841
Ni 0.45162335003793447 4.545657881034041 13.24830322572453 0.4035485251208921 -0.913374113634169 0.5690506927231813
Ni 7.871672395771048 0.49746627486969486 9.497465153765726 -1.1039625347811244 -1.077372185887106 -2.0664457472371187
Ni 1.3792934013211553 9.032643584218082 12.513237400534738 -0.9469948870124079 -1.2962496837867417 0.41497836422438855
Ni 6.007220586699912 6.73926125841431 11.131207884979615 -1.9585182927255045 -0.1857506334386801 0.12850707843517867
Ni 5.995380201054276 0.7542836818915567 4.0123330818813345 -0.49285142255278347 -2.7301490317398787 -1.3588961549733694
Ni 2.9386182864269332 9.085005226861343 11.008364348599459 1.5162026741387435 0.66246735521313 -0.6901193126024436
Ni 1.152513770128724 7.901347710815408 4.9186960153221815 -0.5206388770786969 1.8992862465370643 -0.4459321322934255
Ni 0.8571463351480457 0.7274095381451514 3.0951976280308675 -0.9437928351353424 -0.5392192111840456 -0.40955487921597206
Ni 7.62919542442518 5.261183352362023 3.065680308713333 0.15942742216311895 -0.6946156578109005 1.3472539427487507
P 2.4780421549977576 7.435725009994097 8.955649478376086 -0.2731966801674908 1.0452472803281032 0.7233197106138124
Ni 8.645210180442874 2.293800549786547 -0.13794885725131162 -0.19546863205739237 -0.15140352341737795 1.3028849297150724
P 3.484605049004768 5.5944335157023355 2.9849621506513935 -0.3852263297729365 -0.045260671610012376 -0.11295524674350871
Ni 6.776929298462788 2.837092091142063 2.8547727423604754 -0.8932403189987712 0.7801164078878823 0.6301899832366631
P 6.157548873841322 6.7430252742592725 0.0814412208588236 1.1257060971058033 -0.41810945365420255 -0.07651140209417791
P 2.850735486846767 0.5437413644836547 3.5982318581912223 1.4972621284804988 0.6338556050137084 -0.6790877373786305
P 0.10521214265304846 5.608402196726976 1.7297771809116278 -0.5683798919084018 -0.8290727831819269 0.8574613616269491
Ni 3.296320611960079 8.772182981612948 5.369388119958473 -0.8176043775310113 1.005693943515513 -1.6462423871683647
Ni 9.00466904670367 3.279721766777108 11.472359693434464 1.3065569792500207 0.5795292236570019 -0.5804599630013875
Ni 8.130450808578804 1.1525695333264272 4.383926949348964 1.4256579338799513 0.8463678228169488 -0.8446595818765904
Ni 0.0740646791893251 3.939781444123022 4.538546214553632 0.3259546885958129 -2.2515170952205867 0.4473431537083392
Ni 1.8870916673386156 4.376899857051738 1.8559813793400277 0.5831089705884603 1.3665310458108078 -0.6830721759476752
Ni 7.563571434594855 9.028424168925211 6.245430744034859 -0.027509775384494558 -1.5885152076602256 1.1608988429568525
Ni 7.178247738466082 2.265101090701992 10.708156668058146 -1.7003687366991231 0.5107193039721398 -2.380996564871364
Ni 6.185978810803646 2.2973043373755617 0.6347664202543932 -0.014958163971729077 0.25151045344330875 -0.03431342856988929
Ni 1.3547204188666333 8.846552499616385 6.9895831822903824 0.694556779548507 0.9687410204402478 0.8882120125462445
Ni 7.208034579905847 4.778980394090309 7.692710635995697 -0.3510121457850729 0.9887850835753164 -0.14110316993263441
Ni 7.10530947587036 3.911769731143472 5.209884928021637 -1.0607381768748505 -0.9294548212461153 -0.15580550913981553
Ni 0.5977257161800751 1.6643083986482436 9.89872504241143 0.09730134225633565 -0.35700872968814 0.518371678311075
Ni 1.7281851416172032 1.8303619075419433 1.0257194111912993 -0.8054091210164 0.06047543167723778 -0.7133762262478553
Ni 0.38452349424173293 9.17433786958179 0.9045775817277175 -1.028247917556629 0.24990402818813734 -0.017556777936840733
Ni 0.7412350936290193 6.193999417406615 11.250284617354923 1.1082038265559817 -0.21176042723888044 1.484427695719992
Ni 2.62095393684465 4.27547589429599 5.411038581709585 0.07333531835904143 -2.1203936622084836 -0.12131338890021687
Ni 5.946884806785102 6.976691660368043 7.658649545451984 2.498299804170923 1.067901527392509 -2.6256002638925104
Ni 4.980908226839702 5.13231460247004 12.93619382002011 0.3626924103364786 -0.11714691622735308 -1.1851116927576297
Ni 5.674174888417842 0.8892557137721484 8.187774446431014 0.603196742477271 -1.0465330890190623 -0.26579601682804543
Ni 5.348359818104615 5.39204098963875 4.093417418274858 0.08098075071944118 -0.4784617294900147 0.22442105342568444
Ni 5.0270987422704785 2.343392620277216 12.180356203685893 -0.504025694002048 -0.8087551546704975 3.034506196670574
Ni 3.1941531399016223 3.637572794170795 13.51993226744298 -0.11769276142849408 -0.11656379003037345 -1.3920009079471383
Ni 6.020111179235623 9.106241711319958 11.077573912042094 -0.14642843880028977 0.748950266697723 0.21215663423603462
Ni 6.460398800567135 -0.3325382531829704 0.37852802110201583 2.362619090805441 -0.25883346946728325 -1.3020709184542092
Ni 3.239367799372594 6.728703426315846 10.969379367698558 1.4777281722126294 0.5772268007760705 1.446067607884555
P 8.521397293809311 8.10753213432281 12.370124871176113 0.8913292180189876 -2.250298906542769 0.7239519448811725
Ni 6.908595502106211 3.808737929520617 12.208704354624919 -0.9657701107373818 0.3160610836311847 1.1747642880850346
P 7.825797871793922 7.870111026235359 8.402775031495283 0.6830107265821206 0.06623650253073109 -0.14918131895507858
Ni 0.22896740731565138 8.387797965978844 10.294436492885673 1.0669409632514528 -0.6167616256458991 -0.5570140732736214
P 8.42545671216104 7.920929887075498 3.9591061802870486 -0.524121950531291 0.18889843503904244 -0.01855950816974223
P 8.969324473226155 1.3769048776862036 6.350563888824496 0.9385583262092804 0.7635973271869365 0.8668358608633137
P 3.7120538385696373 0.5882515488903098 13.251703851397796 -0.5918283527393291 1.8733469009634833 -0.3759497895670171
Ni 5.059181168682358 5.391706410452531 9.021662881203703 -0.913902218223497 1.3733226148113444 1.5916007885640848
Ni 4.912040677676311 1.9287096005577338 10.132158152476476 -1.0323033185729253 -0.93676986685029 -2.287253372279932
Ni 5.157157107046794 4.756554294747358 1.7142564242175844 0.30103221432252025 -1.0434853033316738 0.2821870565915591
Ni 7.646714362370253 2.4232826948532638 7.863245647211473 1.0752697948321224 -0.3526388827552185 0.3391539608949062
Ni 0.44033037311641804 6.003159167133865 4.157362935854318 0.3128423195835709 -0.11991316611858058 -0.624977071577156
Ni 4.381063509146907 7.91171037172191 13.477805030351506 0.5656154417893872 -0.5276803573065106 -2.0873045929639984
Ni 2.5562407459101433 8.436609351701671 1.0706942889121474 0.631081641812997 2.2244850308034594 -0.16672652692769352
Ni 0.042325196443319966 4.257956956350918 7.065417413620154 1.0179123399585759 -0.19685368533037712 -0.9938087620421531
Ni 3.97720784364812 4.042952653740135 10.872856060634287 -0.6004430909915336 0.6699158410713753 0.1033002401522479
Ni 8.972744616018614 3.3616471980693206 2.2549977286648097 0.8520982975428228 -0.46970660900520395 -0.7234207549680509
Ni 4.142108913122621 7.787237620582194 3.1240346363364235 -0.6510771110983175 0.18009137827037372 0.2754631076041643
Ni 3.3104194071126924 0.47625302507678785 8.70199012711748 -0.7007531381672061 -0.3997607759436857 0.7839414380609273
Ni 1.6889836136318879 1.935865877596305 12.069577964515442 0.6393068579362667 1.0801386928886496 0.42500798054624866
Ni 6.2333775288513245 6.903353761522115 2.290173153775957 -1.507293801684888 0.6543758364542472 -0.7753485541855938
Ni 2.3899455964930634 5.32385189271408 9.487616443664718 -0.9906031106206616 -1.0769384407837967 0.7967259914201054
Ni 1.354673949535214 1.7789947085910573 7.753799219079498 -0.8254007336469785 0.3877668368066031 -0.4773911221336552
Ni 2.938655461892069 6.413399718769663 4.973010299271679 0.44550430072738756 0.5624306163035023 -0.6427300246852028
Ni 0.261623265277245 4.029039735913199 9.413700466335936 0.6399527190503818 -1.1410674100532217 -0.6536163325804034
Ni 4.744537325642328 5.479096635119653 6.40916357451748 -0.21413741211148926 -1.5973454043573456 0.005620174400254837
Ni 7.9809032062052365 1.1247158160737034 1.821403549830932 -0.5130266119490777 -0.6337676732855924 0.4515427936119837
Ni 8.380734627603113 0.7155756582059144 11.69236595487922 0.7436548226267385 0.6521772861410318 1.3260305145936002
Ni 6.291966061904768 1.8736155612270207 5.961750345906133 1.6624444508495242 -1.9531143481011137 0.9195614733918034
Ni 8.783595849409528 6.076478478247225 9.444224311372013 -1.6611344737888487 1.2966906279789023 -1.5263099377760745
Ni 7.882750684381407 5.930425369596389 5.477486937479289 -0.4937286829514142 1.2928704829018638 0.8332721659752553
Ni 2.331106129049955 5.602705056694971 7.322559176575323 -1.1157932088674654 2.0169556109267908 -1.7644622247449226
P 4.844762379647459 3.1923594237088375 6.078990610303752 -1.992354781658975 4.03604780858061 0.041812050939779605
Ni 0.9253828307907631 6.799318222340603 0.21007297716056705 0.449284079484794 1.0984552318096503 -1.6136958206909113
P 5.187873335114947 8.932734521666603 6.213233073681061 2.2501569816482667 0.2866489490176547 0.5211834367282572
Ni 1.687998463805799 1.9126033302878072 5.302831025953249 -0.6655249110925313 -1.0043186604345413 1.1496356113382071
P 2.6915873206019745 2.385689005735056 10.118569590582847 -0.033835460492206246 -0.3614192000510098 -0.9856681352128897
P 6.942387999914321 4.620018105171193 9.853986228894193 0.5679194073322155 -0.2777184792972443 0.9836649887399317
P 2.403858514319999 5.1756797825505245 12.320394322077817 0.016244486883320412 0.7855216380638537 -0.1638540904759049
Ni 7.762729695191658 5.8468735117045005 11.904253094738397 2.3641900348369864 0.7461863307993407 0.8497035720584012
