# total energy = -340893.8219127558 ev
CRYSTAL
PRIMVEC
9.05321005215005 0.00000000000000 0.00000000000000
0.00000000000000 9.05321005215005 0.00000000000000
0.00000000000000 0.00000000000000 13.25028802382114
PRIMCOORD
 96 1
Ni 6.30594117263675 2.0530870200656417 11.200521269792606 -0.012978928758171195 0.34939003680061764 1.7436573721844293
Ni 4.734213341462943 0.11678098027442782 5.950731225984084 -0.5726479231561364 0.2756412850532414 0.0780160116641624
Ni 2.9298723261742814 1.4047775809884715 4.932419800029867 -0.710980215211853 0.569020096595562 -0.6021019667511953
Ni 3.5177787464760835 4.458208120628914 4.93903135947406 0.6099420316209043 -1.0571951967185986 -0.18890691967947468
Ni 4.9181383608634786 4.4953987083281355 2.658020718202083 1.0406108099973563 0.45982765932859515 -0.9393358278052532
Ni 7.257650846758721 6.161062649036299 2.6119896706955843 0.6377366852356694 -1.0086291148844373 -1.1086380858799227
Ni 4.850737210566325 4.463133067003883 11.374351959766503 0.5510213460252962 0.07252002154659769 -0.028168234904099875
Ni 5.707750305493099 7.947224818146762 12.338336881663881 0.0732836391854996 0.007381380065735675 0.5182084132603333
Ni 1.8489642886015796 6.476023833567932 0.6024838994433037 0.48046127641854675 -0.16764955296259515 -1.0626145679619572
Ni 2.6433834878729443 1.4892802454442997 0.5852719361196032 1.1946620554502263 -0.8679182952942149 -1.1189559228661632
Ni 0.466015808163343 9.160309725341822 5.0010168794007965 0.22497666881883832 0.33009930689180567 -0.6436898174953107
Ni 8.48565544444266 2.071854324909967 1.314987841747749 0.5860019758655391 1.1266154962939503 1.1750136850916795
Ni 6.97916504631671 0.7499072804444983 4.745219329161566 -0.6836362759812613 -0.6811541329893559 -0.30476956987776543
Ni 0.4132609414055755 7.384513481965441 2.3450892634080756 0.9661424064751359 0.1650969617440705 0.5628995855201209
Ni 7.778635936906518 3.9637036704568285 3.702912369444742 0.42555228308549287 -0.4130230402702307 0.17498928115711798
Ni 7.666004948209823 3.6484618364075043 12.764625392616484 -0.4475848374055002 0.7543596106387525 -0.6801128362090351
Ni 7.861092575846275 8.66057251964633 6.910687469321056 -0.6868578682423525 0.5037045632172035 -0.011005607081884273
Ni 6.662999784822079 0.863743251425217 0.5119210160473929 0.5337687295924356 -1.2036475467782883 -0.2749805115407909
Ni 1.624354142346052 6.489667021411829 9.164031500074818 0.5285033674284381 -0.06805992889271503 1.2295172154561986
Ni 0.07413673872174592 4.722453221350652 1.5669124286428397 -0.038147971824631075 -0.33575727650853143 -0.3209934879357955
Ni 6.190277358506939 2.124607381025685 6.7940323286690765 0.0019290987019128067 -0.48415826565415965 1.4419065345283295
Ni 3.1478193096872027 4.197747261790883 0.3353834162093119 0.19779188087393032 -0.41161664684100724 0.18464120242458523
Ni 6.0553302065486605 5.672134976377047 4.608371003051185 0.2710084142669203 -0.5062309291834829 0.9099856567779102
Ni 5.085505058720228 3.0476364850816533 9.281005313727531 0.5212991363705152 0.12143114542500377 -0.33357543836586423
P 0.24798462979511443 5.533150092648112 12.676180055097605 -0.3874801588041198 -0.6356607765432472 -0.8354630029789869
P 3.909529260332157 6.007981916951063 12.788343898145499 0.6575066687737451 0.8733973161309152 -0.6284979402462209
P 2.4083983626730863 8.386042972082743 1.4071676284939716 -0.31102814919296756 1.4187105560278406 0.5898126078608811
P 6.382603757017718 7.639641999967337 5.649499234793706 0.2670368312136821 0.5770987598386385 0.17448920159224787
P 4.882305754701473 0.9938795274576518 12.768123553056352 -2.336574844222879 -0.2955557645889813 -1.2678464500537003
P 4.274138249864407 6.227114871006485 8.264019277753636 -0.6611038992067001 -0.7300526584622717 0.7785158961699817
P 4.870536581378934 1.1791806348159002 4.056708204656653 0.39663482872019434 0.20913481669057532 -0.8554453596381848
P 0.39784060838997537 5.579077028236758 3.6535289181833694 -0.9031742902830318 0.34918203455486957 -1.0013786039696109
Ni 1.4000065391877192 1.0848552372408762 2.629810915068983 0.060200580749296316 -0.43439173575399387 0.4152542435935945
Ni 2.0253298774449466 6.485656449271916 4.798234023053454 0.5352054620389621 1.0577101886818043 0.7219300293551373
Ni 6.329814488061007 5.667065178638107 9.171982029314707 -1.1751610093028213 -0.20408696985402272 -0.7979223257210516
Ni 8.582379942733432 2.2099157811935943 10.057260151957095 0.8599766718496351 0.392125370885615 0.55288462448628
Ni 2.696136543988662 5.359790169607117 7.027369769603779 -1.5186102551389717 -0.23591799832169047 0.4519662543026474
Ni 0.7776942986590122 0.010621226263078803 9.112090516918355 -0.6146625770250252 0.5144250349585011 -0.3005961552263662
Ni 1.3934972810193307 1.0340576745387495 11.516620442852426 -0.07504613040256107 -0.06991086605852476 -0.7191668647877034
Ni 4.2035503695599195 6.945559529875738 1.587609877912061 -0.05230703693383249 -0.13229919848775926 -0.32603850655887073
Ni 5.63592213538462 7.995514641610163 7.8312912183515575 0.38356796823390715 0.24621886602706627 1.8059978820948637
Ni 5.760349457034598 3.138974323274802 4.799466164968222 -0.9470213693749691 0.38570326940935507 -0.7314672794216113
Ni 0.6722117247742216 7.366135465161784 6.996682102825773 1.354118788189384 -0.15132459055032646 -0.29031302813280324
Ni 5.262350467706745 4.704029938495755 6.967266412087623 0.5026311276473666 -0.9628585935175419 0.31913046658512784
Ni 8.198270338326761 7.297186215912203 9.217589386581592 0.5407027377081075 -0.45696936394419363 -0.6508179438996599
Ni 4.54922004325313 0.310230882176997 10.425631655668457 0.3491414111249213 -0.8111231406820417 0.007729250323457656
Ni 8.260176190003314 7.1760904756335275 4.675655366936139 0.18412106825505709 -0.049898170382023745 0.02199861575827824
Ni 7.543333949347977 6.138357197734047 7.041772521787492 -0.9396070791887688 0.14891752377073061 -0.3028723528550526
Ni 2.342445726015629 5.256800849824654 2.68211040535127 0.23100950527647957 -0.519229655435996 -0.6251200249129234
Ni 2.3036708265229877 5.404775571329959 11.444936218786891 -0.8254236164651139 -0.934174852429604 0.22179981375275348
Ni 1.159498955736516 3.3384527578815857 3.8554761632248113 0.4641049465477104 0.15327477229816183 0.11107268500881516
Ni 3.610121491006772 2.6622232183992542 2.8136852364921294 -0.6881369920650923 -0.6540626760892025 -0.030949654303978957
Ni 1.2639820552099157 3.2855186375609056 8.122121976287886 -0.6015661488523834 0.8010248759057753 0.35711620180028175
Ni 3.648615740981722 2.880559489952844 7.067213853226722 1.3432419933758803 -0.25010071757997576 0.8617283644334192
Ni 4.472077638729012 6.739200655480394 6.160363741205145 -1.5616476938454202 0.5620246391143353 -1.5014152314169238
Ni 0.7438787477402841 7.415140492234785 11.609028370496901 0.08037525592495835 0.2394890035024005 -0.7334614270335046
P 0.2810152673853318 5.420573423212906 7.939864558215051 0.722525239736975 -0.5190401651330093 1.317240427105796
P 8.485238996771248 1.4024780655854523 7.769438780615467 0.43598890503778465 1.0202348174441656 1.5159288516520666
P 1.7136731146538728 3.143374183455382 10.587417954728274 -0.18983380236911823 0.35929521172947154 -0.32022832763499687
P 4.073256567669167 6.159686561078586 3.7322221376229874 -0.4608540437105805 1.1484870995560608 0.16317351946911254
P 6.927652280004983 4.092739076123093 10.488676401194223 -0.0880235164988355 -0.9970617217618118 0.16362166275012463
P 6.269483894967625 7.684192847598269 10.080793066676023 -0.8088376870819747 1.4633464495696604 0.1585398773518431
P 2.3321793855942756 8.440335073940638 5.928510121430107 0.8588415298039274 -0.018563621934800288 -0.7027760821345058
P 6.8872206430369385 4.0742976868477 1.5834227681723116 0.004595332680166279 -0.30484798852418465 0.3254288979993299
Ni 5.213236802110766 2.9544970580491317 0.3824691627097149 0.03547505297815826 0.2752067686189841 -0.14083834630702197
Ni 1.6630113501054675 1.2314810304192128 6.952015374103663 -0.99203907173624 -0.5266449740634608 0.9331260994501155
Ni 6.6274297217572675 1.1088190847676147 9.138259726461532 0.19015776136744025 -1.3896162097650455 -1.6098129406967372
Ni 2.8802516808044083 1.6716571658924095 9.357102072467992 -0.4746662670033245 -0.3759528748908106 -0.8693180038552191
Ni 6.183270173774905 2.1802212515798045 2.4950294368582444 0.7856339952720018 0.20254147974377376 0.9844391479017949
Ni 4.142921020528349 6.719872051600686 10.49153812095365 0.1987177351223094 0.38102668986929217 -0.8037193920188029
Ni 8.12043083661354 7.253911870926253 0.16700819073092388 -0.7276473914548888 -0.18284502975611092 0.44224542747045775
Ni 7.8301305967977495 3.5793405761632093 8.150133514116552 -0.5209733775999802 0.44059786456470573 0.38279535173394075
Ni 3.2602963938096803 8.22007952181445 12.337767434739277 -0.3778426357143558 0.19291424106665486 1.5246441200378773
Ni 0.011865137351168667 4.864199334205259 10.46850947004554 0.10468477920460036 -0.6950242061032288 -0.17145555697224663
Ni 8.403814423799776 2.372149308839667 5.779444488089906 1.2397082970565874 0.8443037411990686 0.2722852240968149
Ni 3.5906299293425987 2.4089506084982206 11.602880335417412 -0.01592387031910806 0.189577463383938 0.2572141886963054
Ni 0.9568156847019029 3.1309531789949796 12.808126067858636 0.4301609855020979 0.5230518573955637 -0.7589737123719962
Ni 2.911458096529632 8.16092584605332 8.100457644164166 1.5582160424560518 0.6000833936592698 -0.3609121785076042
Ni 5.743601018075601 7.797846849053 3.4618235698956106 -1.0246280614158547 0.5706884854369204 1.1923915142484947
Ni 3.0052674611205137 8.344090395793016 3.5855284453677903 0.4476974517239644 -0.2161996939571567 0.17599638226539369
Ni 3.1316955422353243 4.39146785467987 9.24916517328494 0.2362887513975479 0.31783771591563326 0.49172450803719187
Ni 7.166294902145077 6.238757299385551 11.387244636480832 0.7987263096795857 -1.1940619599723823 0.4127795568008569
Ni 0.47649942563065056 9.147816295199435 0.3418664200679811 0.5305461088900799 -0.5434972697341092 0.45035262995862435
Ni 4.599691690386325 0.4031294938169193 2.0074715149095312 -0.44080098171444726 0.02013045220128791 -1.09237251595068
Ni 5.9883002378716785 5.483710511483202 0.19988582906794827 -0.4580602830155272 1.0365181279852211 0.5820609889399202
Ni 7.875912681022426 8.911554667354594 10.986913489951602 0.269358023147691 0.08023101703761021 0.4617156203799274
Ni 0.4416201225077698 4.972946495705517 5.724376526113747 -0.5085444078080079 -1.460448044975943 0.8270585809653757
Ni 7.694585932963096 8.922264615078102 2.488086529918971 0.9420555407292615 0.7653670174928496 0.48951387353911824
P 8.632634312820674 1.7702737851250359 3.6251860328596215 -0.8330747052524685 -0.886599673753802 -0.06385257567958681
P 1.7577079293006637 3.135497890539529 1.6559543727170685 -0.19064421408555554 0.22189263057687594 0.47358614656526826
P 4.642966035372275 1.1295690426562754 8.055168054576988 0.09651201358582089 -0.3581718967583057 0.6354617731585637
P 8.276806937229088 1.4596581415124945 12.367077202917523 0.7420522540263091 0.7919473390845393 -0.20660819361397964
P 6.329298455076866 7.68748821612858 1.357823106036666 -0.4639493948064526 0.2336011772630558 -1.1534285027217361
P 1.9573493216919133 3.1886583411164118 5.951354086849155 -1.2690656671727822 0.4465939342471406 -0.6727916199572735
P 7.259832670428515 4.237038194267666 6.12464067888714 -1.2211346478194585 -0.7063938813927512 -1.5311698369715372
P 2.391912466811284 8.36405272439009 10.36837734341738 0.13572030835416626 0.31862781591709644 -0.36870699196167467
