# total energy = -381169.53214782715 ev
CRYSTAL
PRIMVEC
9.28700220415416 0.00000000000000 0.00000000000000
0.00000000000000 9.28700220415416 0.00000000000000
0.00000000000000 0.00000000000000 13.59246647034248
PRIMCOORD
 96 1
Ni 8.26257167368066 1.6013949591313068 11.083311032843932 0.48937580529935715 0.13144199269378654 0.9013207820140605
Ni 9.268511904657297 5.978238424481042 11.650144148529211 0.17807717605382234 0.2927080107275411 -0.7284644880395454
Ni 5.518875428415812 1.2222066541489294 2.3619354406380872 0.7952514637571079 0.6964653094251296 -0.5726106421602978
Ni 8.114406838567044 4.205656151469251 3.043136132571148 1.5349663278994918 1.1805816660977604 -0.9567252269262942
Ni 0.8997526463778511 0.930826956161614 1.2376676556217352 -0.2744012419985532 0.42826248292780433 0.5061535389783283
Ni 4.332423733223095 4.21746921842829 11.83668659205598 0.7774455459239384 -0.5324222428668701 -0.4407698713661958
Ni 5.848146095894386 7.238531075170082 1.1201647873885971 -1.1569007775410527 1.6878022128880223 0.9797695103402675
Ni 7.325085936851094 6.933109429665417 3.293523002290224 -0.36373499266838005 -2.0815250101677445 -0.9748476475586179
Ni 7.390819339316568 5.137244641821621 4.954508011848163 -0.5156149415015443 0.3724230073606812 0.6897465026440572
Ni 0.708833238654701 9.083022607194328 10.346286169927547 -1.3681577827809535 -0.729203423088099 1.5311523534700404
Ni 5.304986477839051 0.41140770215297157 6.398708383504006 0.40729307976498885 0.4851136875888936 -0.2511163033286837
Ni 5.809484305210046 6.505424398535159 9.736066036774314 -0.6137562631606721 -1.6320774085218925 0.049402718802843956
Ni 7.187016073266157 8.7140964397825 4.551029552281378 -0.5322484362931672 1.9945625879435713 1.771696794820149
Ni 4.630907987990021 6.6449151734760195 12.320918322950547 -0.31853988418898044 0.40757924354684005 -1.0944815918738826
Ni 6.008374747029849 3.4749455214345106 6.062783578858645 1.4728407622133408 0.3554287867955298 2.0534295374831086
Ni 2.382069661681481 5.905038272145233 4.20734452849217 -0.4539115509544763 0.4786229376582273 0.040121293500918004
Ni 8.29887456577412 7.616289181794211 9.881492134901904 -1.1864484092911824 -1.557148520423486 -1.1171031859281406
Ni 3.6285989749229617 3.8954424127642215 3.1947873083580505 -1.0440982543253245 -1.154865235168263 -0.4004937974549683
Ni 8.860348152416899 7.187944773498786 5.646976623703711 0.19122039830399973 -1.196138897106069 -2.0841866161603075
Ni 5.365955648111138 5.730628368457526 7.384718707488429 -0.282414599221333 0.0814008689759953 -0.3884558924538278
Ni 8.780572802434076 5.138934876245005 9.383844400446781 -0.6125678992795256 0.041599934928973514 -0.17399966355033905
Ni 6.060428395068699 8.65566262114549 9.31051330137817 -0.08646208554898657 1.778175717676273 1.113691074922798
Ni 1.2539589151025115 3.635081302546711 3.0970434662743243 -0.3396190734567828 -0.11589556031875525 0.7815014611608669
Ni 7.120957625719264 2.362474086773011 3.9003450212922695 0.9716831337877073 -1.4201917685590575 0.6157460398971911
P 3.3015293269957176 2.675715388236411 10.58845032778693 0.40863313873265106 -0.16673346890622898 -0.9728833247433956
Ni -0.028035602622601047 8.520230266221219 3.488628990662065 1.1253947365129715 0.16083767224708428 -0.7592740172212343
P 1.9494532323159635 0.3649011806036145 12.971345603975216 0.04313025553057088 -0.35601422698535456 0.20119499301820834
Ni 1.668038487824756 4.134592009668488 5.535382146350558 -0.772761767295024 -0.5389888403407943 0.32660054970992786
P 0.5288009837586596 5.602124117268667 7.135379411631758 0.5351347567020267 -0.3917800717310543 0.4418425356050842
P 3.9382183454791084 7.7486475389484815 10.335249496362986 0.6509657823314337 -0.9928962775302127 -0.42604644911309203
P 7.433920317112875 3.482811612404878 10.663779061055923 0.48716928456634156 1.663714575811199 -0.4278210245150116
Ni 8.204295734083194 0.6386383602716789 8.833322975647398 -0.34810705632313593 -0.36806935837767574 0.5650899083032204
Ni 0.9406990396344591 0.12677129655477454 5.491384044129531 0.42050315069735966 -0.8138317978624564 -0.10245177610902355
Ni 8.373932118575189 7.811557692706762 1.371833263428701 -0.6336455458854312 0.16280328061388735 0.015773975004805093
Ni 2.2245156672159894 7.146097541016528 6.918253012044053 -2.132406370398644 0.30976548043046004 -0.5770450237825675
Ni 5.287108998360945 9.272245279592466 11.29228158698869 -0.08217271414501331 -0.5559488652339006 1.152852318503292
Ni 4.885306842714054 2.335012420894175 4.648990710219538 -1.01333423366959 -0.4485875676384016 -2.024825757703487
Ni 2.865597437799715 0.4561283331549833 6.957589039097282 -0.8265024513515895 0.1722564556069872 -1.036675736609008
Ni 6.522772518880667 3.622274526338759 12.88279032199312 -2.6111349803968 -1.2385957807186991 -0.18476564381759147
Ni 3.13042559613617 5.725520517178067 10.513610090840297 0.4147315383209051 0.8591138096287074 -0.4603904738106006
Ni 7.251941506529243 5.552067174729969 1.0078097045449208 1.3434381685470862 -1.3522251707110968 -0.3920279260758023
Ni 2.0602378830662644 7.491713332589371 12.053120181270144 0.21792516128869563 -0.055698579113884726 -0.3042712900851082
Ni 6.097130628262192 1.1421805551032977 13.108316815184953 -2.1520657965007843 0.7731165795312815 0.10909242135399276
Ni 0.0076859231252367245 8.345764640519555 7.409035794379584 1.9088350665677642 0.6258275925029092 2.3291150455107243
Ni 4.078600672643292 4.264823643290038 8.863579100526213 0.048271947632510415 -0.9417344099444169 0.5364357349016374
Ni 8.050985899680818 0.8792655192460578 0.09849051707075945 2.1076127083937313 -0.5739015930575793 -0.0159287554151145
Ni 1.1596958414906786 6.746329238879095 9.607793960643612 0.08004924004410731 -0.9854817302336963 -0.15420988251792153
Ni 5.817443266203675 3.7213668411602616 2.48226991588051 -0.21166143976717094 0.6839237253146931 -0.48028849828610837
Ni 1.5291142200257999 1.6620390843219737 9.469395337176323 1.3814750687151498 0.6889067803515813 -0.6605644817634623
Ni 3.7243293949023477 2.879825125363589 6.647899087323456 -0.4116570131606394 -0.42929683772958965 0.4767084942443338
Ni 3.9829724096894945 7.853033445095968 5.614912319471966 0.89738056641939 -1.0289626842354667 -1.0587645980882476
Ni 5.618144196281515 2.30907382339685 10.707995407831618 -0.3165228537589516 -0.04237820785589475 -0.26223323917745156
Ni 1.5839075337509048 3.9433076227539146 10.479561154211423 -0.874242951960662 1.4685758162893998 -0.2194544534490285
Ni 7.864762929034071 1.0226382611593066 6.488010340473135 0.6827618437961079 0.5251817592543729 -1.0408614925555817
Ni 8.859298721154028 2.8214563157428634 8.93980588692016 -0.12474735428243032 0.6538209923920416 -0.02264884774776745
Ni 3.28926119692269 0.46084705903697076 1.8054740491508081 0.469826679522836 0.31867306733273504 -0.375549725915121
P 4.3999681011421945 2.833455122748429 0.9160931269709566 2.556319060998185 -0.2721700386751893 0.9716373681514362
Ni 7.602497983339672 5.850950770596925 7.2821094048859605 0.772551965277063 0.20363317014605573 0.5241918845372778
P 7.499820885620221 8.961047118640849 11.236171376333717 -0.21173394487631922 -0.06306787499476237 0.6777204247174586
Ni 2.3596786990727985 8.413448313473548 8.82331901674152 -0.548951607980461 1.5723589096153372 0.7908420218355025
P 0.7867576890738937 1.3707801173649 7.458485366966142 -0.48963702938054393 -0.07665821208468733 -1.1316206628180254
P 7.859014274594099 0.6311233179892457 2.207008739130702 -0.2972897165609525 0.04329197791941576 0.9633687003847409
P 0.06878882623082216 6.010278582506739 3.713760786255031 0.11018668285943603 0.06633677555402123 0.2873027805515697
Ni 1.6797865457675119 7.950723422566202 1.2291161838796882 0.6465709956978478 -0.5847917576075219 -0.15095512302604971
Ni 4.894612419044996 5.113804247950068 0.4224675932233491 -0.09854035686975932 -1.6000905712026507 0.9568514680915134
Ni 2.561921748732393 8.289299666375717 3.6455811873768136 -0.16919298619031506 -0.19026677614147877 -0.19843671354678086
Ni 4.620970895500892 5.102344087079427 4.84962896587715 0.9394821235751305 0.15083659517031445 1.388208016563609
Ni 2.2304779227094667 5.431958373644073 1.8297224122247486 1.0311712618510112 0.38180136325178765 0.1473470939598172
Ni 1.2071431363756886 2.2335983554911 11.943319952766428 0.781867329140718 -1.5646913657677504 0.8965801820052818
Ni 2.350029503655785 5.114277885068708 12.717642345725423 0.829560521451623 -0.7146694911379821 -0.3121697189965785
Ni 4.601644643659885 6.038613226604245 2.791307920091032 -0.13455765550463278 0.4221391436388859 -0.4511527572624166
Ni 2.412085253200047 2.9425774000823237 0.4698684530967278 -1.7315631600240566 0.09400210267977359 0.6699225259395947
Ni 3.235387296427888 5.184738371718262 6.801031539981402 0.23884057128512412 -0.14214498093358743 0.1285304754739464
Ni 6.807307696153508 7.576522237833042 12.72818959426739 1.1580323200423346 0.3844236313659831 -0.7675066895436717
Ni 8.492304250226068 3.696134055839735 6.5843267702993105 0.28552460560522436 0.059936785564948386 0.377657259176427
Ni 1.9741659455062186 1.3328705738689886 3.528862142140014 -0.10262301157956519 0.5450579293530097 0.7423361038153151
Ni 8.731797466216406 3.7354366496845897 12.592713590432183 1.5936453297979392 0.5799699107388463 -0.0156832150632117
Ni 3.9166260650704863 1.8544007635063964 12.54323708553888 -0.4922852656366683 -0.20698460311679193 -0.02054825646499687
Ni 6.876300836435509 5.371815746579027 11.561303755575699 0.23208911149390352 1.2085246723649314 -0.3935402489552706
Ni 2.948753256629306 0.2526575417878537 10.846652209963576 0.0906781805128632 1.5823296476748039 0.8760465808283041
Ni 7.046819486148499 8.309498896435397 7.5284592146937985 -0.31397360497453664 -1.9390565844564671 -2.9669046954715164
Ni 4.2656594734994036 7.746762277476244 8.012758740705348 1.5885648299512383 -0.24076478489103048 -0.2691106830235752
Ni 0.005030769160150718 8.326066908585496 12.995241060960756 0.35243422294358007 -0.16040058470966567 -1.7721171701870189
Ni 0.2878014159909963 2.233635503500405 5.087673409504588 -0.32758502511038423 0.70538780872574 -0.5587734791668892
Ni 0.6655437347111706 5.9052611602010625 0.21600452970668915 -2.660330468284844 1.8777393736042243 0.5749089512761711
Ni 4.04955092936666 8.809650406717687 13.305978586596991 -0.42740296314098647 -0.24402597214080557 0.6245662092919825
Ni 5.258523605200628 8.343517185956593 3.2737324003329022 -1.277747511217496 0.09071854683249538 0.26200595365799395
Ni 6.637318405573115 3.8156577757790733 8.610746034394394 -0.3757099056420691 0.5673583926224228 0.05171362632420771
P 6.354306296681786 1.8618025043604487 7.743709639811593 -0.7882290096926877 -0.09795363112835388 0.36414328385039224
Ni 7.678697837426872 2.9719800494473545 1.0634871408914883 1.2376385590117525 -0.4006007553464778 1.350721589582377
P 6.135198050797651 6.982850614125021 5.6094617778066675 0.3525203548994832 0.024972096564305383 0.04791225030024651
Ni 1.7107772725303378 3.8266907345427046 8.124475806489206 -0.438934875039986 0.363159065560252 -1.0642613595367607
P 3.70863436097092 0.6091725592908293 4.738415255619374 -0.7863451624064134 -0.8981840361572919 -0.1498652323959806
P 0.6076949972207166 4.002289374528176 1.0905225333635482 -1.5607192684938798 -0.7974854952939492 -0.37597395793673316
P 3.667214330595671 6.8680168303604585 0.878917256658822 -0.49917607921923063 0.48525946913813844 -0.278059921797063
Ni 4.340382694216725 1.0501649360544267 8.60802772881349 0.5532957438817696 1.006677647585021 1.1559654102109767
