# total energy = -340896.88733746234 ev
CRYSTAL
PRIMVEC
9.01522292928933 0.00000000000000 0.00000000000000

0.00000000000000 9.01522292928933 0.00000000000000

0.00000000000000 0.00000000000000 13.19469002971959

PRIMCOORD
 96 1
Ni 6.348402650702684 2.0426331059585183 11.373545499517899 0.4781490833456023 -0.5637647617338936 -0.10457087933455539
Ni 4.781385650470515 0.2235063035194998 5.959856467654189 -1.5462519281156402 0.37237595617282965 0.01584725144490174
Ni 2.522134772682804 1.368889450228415 4.826406771276983 1.070586016203208 0.03219689644751875 -0.6603734487985788
Ni 3.495472310276889 4.132487948592637 4.82474346268274 -0.10434410803572997 0.9218667244862122 -0.13574550516514688
Ni 5.107105647814811 4.530663291042278 2.5385127278218955 -0.6414105345428308 -0.13120545120294824 0.4918916297426754
Ni 7.393122721896883 6.119488115065641 2.6067696837004695 -0.8974998656060736 -0.5144656583884495 -0.5670362333963137
Ni 5.059676561016352 4.613459096622406 11.40716596965618 0.09191025314775139 0.2128055806739432 -0.02753497219547516
Ni 5.441327000196353 7.880765134749092 12.527949278093482 0.39646616435281395 -0.8172745049954184 -0.05955934762087162
Ni 1.8459029154783846 6.454178259029299 0.30531764677718093 0.3629505490938717 0.39333764602616134 0.25594560639652697
Ni 2.882860879899447 1.771878921617493 0.4423048577278125 -0.18248121865878894 -0.28025024458016246 -0.712068048959393
Ni 0.43366016064911206 0.0005634514208142407 4.880834375483092 -0.09497140857157838 -0.4254378689948157 -0.6634397464287284
Ni 8.429846290526887 2.3489072678676735 1.2210533202408578 0.3685038748119331 -0.32784342097809344 1.0042615819443608
Ni 6.7834502541304085 0.7965904898239807 4.7836556835546915 0.3374691169933156 -0.31776289681363984 -0.7115921377642391
Ni 0.6768133390706994 7.334334454454808 2.5462054173799884 -0.0543772891992999 0.04147857885976083 0.24899025812461634
Ni 7.566873109630529 3.7173459569594374 3.7629674915999245 0.9200155302100865 -0.05571683394632985 -0.5148114717636424
Ni 7.386640776751836 3.8960817628644477 12.629138842615806 1.6869997715913851 -0.01580508535305665 -1.2364617650948317
Ni 7.95242714025393 9.117455358820386 6.895532010758777 0.1078166399653627 -1.1391455104401609 0.29159780838249777
Ni 6.720136344876354 0.7370792015187173 0.33630747492196417 -0.0303223051326252 -0.3693047734466737 -0.0493780362124956
Ni 1.7416779254618497 6.3821015532787415 9.20147543164766 0.49766118523660097 0.7404203748498409 -1.4156018351955297
Ni 0.06782061909829522 4.801291262265042 1.375532767860383 0.03868121862028177 -0.18924476263486764 -0.05170051369808515
Ni 6.441701190766788 1.973134753909607 7.06317007747943 0.4597479551305953 0.6858183712342447 -0.6948411435581452
Ni 3.3403834336006106 4.198019602639016 0.26623936079632515 -0.9228581418652041 1.1682054039205945 0.3545576970444861
Ni 6.104522845328814 5.6379309775582245 4.778324982352653 -0.3387284433217134 -0.9563686149178239 -0.5006490642203314
Ni 5.339527105095002 2.828661360828484 9.13361514556934 0.06627558329878264 0.2515179096424765 0.18969650546030556
P 0.26371239386425743 5.510599971676939 12.354174549258456 -0.987672567237428 -0.027752744633236074 0.6962274823827106
P 3.9316017404325776 6.158731379622511 12.594503258397788 -0.2837009221329243 -0.3069984592082842 -0.2819965378473079
P 2.2443036384963513 8.362187043915513 1.4596493035708997 0.5373716164523455 0.43342397252408577 -0.4885607655972296
P 6.437211609845741 7.8327410432502536 5.8263788829135255 0.856645293483557 -0.8493500453737244 -0.13957284933103703
P 4.695317319038298 0.9392690108859728 12.600638117467613 0.2937567637070295 1.314343050953343 -0.19919261787619888
P 3.8610846682148336 6.197460776483599 8.213984895884995 0.6203267172893382 7.481910199341955e-05 0.12609744055242156
P 4.609131789710552 0.9496996235880859 3.8514113342222944 -0.019860229259036764 0.6904946936639915 -0.9175830095091939
P 0.2399158119381571 5.435881805665605 3.5606262264907547 0.4963303822403194 -0.3455441806919662 0.25718127857584094
Ni 1.5271156244157866 1.269848213283371 2.419866085999336 -1.0969542217840913 -0.8036029210455966 1.0436745365243445
Ni 1.7465822066286167 6.341046228952533 4.904346977893102 1.2900456118585588 0.5267539888374994 -0.6996311087476209
Ni 5.881873889491225 5.640761757496396 9.25161539592194 0.1538185606167738 0.1544374251476953 -0.022091432582400664
Ni 8.610457262760367 2.4437744566873256 10.286329471404754 0.7139084446022415 0.4808225164127074 -0.12971858224477661
Ni 2.5246500198253186 5.0944122142067085 6.9042271930847825 -0.9164779493704733 -0.17139513604795642 0.29630164161607037
Ni 0.5506507060556145 0.24751203861300636 9.329028212008177 -0.5823288978893262 -0.7614404287449338 -0.3232781702049142
Ni 1.4296159905580905 1.1285075512749605 11.549629026894852 0.8570163036697306 0.6168279601074603 -1.2641399477363906
Ni 4.167827621706106 6.796152702961245 1.534753321115208 0.01322935420608044 0.4105714934059445 0.10218438138024982
Ni 5.746988126959663 7.920873860688334 8.033481204802039 -0.3183611925192711 0.2701568648999025 0.14325261217546942
Ni 5.492515434874486 2.8710148772282484 4.7589548747884685 -0.4896077188045052 -0.005015965157352652 0.2770322518634971
Ni 0.5327645041532872 7.357882216233477 6.750667298184026 0.4181871009696733 -0.5562332292435387 1.152490307178183
Ni 4.972896026988225 4.613323868281411 7.0109196495633475 0.7540953012337723 -0.8724958873625683 0.1409177933947057
Ni 8.0241522523179 7.24159485820015 8.9276191091642 0.49811138540014216 0.23551279246347182 0.4602788879334008
Ni 4.715953163874199 0.30621556296139046 10.433582316481484 -0.7664389104007897 -0.19527605643061208 -0.78682621580789
Ni 8.161760612114838 6.889397151688952 4.763744662626526 0.20078850160840905 1.037042633030124 0.5114860069348353
Ni 7.053366022757262 5.960495646945962 7.047626931965417 0.7129383673794882 0.10524965056913488 -0.386620896127618
Ni 2.4624449829674266 5.411053882258845 2.4915398112937273 -0.8147195997840485 -1.0807135915555128 0.8413071204645899
Ni 2.1921415597630522 5.223942934434853 11.28714630941138 0.4514132100126548 -0.5981321834701699 0.6711227168952829
Ni 1.2149635372846974 3.4495307352293785 3.928191281672673 -0.44435938848966694 -0.14346035731090132 -0.5884519800679285
Ni 3.5463091512684333 2.701537705070058 2.815548719363295 0.33460696495417214 -0.3033017270829873 -0.0848857422008022
Ni 1.2861477359846856 3.2292347525251106 8.211609384694842 -0.5137814878372313 1.2909802078576864 0.26649715666012813
Ni 3.832731792719461 2.489860275298564 6.89320968938275 -0.09633974967401472 0.43239296015641016 -0.2542314519188976
Ni 4.515779158310049 6.796134672515779 6.139396431426985 -1.5922078260204644 0.21130842730312638 -0.4452019389956204
Ni 0.6454881446402476 7.334073012995551 11.182723886016992 1.013719642033467 0.5576038843388204 0.2839606035522142
P 0.10545015878595347 5.497131228913796 7.943031475121569 0.6269089984925461 0.7391962726347528 0.614474115163303
P 8.67680028685272 1.7648650783311972 7.9911132640459 -0.7711154899408527 -0.3927722604409945 1.1662752767774174
P 1.8920608558714873 3.153425744563079 10.490385431877746 -0.07627434638270734 0.0073916644783808185 -0.3191772606626632
P 4.166042607604966 6.079433480462797 3.777481098677826 -0.880971014713115 0.18697807808787797 0.5170506455068064
P 6.913855450963656 3.91577100931338 10.334542882580987 -0.5389335616228266 0.8319259363600059 0.1970344338826155
P 6.211001641028606 7.737188697502891 10.252736046934672 -0.14772607456579073 -0.7330454225420084 -0.370961078103174
P 2.3390806750886735 8.403350550914517 5.8382149688397185 0.4653555311253598 -1.0848859777656477 -0.0910641030973722
P 6.825650511743713 3.8905013399927033 1.5128499359630436 0.9032316258835283 0.15997223892299545 0.4538261903295217
Ni 5.218019933099254 2.9924679578875995 0.18614541746928578 0.46492872800058643 -0.8421260168214594 0.43136349045063127
Ni 1.5901680922105834 0.9692987178096886 7.116661901565851 -0.8243339829453609 0.33555878734448014 -0.6757604727776104
Ni 7.051860480560848 0.6288929226332899 9.370367515850479 -0.6999229289564268 0.8242373094664965 -1.5656336750763618
Ni 2.771045072341703 1.5509518733219125 9.07735294353706 1.0209920073251642 0.00158945597430694 1.2246920261534133
Ni 6.06431495193951 2.0355832017812907 2.392382277975427 0.22931951916856633 -0.5121421524615954 0.7768109976637332
Ni 3.906323055889167 6.84746735075764 10.459602052333548 0.47057075677771215 0.6894734514883287 -0.24013049374114126
Ni 8.152556069704415 7.223077590706511 0.28241267037937706 -0.5288011011745151 -0.8473278727373731 0.7056654878671589
Ni 7.687027998216324 3.7676869607006647 8.246272014581061 0.28291982099252566 0.22186589110399854 -0.17798641611222896
Ni 3.0468207357450248 8.485019453653017 12.45580045056106 -0.479635952303774 -0.6350092590021773 -0.13573624919376623
Ni -0.06585439902022185 5.100659763560697 10.207636493690426 -0.6598204045085863 -1.325232444172337 -0.611406789091889
Ni 8.613946153958048 2.306346401345049 5.747923907079351 0.4455837478150713 0.30683930792260056 0.6837730586694417
Ni 3.8974701071653337 2.546611102402974 11.182433595844987 -0.8949470172772329 -0.1039998373224338 0.6451874850867598
Ni 0.9765289264415768 3.3250936158453954 12.643784973467884 -0.04486575016443886 0.4186504137593371 -0.4241096371016954
Ni 3.2380877012489435 8.344724557481637 8.053128079704125 0.11821778069402865 -0.5171172370786836 -0.3310603852534944
Ni 5.546543664713521 7.889591037804727 3.619830997223095 0.0026528642418147856 -0.06011933388939968 0.1652640834495541
Ni 2.9538467436993088 8.25374292965992 3.5718023981128892 0.39502917479597127 -0.36140274499077757 0.25649427981114536
Ni 3.491541673165289 4.375556383920534 9.32219377165427 -0.3468988949476477 -0.41262657616276033 -0.09303562500144623
Ni 7.22077870890959 6.294257222968119 11.491229315552571 -0.25820612029592954 -1.3064626197640017 -0.4485472013187694
Ni 0.5217848643867325 9.003151349788327 13.4060689347036 0.6105693807922581 0.21659487251304632 0.826611723235944
Ni 4.412095081657496 0.21198034125532367 1.5356638586112439 0.1686815937715353 0.13568791245433404 0.6833004899083974
Ni 5.982123166282495 5.564087288151994 0.3856811452639378 -0.19140268951813488 1.1171312109525988 0.2020159462576069
Ni 7.8117445895050315 8.683823145361748 11.343870992369864 0.3026530377553949 0.7996123118289649 1.2761590836844539
Ni 0.1746960845983404 4.717972573766398 5.896179244923993 -0.040573293436672056 -0.1835752230539161 0.03961350062656404
Ni 7.937290581285177 8.985211056549602 2.31527237337302 0.08949007374203298 0.21259243622187257 0.598310360919247
P 8.50994654450984 1.581847041627999 3.7253622930136454 0.4229613824298651 0.3960571018398534 -2.004894308886883
P 1.7552818965659887 3.3004910730069623 1.661290987395987 0.09586255292728006 0.3370212308226196 -0.7668397453836341
P 4.843734930892136 1.0139240703381764 8.060582767382066 -0.414389581600454 -0.9466261908190794 1.4871607783804388
P 8.446028615332672 1.58024233198152 12.330635802702522 -0.670950967204109 0.36998817266694345 0.3680706439292564
P 6.316984599478082 7.673721529462375 1.5082981500051378 -0.23985589992351594 0.42747675380171546 -0.770958395537698
P 1.9143284560220661 3.0132300158417626 6.063381876386641 -0.5830758033576797 1.148317920968048 -0.09557381804226767
P 7.045189215738406 3.9235872074229152 6.015617423302513 -1.294934307409428 0.48338513493356094 -0.25124794381054144
P 2.4159174184422696 8.587946251595996 10.131437126584055 0.10821978894105232 -0.5667901788237787 1.04951582579647
