# total energy = -340888.05557261896 ev
CRYSTAL
PRIMVEC
9.12743085935893 0.00000000000000 0.00000000000000

0.00000000000000 9.12743085935893 0.00000000000000

0.00000000000000 0.00000000000000 13.35891767752527

PRIMCOORD
 96 1
Ni 6.560085503300172 2.0351980671022445 11.312746156009847 -0.6710358136084313 0.17129023503897595 0.30920600838256423
Ni 4.740313063977363 0.7524599397830652 5.812211184879551 -0.7581579013389201 -0.7040474926477616 0.1302564570261176
Ni 2.7168985103681806 1.6934487935102784 4.434680122330166 0.4529517581443683 -0.9545189633035948 0.029715267676245598
Ni 3.6555543927175265 4.045332208525211 4.39047506098373 -0.6502826402214801 0.9129298270078988 0.7114458419943618
Ni 3.938577774896354 2.73333701369971 2.340776244163106 -0.23932136757628458 -0.23907891254817537 0.5755231878214023
Ni 5.557282035490533 4.5119629938228885 2.8250640448382662 -0.8072119785530937 0.19946464059066293 -0.2948957624074792
Ni 5.180045309953543 4.898893051141158 11.554288102269295 -0.2139975440995153 -0.436761521537751 -1.1190970764297177
Ni 5.900783775845216 8.041558837970117 12.035249867067716 -0.8959698021147924 -0.05870779825385373 1.1195598749987494
Ni 1.8820032642613822 6.463006146590485 0.3848252717167972 -0.6086899043813582 0.9380731590427458 -1.6532309026710559
Ni 3.026145001970376 1.8377169687785495 0.28708965271419545 -0.4572167040683094 -0.6142954234935937 -0.3673921298049931
Ni 8.290609921759186 8.74535679182219 6.79757852114326 -1.5776227291174378 0.7619502785018168 -0.046921347141886935
Ni 8.818878248976809 2.608884491253621 0.949633443680179 0.14651251387366382 0.22887368988039938 1.8939303815417896
Ni 6.97386846278466 0.6583543001113628 4.482370949596819 0.12319620774522656 -0.37384251341602714 1.5975732040974358
Ni 1.2026211884836242 7.631508997787458 2.4270879704562454 -0.6907464046634814 -0.37579526626702375 0.16917036048249576
Ni 7.778561039527754 4.112008092387967 3.842212183295231 0.6083762297956813 -0.3821564325983612 -0.3185098022819934
Ni 7.789304025880453 3.7591689900631806 12.29455927062042 0.27363890991123196 1.066047504902906 2.238737941178048
Ni 8.486813179735067 7.425375094822847 9.312408486339091 0.20091937075931848 -1.0623314895038993 0.3249918104619112
Ni 7.051889743449799 0.6501359611887034 0.21306253587908294 -0.3421320696866237 0.6241484050282734 0.33533561559008057
Ni 1.9878540822157125 6.838882884900157 9.15218099786972 0.00845224453241125 0.014696425669910175 -0.834631508216627
Ni 0.2631566157427331 5.004488301025925 1.4059995200124835 -0.8791825553541245 -0.704324143347916 0.11666483438461198
Ni 6.673575981048224 1.758773817576773 6.805634391793126 -0.39656643737610414 0.04434972975996878 0.9151965115548883
Ni 3.489572058967462 4.5567969351690705 -0.10126428384878126 -0.6563946666564889 0.12126402371952019 0.4422307721824384
Ni 6.2443128984930665 5.879653772950996 4.913931406548725 -1.6193044251269402 -0.8768315386234448 0.05428652925770651
Ni 5.6001992163149925 3.1174284399596193 8.99664318347683 -0.8207364954020898 0.23188136635847165 0.8884837781503925
P 0.19734601234406862 6.153029460503823 12.401351126716607 0.20990229098421914 -1.646324662469526 -0.8800567304289617
P 4.115385241878619 6.660350333448342 12.561229947319644 -0.13835517487385204 -1.2880257532150525 -0.385131198955969
P 2.569289695333479 9.005050460222344 1.307770106989762 -0.5555806832612045 -1.1197326531311877 -0.3548690576373179
P 6.490634880396447 7.938081152090299 5.921473836562546 -0.7304401237086775 0.23946483513268432 -0.13784275401380777
P 5.0275076821487 1.2928914816256718 12.78145204011891 0.18656952979554964 -1.4261251033243567 -1.0262542841653681
P 4.1554090270583846 6.387996918173767 8.158077797342488 -0.6585510508778595 -0.05661312050835412 -1.0095318292043645
P 4.9115071608603 1.0600415879606795 3.64250946825255 -0.3548955399998791 0.13025491436422085 -0.886449521329183
P 0.20957311898644343 5.917377445504695 3.539485415696207 0.8282562008179025 -0.7368714811563181 -0.3872153351785073
Ni 0.4662903321192964 -0.030167072382586594 4.650051898266371 -0.4645633742413677 0.7516206144410346 -0.33185254213748655
Ni 2.177631628728296 6.480147462113313 5.026640576198398 0.9965449300263932 -0.19928826291379872 -2.4127990540939415
Ni 6.107501834397399 5.96632785825705 9.255446014605937 0.01999932594006233 -0.8651276199229553 0.2954408362776718
Ni 9.104457311851267 2.626363521725514 10.239370304019722 -1.1772680283434949 -1.182088332550274 0.17127866507475017
Ni 2.393367589163628 5.154150788048185 6.976080039329485 0.1318752235764632 0.6080584414449464 0.24525341679000343
Ni 0.8245109677945931 -0.0635013633415423 8.520491574844828 1.3323482292815119 -0.16340131920920248 1.6508405480620083
Ni 1.5465884278221544 1.0959762840274379 11.539968075685822 -0.5004040380890608 1.4757466230062262 0.5948859086187304
Ni 3.8502333697070847 6.6671320147228155 1.4870346784122537 2.4944477774146847 1.838783046945685 0.4703149320131642
Ni 5.7847011076773125 8.518147650549693 7.976209169839771 0.9011660016037514 -0.6335303604638057 -0.630231892218192
Ni 5.720498757630684 2.8208964598181794 4.7483744110858614 -0.2628991548962247 0.6077977315843919 0.23860505823555037
Ni 0.9458574254523867 7.462441592340527 6.669987075157076 0.5401774613322567 -1.0104355719655564 0.9267865303853329
Ni 5.205173127650212 4.686397328730641 7.149559644948798 0.1611426050820128 0.06567137405588044 -0.5917954426188646
Ni 1.0631996791059928 7.806856075800793 11.401662851126316 -1.1290976392858554 0.12223641493511851 0.059403281658981566
Ni 4.671145391436368 0.5122505984577662 10.578419683505375 0.3430196144978995 1.4593735809648416 -0.668139723007559
Ni 7.998933734939442 7.286519486170676 4.599862893119741 1.768072053583368 0.9146876902392699 0.06270200701491137
Ni 7.452392290748071 6.211499783847398 7.364931420885004 0.5414483576248804 -0.3034868465105999 -1.5961714386539028
Ni 2.4139864559187227 5.247560917473435 2.397057809539496 -0.24779392382366996 -0.7659372881740228 1.6055194555277057
Ni 2.3178654794698956 5.70863309725812 11.264305966653511 1.72808291478494 -0.12773214794236712 1.0065190105199697
Ni 1.1765806276813733 3.313942030591397 3.5199682298695496 -0.9828774598416299 1.3953461702702872 0.10561269033550842
Ni 1.343493959399131 1.3476651953916403 2.289959271759835 0.24463172404560446 -0.5952895718150523 -0.08216962882121978
Ni 1.2183294973306884 3.563768946020213 8.371633214498585 -0.4539616874661214 -0.7651849833890305 -0.9705374502190381
Ni 3.456037877268384 2.9357651796556583 6.671283170367001 1.4510254661104622 -0.23407503157568074 0.7669382186347113
Ni 4.419173529709435 7.302483363087303 6.063559643065371 -0.47968763147731586 -0.7007181711642125 -0.5885674225998703
Ni 0.3771646188316485 9.021507218415985 0.20763262714397637 0.9830114143163329 0.2967158463353535 0.02283345295474777
P 0.28419899529881765 5.40297368606086 8.15472437917258 -0.12840423430872727 2.8091477190322847 -0.406873218618751
P 8.754712408654404 1.4761429149333454 7.813203291357009 0.19959448130030788 1.8230733495199118 -0.01366567041255066
P 2.059148446192713 3.4535917257454245 10.48512090873901 0.25520050070038636 0.658294454782363 0.30721828852857413
P 4.087674361193153 6.142487277634352 3.7917822139687267 0.709352706910759 -0.029360198329672016 -0.16019618200834346
P 7.127364470850365 4.081367306333583 10.379878890436101 -0.8693596557264319 0.669169449823654 -1.5717493010557964
P 6.555631316944933 8.133745891633886 9.916512074483984 0.1497644451520582 -0.2928190823841086 1.3926475403922016
P 2.360873934604914 8.67790507631969 5.387985531524101 1.3826366931234186 0.0744167243486783 1.8282242975932321
P 7.144158943993071 4.022121151350263 1.3805777990358172 -0.12975792012314427 0.9291686574642644 -0.304522743974282
Ni 5.32019701381564 3.178837796103168 0.29296680557103716 1.2970063594471082 0.46914096630972113 0.5083294635837246
Ni 1.799774237879511 1.2337274735218549 6.7678011900667565 -0.9996942742886527 0.24023179520569593 -0.43068291944383885
Ni 7.2018534356969015 1.115609388228504 9.240390317079365 -0.4212220311412552 -0.4716297941698458 -0.47853346326821455
Ni 2.484185528169025 1.828881615516517 9.201462736369402 1.763465665159608 -1.9853482684341548 -0.1183980150256348
Ni 6.750100363020207 2.0120326470825765 2.4357845867662293 -0.9279602389784599 0.5394716935144839 -0.7380035378782323
Ni 4.377068690248944 7.500274794066896 9.971336901863864 -0.9456180612695392 -1.3653956466547839 0.5076789744839192
Ni 8.244981893911149 6.962440919102776 0.6203440262225111 0.2384621048997829 1.3797897105929269 -0.46534858914682437
Ni 7.787515049393512 3.675625613609271 8.163020301259213 0.5326706114322504 0.31591401653035917 -0.07685515858684185
Ni 3.25093537401308 8.688903630741951 12.530811870583022 0.34315022653849286 -0.13826518626320705 0.5073262191301907
Ni 0.2598880826816444 4.9921936513937375 10.449011878739084 -1.0467058671515004 0.8193858949114663 -0.7703760406716669
Ni -0.4183804465073037 2.5320589040567945 5.851353260219324 0.6927102132580715 0.029439131196723492 -0.8122482554254205
Ni 3.9416902288863884 2.579585437564443 11.434445845249503 -0.6590670712823296 1.6280469472062606 -0.7429703949652043
Ni 1.1211862486036093 3.6151381280023602 12.36960957247689 0.45185235443260247 -0.06035099028423155 1.5580206386157942
Ni 3.4899919207960295 8.775687245220675 7.753742641743877 -2.3201722344951397 -0.13621318883018474 0.6876381980518028
Ni 5.839401801994835 7.969004888507413 3.3557602687167365 -0.9630483409308447 -0.049893285286017296 -0.15317964148119428
Ni 3.237810128154813 8.304155029446022 3.4548029358465313 1.106112748354908 0.4071997487202342 -0.10384737090496954
Ni 3.358931138265528 4.553574952006367 9.131955523393133 1.0968169248752788 -0.19364134904066652 0.3199578475824296
Ni 7.2665943041758245 6.173128063688736 11.470033698936138 1.2314391150692598 0.0746722920029101 -0.39939156552972505
Ni 8.282258322343113 8.902795850104006 2.541320508349134 -0.9021455919082011 -0.4878614255373598 -1.063107962658608
Ni 4.767312005040475 0.3237536305223138 1.4339458884191894 -0.05542192841373036 0.029633249485400578 0.2497806152363956
Ni 6.058076795230141 5.7627678908501805 0.2536604364722592 -0.13291009259888079 0.43599944656074585 0.8427196845414002
Ni 7.976671930594301 9.159650887445803 11.356950304613177 1.0918760359302355 -0.8883454528003153 -0.4875873459403667
Ni 0.2861194067929619 5.09773413669217 5.648952476556542 -1.1006473543649624 -0.057182105637946685 0.08795769625790659
Ni 7.326397232453549 6.2066074808014795 2.5597560935956767 -0.29420747809120296 -0.5687269908351754 -0.13971477422554004
P 8.584376290290713 1.7051410326927823 3.467855162256352 1.2938385032420878 0.8421527562943366 0.3496525464333849
P 1.9780786035549305 3.4582558430149475 1.1987529832021684 -0.6198536343076615 0.14017834412551985 0.5934772011966617
P 4.787319333914829 1.3635104157045417 8.118481175936134 -0.30310323791893606 0.565343419074923 -0.31689514949670583
P 8.727074547417384 1.733901567949667 12.464538506429827 0.09426589786412153 -0.602277058876479 -1.632726354959801
P 6.356242585530572 7.949965067324975 1.1292558104000587 0.4267858983822778 -1.5122267202101312 0.851782823184933
P 1.622044900360608 3.3689439301337614 5.679022798169938 1.4374801233258598 -0.3160569698661267 -0.0005694993502248257
P 7.11414795068154 4.122486383240046 5.984942341152287 -0.44246114302568956 0.1536205856733548 0.6070197157677869
P 2.521553230911547 8.858144457378943 10.29296657917949 1.2124551177675893 -0.49594291699391363 -2.3129381786405454
