# total energy = -340870.71536587423 ev
CRYSTAL
PRIMVEC
9.20683582841861 0.00000000000000 0.00000000000000

0.00000000000000 9.20683582841861 0.00000000000000

0.00000000000000 0.00000000000000 13.47513487611785

PRIMCOORD
 96 1
Ni 0.3172749231207106 4.849691489428893 9.689605319361945 0.3279652912679384 -1.3409789083733163 0.7777237392859897
Ni 0.8054471301978768 7.98820970556488 4.231528890020469 1.248094978458386 0.9748350491531276 1.1653257683799545
Ni 5.62953809232533 3.1979851678154803 6.286850919110546 -2.0172631148648805 2.064113756669832 -2.2624735942320906
Ni 6.605204883373359 8.442456564515618 10.151330890938363 -0.1055566402865924 -0.23533641478660763 3.555885037239089
Ni 0.8426906219046247 2.4854681542722137 2.8919656013178043 1.6420584309940043 0.13606740728093983 1.4587485457863327
Ni 7.2433859056083385 7.489806862676248 7.030597519292122 -2.9935444095462316 0.488489546039662 0.3437788612614273
Ni 0.7325289915848433 8.495018389432513 8.692593400465375 -0.3714364750776958 1.01739272000968 -0.1248118889717786
Ni 2.488524823719124 4.121219029646183 1.5362056472807901 -0.8347168688415818 0.9937262296306756 -1.350848087857912
Ni 3.7319356032779654 8.423766688078187 10.29775180223033 0.3552938038795623 0.12868911253899773 0.5590190195187921
Ni 0.15391803758901174 1.9643612545881606 8.507243225853017 -0.6637138260257215 -0.604616762753249 0.05519412867364042
Ni 3.786182279124934 1.6514301165429084 7.042267183520912 2.0132280255635586 -1.5927143333432376 0.5216745174320628
Ni 2.261705219821309 3.109093169291637 9.009448491878919 0.024865138672795887 -0.8268762897512404 1.27895464415172
Ni 0.09655208581248526 7.252040331150795 6.593019636346296 2.5338846432540683 -2.975048921845205 -0.684897144971556
Ni 7.45395544452484 4.115897478621141 8.201734638735774 0.13043951957120117 0.09971895055889277 2.108507195183543
Ni 2.958404889660384 6.738142383806895 0.440952188223817 -1.360986718953811 -0.2968937666741145 0.7941659440024129
Ni 1.694453659691735 3.196208248528572 11.663038989832593 -0.27659773542923977 0.09121939772831386 -0.7200798635202761
Ni 4.948692593533179 0.16116289658832944 12.223281385956346 0.5164430938297945 0.9409008582995279 -0.728947598323551
Ni 3.448438718912747 -0.034956513722975494 0.6724829299408606 -0.061412084558894235 0.04077409659356849 0.7819534610966211
Ni 7.676595145022363 6.23747465934013 0.5804200972076322 0.4653344480794373 0.057947523049061485 -0.23359346395357192
Ni 4.37685602923324 4.2303200324952295 3.071428004510586 0.8585705355307277 0.3974966624998574 0.891372412552097
Ni 8.923301971755883 7.620939823315824 2.2174544054758765 2.6349950748438493 -3.0177138077035837 -1.8726552742130975
Ni 8.662242145951268 0.1122598681720429 6.706062085551432 0.2561304687138234 2.7076415946659824 0.7106693688396536
Ni 8.56725522220497 2.6802571768272583 10.657739998137334 2.092400005209035 0.7015095567172563 0.6866115565595013
Ni 8.844353355770181 2.1601169948899686 0.9426289818814881 -1.2992136515110722 0.5756751400182343 -1.3482312190603556
P 5.144264197121318 7.1389435616151244 9.271188702840545 -0.9624269052967619 -1.1090034396391415 -1.0648514277122758
P 7.5852817487137685 4.652158829840176 10.750610270360003 -0.015526891991005518 1.2590859302522508 -1.4629448432558676
P 4.6723310068226445 6.351400044087312 1.7794990422670272 0.18351660190183877 0.5195564426477955 1.3940156243843218
P 5.580760276874338 0.9117768755062007 5.941982188762927 -0.1562557093033567 0.3556617287419423 0.6105896925072323
P 0.4587968771455066 1.684611552346112 12.436566020715901 -0.6980573365025978 -1.250643970132485 0.06547776998783561
P 5.117757717188626 2.1934733605711583 11.494693840727592 -1.0656497552438549 0.081308309262189 -0.7393713647600363
P 6.843348895161835 8.132701784781162 12.468339731343102 1.8496863241217498 0.3735242108446599 -0.5172524771049674
P 7.280645969619317 3.907279788869534 0.7830349300936208 1.1907467795562203 0.41352389116604915 1.3234784375957078
Ni 6.949080196150733 2.005653912628496 7.397767967715797 2.2361593818175938 -2.8655533515155227 0.8052638536877873
Ni 9.056395988396037 3.4940033487102093 4.777272361309903 -0.14759829073867484 -0.35527632037806556 -1.6481573448028906
Ni 1.663371382424361 5.519387510208369 12.222324795728833 -0.5957711394371611 0.9626732169796131 -0.4766125920964179
Ni 6.182353334103232 5.955312766149014 12.13094971362116 1.9602026224064628 1.5319370541548651 0.5074257208225327
Ni 7.393346845220598 2.926724168073585 2.758023635111204 1.2345696902784415 -2.0446674750197626 -0.27129817759319724
Ni 6.57307302683807 3.667174721080481 12.300547913062678 -1.8653173457907875 -0.8520903271230228 -0.31582839879508834
Ni 5.2648461240676445 5.083793700352327 10.33879679639078 -0.6711191173508572 -0.5806808207629419 -1.5496498980535958
Ni 5.386578905474402 0.012362018272186893 8.40754056086965 0.10719751832412505 0.29820271529352516 -1.5426654963159627
Ni 5.729699257725732 5.7363834204319275 7.679707976166942 -2.0834397106919536 -0.3187154905348963 -1.3074848903809289
Ni 5.066227057868278 7.538842469526377 -0.01714681077688305 0.4191319813814459 -1.3764596177784294 1.1631701554895322
Ni 2.936603102761942 0.20128904854756985 3.9793288021940487 -0.17453548144915101 -0.294657421144428 -0.1271492788557036
Ni 1.962363371244849 6.899519799666648 10.123424051298215 -0.6037752406885601 -0.6863459616029406 1.6435648403362015
Ni 8.662453903171988 6.63207963673339 11.127092512393933 -0.31490203032607705 -0.2289035146770703 0.7571292029640896
Ni 4.072708212430013 1.5345677512127018 9.586844143564532 0.022496124219987066 0.39728531781999965 0.7477382486674928
Ni 4.927866731217184 3.4829275253830025 8.475455704972289 0.6436605069192721 -0.17100767080155063 0.8544256601244187
Ni 5.633856098260875 6.2419123541395605 5.001996489406161 1.3274621048338042 -0.379244915378521 -0.43973937321915235
Ni 3.0761971453946204 7.89510097629801 8.114537618661256 0.6916180086351572 -0.4869659103062839 0.09146005298421024
Ni 3.289059186396304 5.3219377121408025 8.69423774131844 0.4443241643763573 1.3690612684318293 0.15235945957274408
Ni 8.960755379316215 9.023113277400316 11.100168962804778 -0.15315058801547174 1.3760585256852687 -0.2874480478801823
Ni 2.727156797798823 0.9364732915435241 11.738876616040852 -1.3865537687896379 0.9690384970760085 -0.27242097834373086
Ni 1.248557400705898 5.582841021738801 5.05570916878349 -0.22972446791646886 -0.037086363329336125 -0.769634791630268
Ni 8.676236536190132 0.5666310194045084 2.8377152427365617 0.03429954461281835 1.6808535494843309 1.9571144703994425
Ni 6.62081046985683 2.164968997295154 9.735906496014087 -1.6563889886840635 -0.0371382996131941 -1.8221986602244424
Ni 7.518697913050958 5.082688880070312 6.096716872677062 0.35888923454030447 0.571945497772473 -1.4783161835056153
P 8.509832188047207 6.427126267583802 4.0775758664558595 0.4525938605843173 -3.0110721340173496 -0.2810264606245547
P 3.9134023345990374 2.3877099729851947 1.55631061436277 -0.3058291214905314 -0.22828902102152293 1.761890093142372
P 1.9736233312857254 0.7838874830779097 9.565041435982522 0.7858152580448724 0.9161097673977772 0.1810372871234108
P 3.8132687897056847 7.258973078420444 4.544017179269346 -1.162301379731334 1.4498669270259867 -1.283915330591105
P 2.8645872340458878 8.094898517464859 12.307810265049795 0.008932783713255584 -0.5740347762013339 -0.8104430838958817
P 6.538335635804362 0.7368304252161576 2.4555468589845244 -0.195223863036438 -0.45450419023315275 -0.6642041353985787
P 7.885304903130804 0.1772085698174702 8.919649620040255 0.7555238061501827 1.5857834105513593 -1.6845919334808406
P 1.336850954910316 8.998438957768633 1.979807562814308 1.8464066249292137 -0.17939126687955556 0.014052621438324185
Ni 2.163413042064649 6.9517870058416715 2.6630238217949507 1.113256815598857 -0.4839965432653149 0.6311999125584161
Ni 6.8945481083975775 7.402111752791256 2.8937176621483673 -2.7695902684546367 -0.40742189203336926 -1.8612879129164202
Ni 1.8764728011538148 1.6079186111028583 0.9556391613857909 0.27247342884822107 0.69351522565787 -0.7451938849790845
Ni 5.285966605125509 2.0567978848501376 3.7098391976376526 -0.9697967153982716 -0.9568208719638942 0.04761965876049218
Ni 7.03651751463659 1.378935400819429 11.722909200915021 1.2329174993869991 -2.676679341956513 2.8558003858938172
Ni 7.321017944091306 6.4389846719441035 9.079411236237561 1.270969311953398 -0.7787238984157299 1.5603248612689387
Ni 1.3304429972746252 4.573007663469437 7.3743485397877695 -0.990330059464933 0.5106395997741399 -1.23081150878759
Ni 1.6960280285936071 1.976615552882851 6.5617163950225175 -2.64182289639896 1.025406334342776 -0.10219389446194659
Ni 5.804873071081214 1.9755935941219864 0.6460501046936359 0.9273038363413837 -0.6505430929717184 -0.08134147649296958
Ni 6.737700455694087 5.130352668403604 2.668305783426554 0.2115539676550292 0.9233903602195904 0.33573207969755087
Ni 3.1910248000387815 2.812771162819353 4.8368857016767635 0.19433451845294916 -0.20537766364098825 0.6149358852910699
Ni 7.4828004607211325 1.215606135794781 4.92478428263036 0.3754913618733598 2.092197916500558 -0.19368994289041483
Ni 1.9699774243550736 8.722058957386732 6.277741675885328 0.44754627085808085 0.3148146128185933 -0.4248740260715457
Ni 5.205425206566568 4.514424568015556 0.9217478785513921 0.537288826930552 -1.3188255122047285 -0.5905062914937959
Ni 5.7610669468992945 8.84607503404299 4.1771303013847225 -2.683643174868856 0.29609595336316746 0.23058141660012546
Ni 3.631544266985476 2.886370607272963 13.000257297486678 0.7078103021243036 -0.23481242396233754 -0.746946863114449
Ni 0.09732638069346457 4.794358406971274 2.6673491931990423 0.31132588293904445 1.1362882434970236 -0.7094727774283911
Ni 8.869690567571075 4.277431410687514 12.733813314174371 0.05914822822538201 0.08504437926585354 0.3320368902341508
Ni 4.641221109048221 8.211742469123697 6.293777221595216 -0.37635910919029375 -0.23920695348560736 0.5580867375125098
Ni 4.076087121125844 5.184221863987551 12.66798720108831 -0.8787194996747769 0.03628803579775686 -2.432238650875792
Ni 7.868778633078986 9.076439269678938 0.8218380597651475 -1.8168101422190193 0.17420406625166127 -2.414616309808338
Ni 0.5275645742324347 7.701904736316205 13.018422384290153 0.8287423964257018 0.31618449658292647 0.5974444133745259
Ni 7.78670889979659 8.150866871584636 4.8332342706447005 -0.3237157719629651 0.5170105362974902 1.5615489634840267
Ni 3.5769477313825355 5.735462736863581 6.031497490062541 -0.8364384795183787 -0.4954150695149016 1.0969524220118787
P 0.8726045517237672 5.866061701033516 0.6972253801566012 -0.9454080021412622 -0.6124185181858549 1.3777752512660595
P 2.3430936472631294 4.306948525888699 3.631697100457821 -2.2625036761390778 0.4118817275769358 0.6564861979290307
P 2.8993430387509638 4.685404713493164 10.726018812249471 1.3742849787246139 0.3477206195179947 -0.753260978257935
P 0.8216502403172049 6.395712544231824 8.425893467121067 0.19411546046360764 0.4019055902008304 -0.9426962596370538
P 8.840412830097659 3.3298178479669986 6.735559866397683 -0.6070937635388319 -1.0321413390737644 2.4004245916889886
P 3.2883870873914116 3.7639201504423188 7.152669112252033 0.6677257753985919 -0.46541389516712106 -1.666413462799601
P 0.7969354106085146 0.9716341970186726 4.848246016226589 -0.07179959844080537 0.3045605391907529 -0.538054501451983
P 6.329920496437791 3.804577536820495 4.353748713034882 0.2227943164555389 1.8548856089345025 1.0006157576616574
