# total energy = -381177.6566025438 ev
CRYSTAL
PRIMVEC
9.11272750807917 0.00000000000000 0.00000000000000

0.00000000000000 9.11272750807917 0.00000000000000

0.00000000000000 0.00000000000000 13.33739783669611

PRIMCOORD
 96 1
Ni 4.994868108453834 7.444915980523631 7.8674376075457815 0.3392470348293448 -0.1775310737423652 -0.9948580292422736
Ni 5.195585040798583 8.807296055722809 1.9165970151632996 -0.9390725468415375 -0.3984945076367524 0.10919038038443775
Ni 4.811592936233839 1.4898489052018273 11.298429570268295 2.373924488515931 0.09774974264766391 -0.6978449633814756
Ni 5.695017175279938 5.970494922704881 9.445704572289122 -0.9594387692027153 -1.1818039685406356 0.5181130253330496
Ni 0.37831760925142927 4.260637441383954 9.693140635149858 1.2548006726133356 1.1740356374491263 1.2428905514393112
Ni 5.992210551951113 5.607945065566232 5.907760173892524 -0.9438293448002325 -0.3684151717528687 0.5286190670706961
Ni 1.5873186368080856 0.09951645016635213 -0.23036883582956663 -0.6059668490232403 0.8599216502419834 0.6893816631054708
Ni 7.418479958516361 3.7280714303019664 6.07571776273023 -0.10242220842266878 0.9242424238072406 0.7000715387191492
Ni 5.429700118836762 0.5481934271937648 6.56401323313193 -0.6612864475311514 -1.1950410360561998 -1.3899594520370773
Ni 6.869018950949894 7.269013004720003 1.1682598461743396 -0.551672863566366 -0.15529360250040353 -1.0658289611341967
Ni 2.746093045096397 1.3111209839234486 2.5341191606711306 1.223673355080912 -0.3933702990363096 -0.4633840092212858
Ni 2.6621466008595935 3.359835231304464 6.599438049385311 -0.6355180803177958 0.18613938423666654 1.1363658908124943
Ni 8.669493392918973 7.927762951249995 12.228152843100103 -1.082986960970722 -1.2128546671988532 0.11078086480000919
Ni 0.5831553168983805 1.4407768684871958 1.9594368576515362 -2.2659091022762006 -2.037874106247013 0.21472208097036571
Ni 8.717070942350187 3.408478969834214 0.4653687596922578 -0.2805495209881362 -0.6792607726213851 0.4648737063929349
Ni 6.610162818189295 6.388677980241454 3.6474447526343625 0.06322008430191048 0.917722877521168 0.8330525937652814
Ni 1.089125833244685 0.11911701539745727 8.221332196258885 0.017497385453815024 -0.20270860144925734 0.2172754435198387
Ni 7.064158894163844 1.9071480281866233 4.660580463880971 0.14579543320198116 -1.1399083567481143 1.0763298606655205
Ni 7.4531903369464505 7.554195806759817 9.647019299547239 1.390645422360508 -1.229466050503289 1.2796303300625058
Ni 3.254965965099825 5.5130997994332915 0.6909133176691362 0.09264378887966626 -0.7217479952513184 -2.9028047796678136
Ni 1.7859396418651161 6.78559193217135 12.368408652103303 -0.17791956743003554 0.15667994132496887 0.3758245768430624
Ni 2.487628759611328 7.807247132206169 1.379220395319631 1.8550141640925666 0.31864169987416735 0.6209131859204274
Ni 2.1354491861832186 6.845899961693622 4.7679065213759095 1.5555999449894435 -0.2829298482948547 -0.08838372805173166
Ni 5.6788329715278145 3.779603903397833 10.7515028121745 -0.17612853696788378 -0.29165951485836866 -0.9340905202459139
P 3.133985396961766 1.702385044903843 12.41596979862531 -2.6193853933310502 -1.5837720365482852 -0.34746222365028545
Ni 6.07235698888801 8.990553002488127 12.942597045301182 0.09468061680403693 0.1980137670767493 -1.2102077164943092
P 6.3805403147287025 2.258635034337052 7.27964482370514 0.057919498024603486 0.21597600798212482 0.5245227855141353
Ni 1.491653225214733 4.423973966188607 12.079413996218044 -0.043758376032873025 -0.3981240116712111 -0.15534785277710667
P 8.58127307956069 7.836316732414094 7.541978373217884 -0.4763418549335345 0.11499978797736324 -0.5934113809557329
P 3.4420502573470655 5.854417001874616 6.757259551605062 1.5916882060715685 0.37114311220699303 0.7790355161188777
P 6.666342782227494 2.4191648391216294 12.747417917359678 -1.1892043747697647 0.34442240838269716 0.3095212256301379
Ni 2.2518460524703108 5.656014702273694 2.646446282929113 0.8422160054321044 0.24777309788806365 1.3386556595567785
Ni 6.792253335855361 7.676971582183444 6.196714733777498 0.9304801771868363 1.5516201344060891 0.10346864740931212
Ni 4.839049583702953 4.204266110071658 7.583003871693143 2.2490066700939075 0.7006891176984901 -0.9071494728806958
Ni 7.253111295515354 2.992902152316282 9.08888935446422 -0.5932823115770364 0.1820677852704542 0.13604221046995926
Ni 7.742692571744432 5.374659245715802 8.311199179447128 0.07553566844446992 -0.07196389193281155 -1.0765820858856427
Ni 5.9858316428145795 8.817675452160685 4.0879120736030545 0.32914954138402663 -0.06264261453188566 0.5531059964684668
Ni 0.5837795387210272 6.8527800708337425 9.176129138360944 -0.276456324755369 -0.08342329872266277 -0.21708903854064548
Ni 5.189588866210239 2.0514207274003744 3.392567236629494 -0.480351747423876 -2.7577313122335214 -1.5328307696137278
Ni 1.8194744784686159 1.140421375429766 5.935035478087615 0.014228742004872268 -0.882352468441674 -0.02860326555898945
Ni 1.4783759814834017 4.646825713237134 4.819441728289978 -1.0327152092993632 0.8172793900914247 0.27397443887377976
Ni 0.06237935244617789 8.377539834467093 5.2555750361367615 -0.9367809225938833 -0.8200988618180908 2.3885988026986538
Ni 2.7819060635343735 2.751232623314977 4.364036824668989 0.3353255882877515 -0.16734127769355697 -0.7394099313074557
Ni 8.17157397117571 3.3091866927603744 11.512494825617612 -0.17490623452500845 0.612894429381009 -0.8887555437545404
Ni 5.0872620509328765 5.71564838997296 1.9136235322329405 1.1515749944527651 -0.292317974377974 0.501907876328097
Ni 4.087149338324871 7.206235426089159 3.3428190355463894 -0.3015500344992032 0.7780721237643439 0.04850694646145194
Ni 1.1720060883829533 8.576980984984536 10.759958511871345 0.20743403194938467 -0.004186013056889565 -0.47273716830141166
Ni 4.370063071257547 1.59474550958848 0.8126010334486172 0.5838412207687945 0.02980988427258092 0.40418333049141364
Ni 6.915530311282573 1.3868295226467835 1.34070180813503 0.3177677819096463 -0.257481326314763 0.2720700227622153
Ni 7.939272325877773 3.075180967450249 2.7743251856619686 -0.6173522080420465 -0.7386393716900181 0.8288038457912565
Ni 8.096913396096234 8.306806844870255 2.987230390821169 -0.10049079572791081 1.3850170204301373 -0.27687721434287155
Ni 3.3490366494090438 0.4254194743156053 7.6873692040759956 1.1090576899158446 -0.5104948466661594 -1.4849092633421006
Ni 4.830283140003886 2.567410687454708 5.758221229550197 -0.490081316006814 1.135831101354947 -0.4221962221290664
Ni 1.0843052004829319 3.6341009859934643 2.5894288592485597 0.29100259800066014 -0.21869983467119108 0.9275779159383766
Ni 7.937003256770633 5.370932140234598 1.9626117318560632 -0.5010573554023435 -1.6622081664690016 0.5987037397029237
Ni 0.33537934930794316 6.520129072090769 3.5861862656507473 -1.8148856715027968 -0.7730294191341138 0.46168271025946295
P 4.127491382249787 3.7210819684337912 2.828421980230722 -0.9606353606139778 1.4838013749899026 -0.7400002565932869
Ni 4.481238344780017 7.655675138394754 5.574659006419059 -0.1474496809759525 -1.7066072614096672 0.5005261654892219
P 1.1998545831275986 4.977034501053548 0.8843373343253584 -1.5821324440623332 0.013540714798912164 -1.157753612459651
Ni 0.3317224118272409 2.777841787141667 5.259295762708829 -0.3145644444810002 -0.3399188640853888 -0.7409057991266917
P 8.370823754419055 4.702267546360963 4.090952990715714 -0.46730134199782103 0.08490811079830538 0.8010809259546913
P -0.20202825380867442 1.0029103199007425 4.0907534219870145 0.4856911573589183 0.4005238793619554 -0.5552132726194567
P 4.6759591025364236 7.014476304717572 13.424223821837002 0.9472111167882721 1.0648568270289147 -0.6516628083984584
Ni 8.511187093604843 1.2106531650230188 6.948624091882918 -1.3991310912340162 -1.4317589045713666 -0.7279448680906495
Ni 4.04752719985965 3.5471655671898277 12.805235438500501 0.06406854834513483 0.8068024018195007 0.1756199727625814
Ni 2.303068692836688 7.8528563325323955 6.637436299838917 -0.5729577410870713 1.0931937263003948 0.921644066952445
Ni 8.664080432880255 1.0973364005761397 12.510999141850476 -2.0615963895646177 1.3897640481968194 0.15376919543607712
Ni 8.45107043135667 6.002444144751585 5.974006967820911 0.35158370201782674 -0.31369155495774365 -0.6411531671163861
Ni 3.7785559397539736 5.074148836293627 4.8142802795257875 0.9460680043227643 -0.17198340445125865 -0.5792500018536862
Ni 3.012731447003569 4.640783975012101 8.76356407722819 -1.1840925074644961 0.2873382617751955 0.3205656563697576
Ni 1.160432924663811 1.961532784939255 11.258123977252732 1.6765415523725382 0.7923294050143065 0.08818215356388684
Ni 5.878483714774029 4.098385331132511 4.077589176074673 1.2882291274751105 0.7548406640402291 -0.13654126159356486
Ni 3.769087816049888 0.3988731883075471 4.594000144132018 -0.8853588593681655 0.8534681813071561 -0.25639966321481006
Ni 3.4426790355333807 8.459417689598192 12.022183334717782 1.5736580880427349 -0.20039640837631292 -0.065486511738584
Ni 8.37894319447713 5.6336338439317935 13.034425087412544 0.2956758351066134 0.01964245682127585 -1.7680586838469292
Ni 8.676464629332472 1.13905446632908 9.792930467136346 -1.0227305872828256 -0.1097465099982239 -0.08536448160943363
Ni 2.912983533562834 0.7105676479915349 9.814284321107266 -0.28028469736252376 -0.07150597845978654 1.6692373054016412
Ni 4.151457855148484 2.2848979145249007 8.666587344170914 1.0584401248692932 0.768037108125845 -0.0884120101865058
Ni 5.007853744910351 8.430530343937026 10.081832173202761 -1.1752376281770278 -1.0310231663089209 -0.07469800303452297
Ni 5.995400006519382 3.588491785667238 1.4567368991468068 -0.4077481650245364 -0.9387097641854801 0.6829670178283787
Ni 6.3997863948663625 6.76042257926405 11.716783947078822 -0.3465363694019064 0.19647547605535196 0.45402879325863094
Ni 3.1242985678015702 3.256378437837201 10.593347784134181 0.19655800846682922 -0.20735638463391384 0.4995578880386816
Ni 0.06075181934362762 3.178747113645567 7.745133871398258 1.1892277718085325 0.9222315640247989 -1.1514616088033525
Ni 1.9258564574113473 2.6573077426431646 0.5714819131785212 0.5636259221631842 0.3111775302866383 -0.6321386223226017
Ni 1.535485443710068 8.658631021932187 3.619423116070297 0.9212545448235101 1.2623807989534386 -1.7620610715025975
Ni 0.28247905583865657 7.065780959629992 1.3381948968443715 0.8782572153263777 0.7851945937417381 -0.9850798668095874
Ni 6.601651530855689 -0.0364910053519166 8.359547665611128 0.9832842083617452 2.0199609734120183 -1.3261747534809483
Ni 2.9750867703706736 7.063994865071761 8.812418319759447 0.18568789852154474 1.4428498722782055 0.19251314897349425
P 1.6207987970475575 2.4883851159803743 9.04458236287458 0.9218237870634189 -0.7521584892223756 -0.07179111380037313
Ni 4.121513433116121 5.576989130799361 11.448088802611485 -0.7121716644167928 0.7663579206512092 -0.06568422957168688
P 6.737093997279008 0.3694235873696316 10.453439170042556 0.8186983819261383 0.5608961819368469 1.6800421093266291
Ni 6.064009730646487 4.641704360473229 12.811904132366383 1.2801910876619822 1.1618828041366764 0.4892670476356348
P 7.711417691520734 5.300381405184519 10.525553649103818 -0.988178303229253 0.2876264824395756 0.46224166808672645
P 8.330454372312126 8.908082820080066 0.7882272216379161 0.08080360171162858 -0.2794624585715445 0.8140711675667722
P 2.164263630025682 5.955221991686548 10.353488042782184 -0.5691666494757552 -1.1711027800730476 2.093687613672207
Ni 1.4007537700191062 5.709798019022024 7.117595927273333 -1.090974864272205 -1.172535398754516 0.5865606765824866
