# total energy = -340863.23718968785 ev
CRYSTAL
PRIMVEC
9.34218209650603 0.00000000000000 0.00000000000000

0.00000000000000 9.34218209650603 0.00000000000000

0.00000000000000 0.00000000000000 13.67322782047481

PRIMCOORD
 96 1
Ni 0.2487412085061142 4.949179879764535 4.9440612980934935 -0.7006994021111351 -1.534526412148596 -0.02971475345561334
Ni 4.747248609789036 4.600725822914378 11.922180062234016 -0.026999925627611564 -0.8223642608134998 1.3574396250325012
Ni 0.09105077693431474 2.9854251380268573 11.466109670831196 -1.225811227359521 -0.17952933511931662 0.7485913406964075
Ni 3.8223071688237673 0.5936452360899895 9.845571758557682 0.725698495258634 1.9770631456072274 0.2553527100075344
Ni 6.827902078392475 1.6469613406333903 3.538344064686766 -0.04888027064047065 -0.5076514636800935 0.6619040265104923
Ni 2.061221729461684 2.1750935892688257 10.270413103035953 -0.7924227360590611 0.5715924853084284 -0.8425479348502264
Ni 2.162668486836838 4.381539542268291 11.697337090217577 0.4311346622692769 -0.5683199852047438 -1.9404858607038258
Ni 9.333979843648438 0.8908247254980685 7.7686906631587815 -0.31468965720495484 -0.1401976273992295 -1.0259316107186267
Ni 9.104311634484539 4.501399740916713 7.414007239164526 0.08695136648057927 0.44030630146621585 -0.47436416238187334
Ni 6.364109439117265 4.241042462964033 7.666236818533877 1.1733275556385083 -1.3014340562011588 -2.16717822666219
Ni 5.836005217028668 2.6412591428430767 5.37367462928023 0.7625588586200931 1.6094838394920925 -0.0769322916816804
Ni 8.6823439452755 9.173144833521294 13.636501339758654 0.3542093125661319 -0.02865288785000227 0.44814893743908624
Ni 7.768884046331971 8.753129660408712 4.848458075734285 0.29672793052021157 0.29510145066038207 -0.4716765882473812
Ni 7.665512799407201 4.058533589948009 3.7471483781654333 0.031143772592656046 0.5313560063858849 -0.289274816676276
Ni 4.377587799163982 4.590047708568692 6.282438213191758 0.3867517652785275 -0.28594215275861723 -0.17717497595452714
Ni 2.5212494692781795 1.3865666939515906 7.3818066052828915 0.0762172678925268 1.3307248347454759 0.08427047721430647
Ni 8.30024869003618 7.6806845034294176 10.80868722475422 1.3731315818464611 0.16991598039926864 -1.7580699480653335
Ni 3.1517813778812966 3.0415249426163955 2.0519552188584598 -1.4200364739281157 -0.25340689913507325 2.180956254282889
Ni 4.274767740993714 8.072318126776302 2.4124364011754897 1.3212904288054534 1.6688472690520744 -3.8776513987851673
Ni 4.685674286383599 1.0106653055637038 3.0844345200452397 -2.804786356739795 1.9866171078442496 -0.02436531621824191
Ni 2.8420319822158953 7.875095316669767 4.078054079821421 -2.1970089368703776 0.08428384695074516 -0.07110051549125174
Ni 3.2686147094711 8.82549420434719 6.03871282235161 1.4633022265952864 0.8912932225747295 -0.8776239526177531
Ni 2.463524124971975 5.331564742654527 5.068993367501559 0.8560894209800869 0.5075694454892485 -1.230637702213887
Ni 4.731497690465478 8.892561730933085 7.801355603499718 2.089581047703001 0.2105574080697148 0.39354436272032867
P 4.0756110991552825 6.285317473770359 3.26887255370202 -0.4596358550327632 -3.49030982244144 -0.9925862024889615
P 0.8086518243841432 4.0340010192815425 9.78216917008011 -0.4922700961280167 0.9888619595598389 -0.9694473024786531
P 3.1979597848898047 5.291869810148124 13.32572336982426 0.23420050140995147 -0.9101867170451229 2.310868183485394
P 6.670663808443013 4.904113192447311 13.284757900527818 -0.45518193302646764 -0.2670319461176756 -0.6510609131484012
P 4.966285415518648 3.295295982061895 3.022289389302514 1.2256636460380634 -0.7155526650738837 1.5691740841294524
P 7.977149315893101 1.3315038715950978 5.778825456167598 0.9860645993203598 0.3154206218337084 -0.45491608095959074
P 0.681415038607677 7.677937901839188 12.228966117680299 0.8120865330365755 0.9990121606199632 1.3359518874723701
P 8.0952718686375 0.9464471445731147 12.034724397939213 -1.1783682033862093 2.453238907276543 -1.3905808876711598
Ni 0.5616333142904038 7.21708804998208 4.768975723116911 0.10328455642296405 1.0124397468797788 -1.384446492638648
Ni 5.173121331190984 5.8481220274454255 1.2747043375528104 -0.609803449160511 -0.1686664242628837 -0.44616713112236706
Ni 6.0167857863229495 6.952732318013692 6.871863585546012 0.2979954843787255 -2.5968136786781213 1.169845767737495
Ni 1.0174290455341994 0.27231620548891194 5.340790147655721 -0.8059282267446636 -0.30722625894837413 1.0176156346537637
Ni 2.263984453660076 1.073491481394619 3.563680997247513 -0.639353394903486 0.15383604411827054 -0.8164124141054392
Ni 6.930077525985445 7.814156261659349 1.0493503481656723 -0.5067652044203982 -0.08455869787868663 1.0868251037698895
Ni 8.26222600815784 2.939153309195552 8.836159239637684 0.3621797323661182 0.20568902423381996 1.4299192802594665
Ni 7.795387817459451 0.6625559752396669 9.731646648311546 0.8365729482137141 0.4477355040507515 0.5184058739831202
Ni 6.879564346399161 3.7664222344266616 11.0190217876903 0.3256106749928328 -0.07885033463999967 -0.24260235232040153
Ni 7.80511302921261 2.992599934017659 13.385256426401583 0.5401952019440697 -0.32285239552140527 0.41022105204506126
Ni 8.333207909118926 6.601055208277042 12.872851741634006 -2.409365345822044 1.4598471781671503 1.1454107746235822
Ni 3.0705791295062315 8.855202343996604 12.116681494642478 -0.4355279062409661 0.9414420755149786 0.7877001337724111
Ni 8.657232159307695 6.8744728570567295 6.658944040773141 -0.13758461525641466 -0.6252902319422005 0.09789218176279915
Ni 1.967743853571106 7.16979792328229 10.677026915668321 -0.1270870581592005 0.194886020081045 -1.363747826638716
Ni 1.15332977115685 1.0168311458682993 0.9247994397946171 -1.3053292774905068 1.2026317039192644 0.03933453593356452
Ni 4.126731520589746 3.226668311035292 8.222080782465557 0.08254938075814171 -0.6414838109829275 -0.6108470599336769
Ni 6.6153580893472475 3.7958781351545245 1.7506520901921256 -0.5453016699326996 -0.5573763417090465 -1.392486332223989
Ni 4.4491395732441275 3.063030646224242 0.2112538336724021 0.9760686644499127 0.8524330551744224 -0.5167009754768714
Ni 7.039455796116055 8.83245413014556 7.072628016954778 0.8638999181634412 1.4161991024598966 -0.17816459356130607
Ni 0.8584876957551494 2.709214176745542 6.275136363521954 0.058280223798131886 0.18974278531720867 -0.7076321246752264
Ni 7.0339345663887585 6.728800208769523 4.032385755965385 0.4584549473507846 -0.8034298858028421 -0.2609132348144474
Ni 5.859108433806342 1.8525454038802485 12.344354213671435 0.1711395683937246 -0.4128554043441148 -0.8188865866775445
Ni 6.061319969250232 6.230843208897487 11.224790826146297 1.954722316018182 1.0504666197455135 -0.9931320476901025
Ni 1.1170634195470934 6.141793527407481 8.663152300218332 0.07513329079972868 -0.5007220835501118 -0.33620182024511774
P 5.649040123065232 5.510691745685302 9.041736763356948 -2.0951986510000946 1.1494939435540201 1.3669925588282585
P 7.496129692494142 4.785355371307891 5.679284503977501 -0.6090143776003124 0.9726802075936539 1.6121354181823269
P 1.536751616279887 3.456112307824479 3.6275077208005833 1.1773140510900821 -0.02227963733380679 1.164305811755872
P 4.621549547215807 1.3763837152667284 6.609173564678092 -0.5762171285646334 0.19652664100826153 0.6946313415401842
P 5.904249858581804 1.7332363939863273 9.525687029337044 -0.5271890194923888 0.8162830876164264 0.7944436231438318
P 1.6639080592887476 7.684907169819837 6.618416719825618 -1.6774856614533626 -0.6856725896849998 -0.14633973574122539
P 5.093170935241397 8.393707881562198 0.10380005309140768 -0.8349850349013038 0.5165806478489232 -0.4095793046960043
P 0.9935784541741509 0.2441850262083094 9.517647147267144 0.31242065866512003 0.5153339199260157 0.5674200990982937
Ni 2.0616514698465496 5.882146255308057 2.4054895544323127 -0.1025168250190041 -1.2942743052279257 1.1685383617799812
Ni 9.011319552072504 9.106815339335496 2.785167987115878 0.05599117065363905 2.0184036562272274 0.6850100164003364
Ni 2.568025775952587 8.703429250680761 8.326845882986458 -1.9909635577384035 -2.224834186612762 1.7031614689529118
Ni 9.350123134627742 7.497465624560137 1.3695788696942024 1.253435673945009 -1.1151830860872922 -0.3959159482762988
Ni 7.7683982528534266 5.723030206720376 9.14159254708987 0.7369146756894277 -0.28685129483644795 0.8412621261592673
Ni 3.502935325410285 2.3426549706373456 5.0519298715677055 -0.7157012748366061 0.8094735208937608 -0.044092362333524066
Ni 1.0681197265837974 5.1304742690842 -0.10910454418981567 -1.4032245445770994 0.8514328960446821 0.9117252651768363
Ni 3.5979546613770115 0.8405572453057404 0.8451246382222809 0.6150559558087021 -0.6920314420234921 -0.8024456675127019
Ni 3.843102866578357 6.775847438730043 11.990519059828175 1.2850175625163482 -0.3098017329850342 0.7943168677579804
Ni 8.288851227654957 5.513718612743923 1.0560234689680548 -1.714062432136132 -1.7133103844614557 1.5073130849585976
Ni 6.721391858221729 8.591977016084059 12.162336739443322 -1.3045911137729014 0.2891406050912569 0.9008106751468614
Ni 3.5163880678930384 5.134519434011305 9.74377466934704 0.1862031475950664 0.40696603544287324 -0.22062456249772971
Ni 0.9244332262492533 0.7762708863845096 11.711106532679612 -0.05127782433836975 -1.4354337823197925 0.8371262496140228
Ni 4.194126023555429 2.9206371039172065 10.552409677803078 1.5867609439732802 -1.0241801752451587 0.4444483486590475
Ni 3.693104787895655 6.502084129206007 7.691286946098638 0.8313690354152714 2.134766128880072 0.37175734875222427
Ni 0.24928959460593203 3.6836504994286083 1.8381603116059817 0.35521975610851725 -0.39532022367382885 0.014259338132491573
Ni 6.246771629684358 1.253141646633058 1.0833409441720965 0.3057082796419509 -0.46594019998423625 -0.30569619545709287
Ni 2.090967237840217 3.055771770592923 0.0806183619825849 -0.389152147189904 -0.8783646874385195 -1.823968864750988
Ni 4.819071307155292 6.608304741726082 5.07205666907107 -0.2271330530402088 0.5672493778483844 1.0845648469808034
Ni 9.114821589549189 2.1519810303088724 4.065406633451177 1.1719083066934783 0.096180341278015 0.7158295728843542
Ni 2.185837098890469 7.274850763017405 0.6516116086990101 1.3704977437680395 0.7794417504183608 -2.352768423263606
Ni -0.017584789705060496 5.610597042984308 11.286976128272824 1.4098541340784752 -1.9559381907031541 -2.558959841055141
Ni 6.724035695806881 1.7057797202663185 7.464092546802401 -1.0880744027959584 0.987192542277216 1.0715931173114837
Ni 6.3849238212364146 8.16795404677349 9.580503218081354 -2.9596109900235805 -0.46557793154881105 0.32617220392325763
P 2.0899863087008494 8.921120782162097 2.0477708554153864 0.013393390587770481 -1.1323912224354626 0.9958260495824977
P 4.170873331861281 7.950664229130179 10.215282082748818 -0.12512350667492644 -1.0523442963842007 -0.7230206913161549
P 8.089601163993729 7.746434782313876 8.481572040120911 1.605505571570635 0.27965194887453126 0.8782122210210553
P 8.250940651963976 1.9848680736897777 2.1203343878364227 0.9234831770437129 -0.3348303938188879 -3.017147650787468
P 3.3837103951568808 1.615870558006582 12.259799056076188 0.16004037315676953 1.248948584707933 0.2986184626747051
P 6.002978040913568 8.905425915932218 3.424965472103992 2.7444165974024863 -2.2641342697639653 0.49470801614554805
P 9.231907160060544 5.994598103408686 2.9103877957381585 -0.5549667038262893 -0.22331033686000892 1.2906464786673515
P 2.423184581888273 5.005616002916142 7.19528993606888 -1.3074026150797675 -2.717104539851095 0.07702048052011251
