# total energy = -381161.53125673934 ev
CRYSTAL
PRIMVEC
9.34042732134709 0.00000000000000 0.00000000000000
0.00000000000000 9.34042732134709 0.00000000000000
0.00000000000000 0.00000000000000 13.67065952966279
PRIMCOORD
 96 1
Ni 5.914881774713663 0.32000211306882625 0.38619772296023774 0.021706281328840036 -0.8801436337158133 0.32529365797304627
Ni 8.960692446913537 6.527623160982392 4.592138998411945 1.3354476941424418 1.1314563693260191 0.07995590899935262
Ni 8.386284175219993 3.2958725979812864 11.337010229226898 -0.2827737823329646 -1.6468216567106027 -1.3364882195918144
Ni 7.125429203633743 5.583156491054359 11.257582969699227 -0.051868406734517127 0.012679652350197518 -1.0136800470447833
Ni 7.566979234168059 6.143180504354679 6.560740580825907 -0.39820063054541743 -0.09903863666241654 0.14061337478040944
Ni 1.914292600594769 7.399701517567906 6.8128144346968655 0.09031154120206382 -0.6602052986518306 0.004524370232914789
Ni 4.073948891924333 2.3382359252386786 3.1883530686202004 0.33939615881269936 -1.570836816543856 -0.9209218440744399
Ni 6.16400031731474 2.3738229541206146 12.921275635886966 0.5614857358917298 0.9568553247462552 0.8635204233368353
Ni 5.015529369746193 4.425625328783587 3.7598555333097616 0.8847042565033022 -1.4984286379847742 0.5599721274606808
Ni 5.680614511882212 0.8704148264427646 6.966910005926659 0.7643920551740899 -0.5786679040979712 0.7409394805781045
Ni 2.76603684645168 4.544706439338915 6.706990192932124 1.1053481022747416 0.6612568798447966 1.207558194686604
Ni 5.321194860602189 3.37960019034288 8.445310072940861 -0.5509912641183091 -3.363049214818853 1.5411554874293394
Ni 3.444805714916317 0.0407831087157994 1.9440773558962694 0.765665522569875 -0.19577742154706285 0.8996400518775282
Ni 3.2869524896919824 6.809199689243503 8.812079706642718 0.501892192598813 -0.2679372315407644 0.659392058721916
Ni 7.437137951100399 4.898129536145918 8.746665890535407 0.5111689899150487 -0.15339098616105196 1.071490273185032
Ni 7.822738820741593 8.914261181671515 8.148820618088438 -2.728819771405494 -1.1487868901846665 1.3184434462749617
Ni 1.6870773605470086 0.6239330865328602 0.5576422042806622 -0.982863832994875 0.07527521569423164 -0.4098502989692038
Ni 4.49785485485813 4.815102475848929 10.167429915444918 0.09848507815179168 2.826777773409222 -2.261374961851273
Ni 6.09557234524412 3.1357963510052724 10.731850467982701 0.34896811877185063 1.5241437833626912 0.5372134936079264
Ni 1.2604159714924312 7.609739711391551 0.3261275654417326 1.4632178944115963 -0.7780862648317309 -0.9842869385946468
Ni 5.713642263621456 1.107111534474266 4.133898557927726 0.4274407583574574 0.15974186807974425 1.21583946085879
Ni 5.324043690998249 8.736671633080375 9.047174531353157 0.6057552472330664 -0.7437746360340545 1.0366988765374596
Ni 5.454744293398493 3.374462955202443 1.5435131213551117 -0.4701341834609258 1.0863273381978646 -0.8189976583341121
Ni 1.605414002669118 2.983724850420812 9.523364471418063 0.7924559032898416 -1.574805571383617 0.6073408465526313
P 1.8314056467107014 0.7228173906442481 9.151550072808297 4.205959418104505 1.8571607781219241 2.8560852641240877
Ni 5.298983323940445 5.347207951267856 7.719917526427125 -0.5563162758756484 1.904674250321855 -0.016546591504771505
P 8.19499221944518 4.237751969484045 1.2110508779638438 -1.0252191580326344 0.3531479611811531 3.4616042269766316
Ni 1.7048521941329202 3.0277649662156483 13.394799817935361 0.3892308229466393 -1.2905084104275903 2.768313972845374
P 8.778881025079711 1.0619505673760614 12.55606398549679 0.19896558946705734 0.11483009516871837 -0.042257880227946576
P 4.751765036781107 7.079941321572057 10.987696920532244 0.08839118425089938 0.473601573184236 -0.5810885977243218
P 8.154445423545841 0.5740570716184874 4.895231201483959 -1.4630633711116028 1.350767612328964 -0.07669626441147437
Ni 7.269131681153056 7.0379654402609235 9.571881454127102 -0.15591452391385408 1.7288498748579517 -0.7842486848887009
Ni 1.9048681092189492 6.027060309325749 2.9458494167944997 -1.0042032179025995 0.547084215754419 0.8494708872223047
Ni 7.239924164272789 2.708471791596202 3.912966623478096 1.3039763630070382 2.007135539512576 1.9033642732611802
Ni 8.793302645183047 8.379334897139112 6.097291917952038 0.06324091023751689 -0.820136914144878 0.36816731740812075
Ni 6.812123243059788 6.436245758475311 3.7751392748739376 -1.406594746600913 -1.7477279427093773 0.972642412377183
Ni 8.485554238988291 8.939900655236059 0.848744100534896 0.32780176910688064 2.9337420926766185 0.4308888648070579
Ni 6.671867383298333 1.3892017862494206 9.505004927068894 0.8717800922424663 -0.6954849477897312 -1.3163186866224752
Ni 8.405282604812083 6.931166991905004 13.883375164902485 -1.047168665720532 -1.295176248216905 -1.8349649587511754
Ni 1.3154217492052185 4.030917542302527 11.491009594053152 0.06333398417195543 2.6763042180052814 -0.575026450690642
Ni 0.5217179859649634 5.772571020896033 7.885017989370486 -0.38914726209389755 0.22350754047247962 -0.10807117917833002
Ni 1.4667366751599056 5.073720233246052 0.46536998881639297 -0.2987727288643822 1.4963496439685584 0.5704087494129725
Ni 9.214994926792691 1.0488646284092393 10.260609086422164 -0.4551793619233064 0.70708730791535 0.25863780851670937
Ni 5.732575310220849 0.5875661319523309 11.592227136961052 -0.37437730287357457 -1.1127323105539548 -0.2543875178807877
Ni 6.181663065770315 7.403456369434189 12.70544264082491 -1.6220277375953744 -0.4569071432476905 0.6771354987482661
Ni 3.1705614222647385 4.3547595051281425 2.110749812792604 0.20454359777546707 -1.083238929080528 0.17057418280855785
Ni 6.930242289579725 1.7605398230552562 1.9805096934694952 0.3178474861076461 -1.5020320390653166 -1.1473360166707531
Ni 4.219388688963866 1.8470415223926857 10.206159064147295 -0.28067061994703274 -0.24574449749380903 -0.5640380699999382
Ni 1.428515645715055 8.504449923877571 4.844239005479982 -0.19642971041908106 -0.022092718133981306 -1.0719237611780248
Ni 5.898956345778307 4.908142474456006 12.903571789550268 -0.7617687586186299 -0.6777214531587231 1.7769585574397204
Ni 2.4188251339508415 3.489154064819579 4.135005398589802 0.5768236518003808 0.5905188898992862 0.9202392161851185
Ni 0.06988321067949246 4.230102159338558 3.18910497303621 0.22358235957447303 -0.8325810534455016 -1.3578671994882228
Ni 1.8458926498067334 1.0291096241873774 6.493085062111859 0.7726046728918694 0.5578697364056973 -0.5200904607743946
Ni 0.9878716366509611 4.748692036124372 5.392090573625724 3.1391372398191035 2.5748952813384753 1.089151180799905
Ni 2.2930002347202496 1.9196633464234076 11.66051220049049 0.5369738667932946 -1.572270720776905 -1.6001283664191215
Ni 1.3435177552096442 9.092028198385687 12.129880826331648 -3.123914509332078 0.0021144752398415197 1.3013360971707137
P 5.302794218371897 7.86136148857015 1.515829962247426 -0.5533913889193696 0.056929623307508406 -2.134998299495536
Ni 4.337890693012453 6.390290855037223 2.9433340396611913 -0.22265007756819072 1.0737016790140541 1.83520638533802
P 5.308968240967949 7.366692446683716 7.254800663196742 0.18192457482437055 2.28073973953113 0.409040915694031
Ni 7.877156151520112 8.5708510231746 11.818449489562578 0.8875363266354586 0.5296338814884556 -0.7117392048650645
P 4.721707540995786 4.044330396232832 6.032370342375454 1.1036961684936153 -0.0844658810545642 -0.1318266297267149
P 3.807027494454759 4.374477147639891 0.14614219718964352 0.14227687852576143 -1.6741905356418587 -0.4870055052949677
P 0.5530644607491566 6.0777134478104555 12.371865150386789 1.8488759124053125 2.267379001953508 -0.511075658870294
Ni 1.1480319474747278 8.236407675104628 2.464341037295113 -0.6994331338042019 0.891122244214504 0.629094179069323
Ni 6.873844788165256 3.617145943236683 6.857640080446813 0.8426476936528843 -0.030664261853076222 -2.2385610492805514
Ni 8.93700512270236 2.275673741655685 0.7724374778443519 0.4252375800585515 -0.40140011131932163 -0.5403273566465597
Ni 0.8259076892715248 8.203099710539542 9.845513948775592 -0.1455216107153042 -1.5421651596407764 0.589950418990326
Ni 8.474392428092251 4.788743789364724 13.000756135851546 -0.8797402276298075 -1.424795585879656 -0.9135679748125298
Ni 5.000248430310275 6.074771213139115 5.446828281068456 -0.5891271517580822 1.68931659265002 -0.5227083580132159
Ni 4.0668034648653615 3.7608857824661075 11.901963186133777 -1.4249994743603458 -2.765357718430528 1.3546335230422735
Ni 6.477791980120155 5.892193876247988 1.5328500892890702 -1.2050935351961956 -0.53456140069706 -1.1503722323939156
Ni 0.5439454013535047 9.385261580201826 7.919248788175346 -1.4817943718622029 -1.5564316968621195 -2.3035024871489425
Ni 8.538449080079735 6.32293703213233 2.3551673182188058 2.340714834533182 -0.6048738730693777 -0.8427001441573744
Ni -0.07439090100453764 5.9403904822928135 10.288005494404738 0.7698178541753516 -0.3895797216456259 0.189539411057151
Ni 2.9386479471703604 6.3702836592721015 12.104412282590868 -0.1341475645504077 0.1839305495108058 -0.2081850511827963
Ni 1.7576162692389714 2.158824993279566 2.256219499200227 0.3731822541242089 0.29220098918413545 0.3215928120826913
Ni 8.175237215223317 1.5911605102612874 7.069781738549778 0.3802137070496936 0.20741603422725569 -0.7540701044227917
Ni 7.9166474791087795 8.375346534584628 3.234902023249076 0.8364217673478304 1.5289288634561602 0.23265501129970256
Ni 4.2195661570868985 2.096356213971853 5.704889348984905 -1.3606213651945922 -0.6240368191510737 -1.5673817681157198
Ni 2.9977168108578565 8.959104574233764 10.911838638363047 3.2180801341729097 -0.5722499163867693 -2.5339206386983264
Ni 0.8609781925111584 3.3468526514294767 7.466805017015045 -1.1712156515018282 -0.28741976574540823 -1.0697334383949255
Ni 9.103825158353636 1.2407170098357378 3.1272862874844507 0.3696685845439956 -0.39267018764549144 -0.5255779662515272
Ni 6.42871737388769 8.17082853343007 5.376478983055312 0.988532087024246 0.5607010352069053 3.4370735888251196
Ni 3.8233732426288762 1.7371607329525045 13.650057823550638 0.39203255406149257 0.8060179582449924 0.3726649481681582
Ni 5.5823158525768335 8.413838436427792 3.4739198275213017 -0.03946874751858364 -0.6842129744203378 -3.7497552144611097
Ni 3.7953052579070348 6.291254301957126 0.7956092104559807 -0.3875418652799906 2.2959251890223173 -1.0217229719539178
Ni 3.516540198331872 1.9650484837822857 7.861955539760936 -0.569328114754284 1.5050631125821563 1.3691558850281644
Ni 3.91932745462471 8.740006165707896 4.761258647320633 -1.9362700228502654 0.915141747057553 1.8306588751766535
P 2.066102569208444 1.1987224476695482 4.4051100137609405 1.4446049072960991 0.09187374348286112 -2.021008697950242
Ni 3.490377660825756 9.08341632420481 7.780574262794392 -0.6945313256272103 -1.1044078498486594 -0.653405502121178
P 2.019577899691141 5.097799855413408 9.342201275254686 -0.04979018404924973 0.14728384482204956 -0.1369204993098545
Ni 3.7187137521768845 8.73805401635453 13.31572842869651 -0.09158218038437131 -1.0272405593380374 -0.6115898516369724
P 8.377961854292487 2.992616937427532 8.843809138955564 0.4137774019377519 -0.8415475186101701 0.44132368698713675
P 8.445278315487265 4.536598948244552 5.10074209008475 -5.163963254632907 -1.3833095508207274 0.49150570715816644
P 2.8868832978098125 6.755314762834085 4.827205801839799 -0.43359572221525977 -0.23356801003227518 -0.18525672452139708
Ni 9.89534232750957 2.5550085673100598 5.105799931591198 -2.0010484527782313 -1.1842069215551734 0.4348393648143737
