# total energy = -340856.4884851235 ev
CRYSTAL
PRIMVEC
9.49539788641843 0.00000000000000 0.00000000000000

0.00000000000000 9.49539788641843 0.00000000000000

0.00000000000000 0.00000000000000 13.89747461629490

PRIMCOORD
 96 1
Ni 3.901896259893873 0.7883496887264899 12.79231929238158 0.13065060714074275 0.35314256186451437 -0.27959744148751203
Ni -0.3031092336544485 3.588633597582846 1.1090994720472542 0.719014141259923 0.9455746096261135 -1.009990514008338
Ni 2.555145027106217 6.724412692697216 4.89544054127518 1.0113274876522067 0.4549718738981906 2.9265448035972312
Ni 3.6326352700738074 9.400595553045186 5.413233118408834 -1.2946697408941317 0.05850313844221537 0.5415445168831126
Ni 1.1038399713151128 4.182760625584452 11.883493897951418 0.47795470794660905 -1.2027052374696772 -1.0196810018232243
Ni 7.14349206589285 1.5017730940495106 12.871326697674693 2.065806828101539 -1.3265470492187026 0.5676013618711644
Ni 3.4661904454958923 8.98950180923343 2.8884790608698534 1.6106876299922066 -0.14912372624426576 -0.5694391864108516
Ni 1.53070557054497 8.288285687068454 1.3512805374441494 0.18774658082278634 -0.27221966096620215 1.0579318177743071
Ni 2.4333760482490554 6.571897616402477 2.8002991014925205 -0.685906817182993 -0.5217603922776498 -2.470276322374804
Ni 9.4153608963174 1.5883711201862318 11.98922609979736 -0.3612248246520166 -0.052354602342316287 0.5904582118646798
Ni 1.9481327445577328 2.632219169447419 2.622272740458579 -4.5672024975889665 -4.151328875243818 -0.2946301674509184
Ni 1.1704122039077172 8.807617468153508 6.550532971796379 0.9273290331523643 -0.3454390225726696 0.06131309708718473
Ni 2.607341227728317 5.648156851417977 7.515698358362465 0.389955874038122 0.44216443772087727 -2.792516281123191
Ni 3.4242302834895137 5.006885174318914 12.515370828662359 -0.4081276598511423 -0.5969795579229654 -0.2548251196388385
Ni 2.0212568014962073 5.786466812899061 9.552734611594856 -0.011492059799999562 0.3023897567916792 2.5380570294642033
Ni 5.349782972548001 4.018898549154474 2.281715557738561 2.2733935835787045 -0.04212572552545649 -0.7170292496194103
Ni 3.3403764272599763 3.561163412318204 8.510354550803047 -2.119374991135982 -1.0261591533484005 1.5380567938993577
Ni 7.382633654517118 4.946389996192044 11.119479963740915 0.4805731194060626 -1.8270824706793052 -0.8470975018941218
Ni 8.306640290634494 2.7949417981650715 3.016850189680179 -0.5508141151104965 -0.3535038018586751 0.9578125464532021
Ni 5.699564934039053 2.6341657259559748 8.903944478673965 0.07783294911907887 -0.10051290721509787 0.46959605156926865
Ni 4.949039212123201 3.3490267344760456 4.910769911164995 0.11453853207022854 -1.0701743825870857 -0.05336710276723067
Ni 0.08471413925234332 7.805026921476099 13.442902156369861 1.436248564911604 -0.4093695026780433 -0.25075712021705204
Ni 8.973293165525604 8.591236347582937 8.55011557872464 0.5127538179036653 1.18192121084479 0.21875691316137164
Ni 7.349418753702836 -0.09708189462987393 3.5573785468337635 -2.3686125893847145 1.5264683177308098 -1.5860127529533459
P 0.778919809367238 5.931252635545193 6.029210955373797 -0.5801231484872589 -0.2148249250968171 0.005876770495751169
P 1.184626814118975 2.908620698264723 9.267489069450388 -0.25947084594096603 1.9426725839424994 1.0671798187351362
P 6.803471373137384 4.073905387466977 3.9503151913496155 0.47169021509413606 0.9229794979344169 -0.3401878014760593
P 3.7116654643211677 3.697393881724294 0.6066818427119093 -0.21274978773534325 0.5190221674108803 -0.5685012479776145
P 3.4136144289696833 1.7294822239601146 6.497542006394932 -0.37433462256109723 0.9914544028773634 0.804227699113789
P 6.732056487767398 8.316496513346108 6.95793680409972 -0.6132050186428923 0.7109506475254982 -0.4810685709852424
P 0.19035423574154034 2.816088048626308 4.735619706064916 0.5026051595054376 -0.012364435102623866 -0.22700424077182838
P 4.003383069471645 5.218186257172033 5.361770912021423 -0.2992113590636976 0.037874406448270254 1.9045724346366684
Ni 7.6289727545242405 7.3907807056602435 4.194230116348765 0.20867536055565353 -1.8315962993892583 -1.5413192667007132
Ni 6.007567146078178 8.937068223671263 11.678673423962147 -1.28833608536662 0.3970624031759162 -1.4282442065498886
Ni 5.487884035281825 2.552571774355882 13.88270143667437 0.6934020971187735 1.4512792339924812 -0.41443920389146693
Ni 5.875609605593309 9.002187660430652 0.017296816273097718 -0.8132990652874381 0.34832560009184527 1.8949773347490653
Ni 8.732271488175998 2.3887002025283017 6.633959535133794 1.707814394343891 0.6114558971622696 -0.1561271541452924
Ni 4.372630596048253 0.05809569115266456 8.044261564996873 -0.6061234292057626 0.0778684303427046 -0.16658845868793246
Ni 1.2034846737579583 8.580307144942218 10.504419382184373 -0.4188627868804593 -0.43072200021189044 -0.5189049251067257
Ni 1.6504710205079594 2.2406669539020423 13.236426634578438 1.465126424288219 0.24613736205685355 0.8826563728353379
Ni 8.125392141193954 4.883027207989157 6.312288698245567 0.184640688203953 -0.39544080841209317 1.2363776900214578
Ni 5.8765401545583735 6.688529585156573 10.60147943739976 -1.8982899440620664 -0.5128299225572395 1.6781842301822842
Ni 1.850206709080978 5.973554631865269 0.2976170956810406 -2.2541954133836986 0.1640536080812207 -0.4352785092343213
Ni 3.664995585103845 8.572663349872036 10.290912518468144 0.508240503414344 -0.2568524344815125 -0.3672188374519224
Ni 1.0480735011943931 3.8563088560032592 7.062223806430531 -1.770205554986603 0.39388040590350876 2.7329034545565642
Ni 7.536686985223495 0.9167151202982544 7.854198837961736 -0.8656302705909866 -0.5786452783901519 1.558454126608787
Ni 8.637478933908138 7.5628847872093745 6.159277012656207 0.02144351458575662 -0.6202760665570608 1.0556160251569369
Ni 5.8219701045355965 5.028468213069875 12.832719360561832 -0.8103235275988818 0.4364193077069839 -0.2151100604374037
Ni -0.15229763168963636 6.382948699506138 8.214769470208987 1.692282874367195 -1.476200422714193 -0.5936160407673712
Ni 2.7524973708809544 8.125714984712445 12.430679478364263 -2.532473621839155 0.6958605859615952 -0.10151280923452194
Ni 7.065686777936239 1.2507717538194576 1.5892181096523936 -0.1684360534196325 0.35519430218722053 -0.7107377601837437
Ni 4.972302936249841 4.395362577909143 7.395096363870676 1.1412427592888217 0.03757667270219335 -2.025183398153222
Ni 3.222842395733624 4.112523169517201 2.8463555780247085 2.8884585382484707 3.709037167916457 1.577031375390342
Ni 3.9848955303391667 1.7263677335464256 1.3646975342567798 -1.1333623280994805 -1.3966422633738913 1.2114048221262042
Ni 9.05256074471303 5.368764272355819 13.099661574287317 -0.20928265512234925 -0.08909206697266592 0.5324394692580507
Ni 7.553702737727553 6.988707589571065 12.354173160799702 -0.7952751179061917 -0.3967307308681103 0.13415347808767863
P 4.6128926415896405 0.9763547631011197 10.035991478107693 -0.4280804488239853 -0.0058955395488285555 0.4518199585327702
P 4.311005465606661 6.983285717539916 12.823532563381209 3.895854037836123 -0.9933503343484955 1.3361290364801828
P 5.067655718976262 1.0816397317199753 4.117710505227562 0.32850445160086006 -0.24143918525023578 -1.133669317816938
P 5.504140155977665 7.9526328772102355 2.4772523814916605 0.4025483659911519 0.5406356319155978 0.058572301117253964
P 7.550730678277905 6.425450099175872 9.292004286981065 1.1055378496880444 -1.2956645007072332 0.432060773627972
P 7.371913350623658 4.475237862543144 0.2613807593495763 -0.3084508753840946 0.17448817315098336 0.8737166471435468
P 1.3439405950972543 4.752978242422431 2.132678645585695 -1.5077704842109902 0.5828773141936284 -0.2453673166600484
P 1.5143544958731023 6.30214286590707 11.95432956406764 0.6624838102733623 0.49741590199501434 0.4877421263506762
Ni 8.87691487985809 5.189453184026231 4.127188811114587 0.4072149182288858 -1.0031048426320983 -0.8467465463126063
Ni 5.698919247002069 2.2611865081215003 11.3647707718527 0.4134279890181331 -0.020805366781125458 0.15125131411022985
Ni 9.096400995444748 1.3200786609216426 9.775566905296706 -0.24933118640380286 0.6089611557648738 -1.0355830177654617
Ni 0.5863151643938552 7.337340607952188 4.111373276867512 -1.2574797621073956 0.924417515932524 -0.33926194722768027
Ni 2.1527775536913527 1.3186638466788385 10.600729300989146 -0.3191178681796375 -0.26375353247671995 -0.1791999768043559
Ni 6.3594570858370325 6.791127356253861 0.8425855007536526 -0.8475315041077468 -0.9664362835664712 -0.40503282297590243
Ni 8.389573093296569 4.071455574885477 8.72201266060603 -0.010690904054942878 -0.6092884571973056 0.5910212834570014
Ni 3.629074495972791 2.8713512626740836 11.339005010457743 -0.9097591425894009 1.6290008264790976 -0.3367214401940136
Ni 5.942723075849267 6.359760938560319 7.85750703448652 0.6963305836194782 0.2606394123277705 -0.3450464151199412
Ni 6.491148755189027 8.260730043225388 9.162354128113654 0.03387968346658036 2.888295787418361 -0.4750357345276012
Ni 1.3637100129060977 1.2836733065128498 8.079866457387757 0.7582846567247715 -1.4781786294864865 -1.7529159146682198
Ni 2.241739933831149 3.5511742540401525 5.3585880547449944 2.239488189080511 -0.5968636011703915 -2.011955072388406
Ni 5.788926120878163 0.8603770272418515 6.202665282462033 0.1311303749906387 1.2343969121460032 0.2055661255027105
Ni 9.408590677826668 0.6320060681183386 3.678480948779215 2.4166204847225607 2.3528494130131867 0.2838173931061306
Ni 9.376781095857588 6.1431899100376945 10.708101358001079 -1.0328411933542665 0.6724812878057063 -0.8029593739243268
Ni 5.589503780426034 8.38166342709351 4.881376907885805 0.4459002506142256 -1.2043052349669454 -0.30787803359976007
Ni 6.277616253899269 5.842746034490327 5.211469212907877 -0.06378778387992241 -0.8621361413947991 1.2746254206487466
Ni 8.2877444494051 8.933336532413396 10.974571650465707 0.25053394846265237 -0.3319366172108606 -0.16265389952021667
Ni 8.306526345863261 0.3750378200347419 5.685734887430704 -0.07038163504735621 -0.9606348463933457 0.38139872849673023
Ni 8.413463513664988 6.53439079587177 1.7929266725823862 1.271142861416785 -0.4088632524655862 0.07348932743840246
Ni 9.543349360604337 1.2302237134071916 1.136771909280834 0.2900201794827328 -1.4152984450224981 -0.362003354689254
Ni 4.730929929188937 6.145620731823989 3.5845059482449475 -0.31649097207975174 0.5175409548796636 -2.0999572487310028
Ni 3.8949646196438943 5.905539098837052 1.0636516505014002 2.4152459729725373 -0.008092032979515097 -0.26815114732378337
Ni 4.1269181922829095 7.264358981977755 6.636391306459848 0.5419363530048925 0.3941958802613985 0.17490931984880198
P 6.804848205789778 3.018776805853769 7.043268144196239 -1.1882234989137341 0.4815712216532739 0.2761729891869953
P 4.6911632040287845 4.892237743663785 10.369655951707903 -1.1613613844155675 -1.7001414511796655 -0.04907001805377355
P 2.0152747010064997 0.1629343760841928 13.809294416887335 -0.008358913487656572 1.9063691215257748 -0.19440882333431037
P 9.153506316627448 8.47140442983673 2.4253590840530865 -1.2545697875494521 -0.5204645562843617 -0.7008580391761865
P 7.876698182581359 8.899675347911788 13.16636959106564 -0.7928359123370797 2.0486925370187556 -0.011829388534760272
P 7.720850221728069 2.718750727800921 10.952168209361872 1.2404462036638766 0.15593303585661533 -0.6099818837199042
P 1.8904007271332521 -0.24262355092518167 4.174829119966907 -1.7741773951501574 -0.480297754257489 1.038964532643185
P 2.269390531650242 7.909143956189821 8.601772440762906 -0.07611082422164955 -0.1584480889689852 -0.7224367937882268
