# total energy = -340893.282849391 ev
CRYSTAL
PRIMVEC
9.09464574370508 0.00000000000000 0.00000000000000

0.00000000000000 9.09464574370508 0.00000000000000

0.00000000000000 0.00000000000000 13.31093334679923

PRIMCOORD
 96 1
Ni 6.531629158028672 1.9818142841194286 11.618261871367718 -0.047556152512408426 0.0011636812907979959 -0.26954751345067773
Ni 4.611631181968349 0.5554527688417644 6.1938303638965335 -0.5514088112717019 -1.4029828608799386 -0.6219768512982513
Ni 2.704984146062619 1.6105071767001091 4.711844175476143 0.6921479129966982 0.1643773099692266 0.9350857942796477
Ni 3.454564859646774 4.383128204186233 4.913597980790486 -0.44134914090843347 0.2577150395921239 0.45182381518751213
Ni 4.895584215692257 4.651465730930962 2.5940476555955043 1.2087028498140087 -0.32911611704293 -0.5024557784117669
Ni 7.184752057389658 5.999528711417798 2.633621188221308 0.3209626346978601 0.5707291088668688 -0.9145642772875282
Ni 5.047974102088958 4.638542239132818 11.324436599539032 0.3449345721324253 -0.33165019631869336 -0.09198275825689965
Ni 5.577891833688181 7.985308261141725 12.780080146162572 -0.6466422152554154 -0.5445133697034493 -1.8937411483491193
Ni 1.8574995695600764 6.670058762996694 0.2207379691281698 0.455214586036616 -0.34857808242228355 -0.6920484113043566
Ni 2.573493755902467 1.7042638810963608 0.14280503910179287 1.2567063742764808 -0.6256357882070773 1.9457021147974427
Ni 0.612869087223219 -0.04763775512926239 4.820182325614805 0.7932259486866468 0.7313970883053081 -0.10477451070492924
Ni 8.579688842751679 2.463548581836477 1.5000490646063818 1.4986908905072256 -0.5504580173226584 1.0202049926474945
Ni 6.730792808195857 0.7068677091999285 4.749939828146142 0.798812955856121 -0.5593553198122884 1.1596647134394351
Ni 0.8867870886810659 7.294933692248576 2.21639066642146 -0.03249771551738919 -0.1331407205524481 1.351631502991156
Ni 7.8562825200155615 3.9016121779703505 3.883757569175053 -0.09992952390780209 -0.14626003154322553 -0.32721555758610743
Ni 7.694379634026418 3.625998934520122 13.0480557060012 -1.197970550998169 1.7128910375358501 -1.576944986324123
Ni 7.958961072021932 8.921201890261976 6.857300241877329 -0.5659553416273092 0.30562497589952525 0.09587206600897681
Ni 6.958841053683878 0.5890920450296444 0.563996279183198 -0.3642571837204372 0.2832774614422605 0.1638155239284856
Ni 1.9350859935783538 6.5058367423076735 9.36240498914186 -0.6018345720224215 0.24613890471875027 -0.10099318928562606
Ni 0.1033870249205693 4.939620491052297 1.4832503441979703 0.32028000680853874 -0.2375102825094748 -0.3391789005955707
Ni 6.562341777171764 1.8427025807102653 6.922643453609426 -0.6162268361883516 1.0282877696556292 0.8759895023381236
Ni 3.4121474312537083 4.320065929641311 0.17472178935964575 -0.5252720049753341 0.030524136730786144 0.6554395018320712
Ni 6.095650023743337 5.662581176140203 4.692649925342446 -0.057058178465572706 -0.05064533296069342 1.3022516670064475
Ni 5.320304178375829 2.8114278814640863 9.414637359370644 -0.0164853992495329 -0.44658339272417924 -0.4996715307984105
P 0.11379766606155185 5.657051631444023 12.47541951323022 -0.00699391481932989 -0.49528959968063085 0.9013562632376864
P 3.8726730147742234 6.1695804001171 12.338888870322334 0.024568176257667364 0.8424720873069685 1.261229458957815
P 2.4354006528320737 8.526376028592127 1.381488532496492 0.7490968195779163 1.313195824722777 -0.11043659408671302
P 6.4049680248317955 7.716643327145248 5.750429998571589 0.06510496002944917 -0.07235855626806893 0.6882380364193309
P 4.786448465109754 1.085982570108838 12.726117974287053 -0.0077449340527415 0.1328833531260034 1.1126245813314968
P 4.035276188496271 6.0636368702391374 8.25914168239287 -0.6282182042222728 -0.09657577694422077 -0.14399231855497138
P 4.828483918375782 1.1740551208289176 3.8680511157370545 -1.2627975747758833 -0.12943858911051256 -0.6401905460928007
P 0.36580302773160867 5.712165185488186 3.5884817013282104 -0.35848814244714394 -1.1518418749609067 -0.07358882913074423
Ni 1.3574122764534038 1.1876334271305573 2.6459071453431338 0.7835277475622764 -0.6162114095693839 -0.040538069323362444
Ni 2.0228766102760956 6.539568783883548 4.790751142076469 0.30766180382389596 0.6638346678743019 0.1270644324513812
Ni 5.942023265506701 5.494111955824346 9.272968241539498 0.6900118404903021 0.8779389127550106 0.7354442617914883
Ni 8.693744796756276 2.454372084141665 10.061042953283279 0.5386913637050336 -0.8894762239706487 1.6331860682050388
Ni 2.1501288954552935 5.368378476507422 7.086275231780714 0.2476262878975542 -0.053807018518126686 0.2110009233650366
Ni 0.4466707999840667 9.134298537920193 9.088506086440363 0.9200137304378737 0.4964509669785837 0.447190687290875
Ni 1.5107298167300562 0.9916710923137919 11.506596899765464 -1.875487858565886 1.754117648285805 -0.2771422950788001
Ni 3.9747058469229812 6.9364955087521105 1.397634257330585 0.8083388930686853 -0.0376481493700771 0.2916150347736784
Ni 5.802802426346956 7.843286271050362 8.043836854714533 -0.9962775352976196 0.16476040434025818 0.04626263051196549
Ni 5.380528923405607 3.1936030907122466 4.732409898208828 0.6044689243214751 -1.1788939939826921 0.2187404581011394
Ni 0.6344816036969073 7.565999612757868 6.879476626395694 1.1999880956488302 -1.3746343916442327 0.49185820540157865
Ni 5.360547986403128 4.49320070329457 7.200456691898481 -0.49671064839787366 -0.21274181731554329 -0.6851136318577362
Ni 8.26837001956921 7.2402112079773335 9.204989401430835 -0.7923090932993323 0.393832840495025 1.1697760908418242
Ni 4.769295962976537 0.5059306030857774 10.626357956119348 0.1719137275555878 -0.924681054006556 -1.0098470464519382
Ni 8.399260163101157 7.221694508961836 4.696669758822235 -1.6046131416633527 -0.5241687446088263 0.4472529079873781
Ni 7.365135263810772 6.208660093471519 7.236355987588007 0.08499861362958265 -0.7385128734144829 -1.4802067156601089
Ni 2.520117279221741 5.117602710960595 2.684136489307596 -0.6324494686948012 0.634574485457604 -0.9572767285543899
Ni 2.000903945825485 5.216952622574199 11.576705705939663 1.1192382299932724 -0.4804162821132242 -1.167538459760557
Ni 1.2262492935449996 3.408254922816265 3.725943635974401 -0.7787598938599878 0.14309911731674066 1.5405407366634758
Ni 3.6332200833503308 2.645750717433965 2.407375501547075 -0.12932494635078373 -0.5943040679733314 0.9088538571663121
Ni 0.9273901352206979 3.2979368682691192 8.24364713420392 1.3953317720925842 0.9016244292974085 -0.4032474489407055
Ni 3.8262266582554867 2.599631768166976 7.2140204467667095 -0.7120863037918381 0.2552992310617797 -0.44579509249492905
Ni 4.214040547950409 6.69865232964931 6.182090085527621 0.12485714038741721 0.8148162732629128 -0.38569812720303254
Ni 0.7564544469416767 7.759169891288897 11.577663372151026 0.6372024099987542 -1.0503470634485137 -0.729649252376266
P 0.18809546612894326 5.6495485485914765 8.20895924534586 0.7367092445468408 -0.45966002340247936 -1.3144379246599944
P 8.511760932659953 1.740542423519161 7.960470783238323 -0.056014824802722886 -0.8252354117137078 0.11609944879944521
P 1.858545453836492 3.1068401689991574 10.603170246978918 -0.6875422959038868 0.5432766690828708 -0.39649598914948486
P 4.121902690521132 6.277606603902015 3.765849123174893 -0.7328065670583251 0.18532305898295823 0.15329971199882628
P 7.007770248528367 3.7637828196305314 10.424630525278062 -0.605120441862545 1.3219108359982716 0.8384051163264464
P 6.405795637607046 7.6063525565357475 10.44945527067723 -1.0166838668681135 0.26202935069676164 -1.145066761020602
P 2.4815923592661178 8.497464149333645 5.910613996489057 0.04518585250801895 0.37807892009487787 -1.0052373155940688
P 6.940415301127199 3.967748442823347 1.7839975510073491 -0.699797459122156 0.5592717589595465 -0.4790744233733491
Ni 5.241671870081137 2.8148747522533166 0.708208260002917 0.7967005374988085 0.10837302668946497 -0.7281492707919718
Ni 1.3940182261279515 1.129700532863012 7.03267229841753 0.5622156720792189 0.1008080698580135 -0.4521194920510601
Ni 7.1053376095491245 0.49445588837661547 9.240037438265816 -0.970825413773102 0.5202650386790459 -0.040889282015194095
Ni 2.7553502949564437 1.5824320048627605 9.225395058395998 0.20448677639560267 -0.3921703651909375 0.04338582318480269
Ni 6.594418593197138 1.9474547119777041 2.7094668970177946 -1.0146997465585492 0.20551547477043317 -0.2577790600608399
Ni 4.14774057947154 7.01777435899843 10.224128143237065 0.5332010300144236 0.8504556197330774 0.781137650063545
Ni 8.363136229658348 7.374893818842024 0.23581416360655436 -0.747124526342894 -0.4033474648536795 0.6429213147604024
Ni 7.650625292688717 3.9020487209726804 8.307487000971742 -0.041156676743967835 0.1709153681980605 -0.6962516507524267
Ni 3.2082545652279473 8.630191411333731 12.299449028990994 0.15293204424676243 -1.4812161307612297 1.0530940300660316
Ni -0.0967615753956232 5.072375036990029 10.291800493779512 -0.40602912545090075 -1.010260479840273 0.152005418667435
Ni 8.792148865198167 2.385634750566452 5.745890860811945 0.24375394942634146 0.12307588011727837 -0.31911041198046974
Ni 3.8074462145094143 2.675663007739453 11.529158897269221 -0.42874970697686804 -0.1061618779707591 -0.2200337229912662
Ni 0.9417142024846513 3.281020826928831 12.711928507782149 0.025054371865466527 0.3023974701011631 -0.14329940625300483
Ni 2.8737080164631674 8.391693417727437 8.022167041971787 1.228598817406987 -0.18283268846093673 0.34015283447306577
Ni 5.618681320468392 7.910050066469207 3.677931181434806 0.7099857125090676 -0.030312792050928444 -0.7255550277022343
Ni 3.310978590463728 8.491816374241 3.5856996491529443 -0.9734291699445363 0.17758969489444254 -0.08282757412019283
Ni 3.268633919237717 4.170177070862126 9.159812657477207 -0.028186746846861132 0.26007891183861015 0.41190846704981315
Ni 7.210962826821223 6.129764040446251 11.764136353454642 0.14664569701741842 -0.7890489344908218 -0.9440985393012192
Ni 0.4915019473941824 9.315827669722422 0.6583532302076534 0.5230469722995573 -0.3103244382577236 -0.6999167583088398
Ni 4.840889015358659 0.27280663573108177 1.5959011754138175 -1.242920376235982 0.2764067024643562 0.4168321296036757
Ni 5.809250530277205 5.461280284190777 0.18862113666091565 -0.38679675958384996 0.07169084077708299 1.5487844647295068
Ni 7.844668657224406 8.882495077388715 11.424721440749295 0.03543083000378414 0.4426195229804248 0.47048591037338977
Ni 9.181045017753034 5.0620162353305735 5.724686693938353 -0.22409272355198828 -0.7813718775615381 0.47992751540226375
Ni 8.08694092887168 8.567256461831157 2.639425391223121 -0.8464279866309229 0.5059517073801674 0.10504010566149008
P 8.511124307448222 1.3870608220283172 3.6284408469394056 0.28197416924980473 1.122338466185151 0.14817858872217707
P 1.6940869723545424 3.227298753704594 1.6521933955642727 0.36519589348462267 -0.15433175280776645 -1.821030865168586
P 4.864280444566842 0.8058938514201386 8.397654958103006 0.20962075518805837 1.1390611782564704 -0.6282050915961503
P 8.414584641412118 1.5116210920264799 12.726237114148104 1.5751585838476614 1.4050639117786834 -1.6135299845370081
P 6.399393006906206 7.698717780112073 1.3571294329664774 0.33426809355751463 -1.0297414713830202 1.6698309731215821
P 1.828023822256919 3.409009778424461 6.0826710546053135 0.20000225826168783 -1.0170319942361516 -0.18467899764105614
P 7.069995815652157 3.8673526469333264 6.028015870713596 0.09419364986528939 0.7845968122567392 -0.6110424637739348
P 2.397666967068173 8.670517071173968 10.232487032267096 -0.011570992667051042 -1.2372960880706692 -0.5670190070051331
