# total energy = -381169.1294615236 ev
CRYSTAL
PRIMVEC
9.20885003510788 0.00000000000000 0.00000000000000

0.00000000000000 9.20885003510788 0.00000000000000

0.00000000000000 0.00000000000000 13.47808287120350

PRIMCOORD
 96 1
Ni 0.7864919410892328 2.6580700131702466 1.0146586900120125 -0.3630649631845489 -0.4305065417669747 2.2699634748512327
Ni 7.593829292484101 3.6152562720053543 8.4054982287404 1.1377956812804857 0.38794321448346736 -0.06836383328637903
Ni 1.1648366114401447 4.978847487209503 6.930928402761978 1.1067059018542167 -0.3578127136466741 -0.13101750356185823
Ni 0.8011947905712145 7.436413215166682 9.587054427753817 -0.6931082200274385 0.06663656618262716 1.1089463611489612
Ni 5.668175933892287 3.744787952334524 9.87781741184434 -0.43210319683013326 0.7013151813182632 0.3862434581835412
Ni 0.7506161043036234 4.253936045162584 13.011740921636896 1.2957051241371813 -0.868604265617646 -1.8555458682263206
Ni 0.07199202454922184 3.032041400783471 6.1999179395376105 2.101040454492853 -0.37318173990357667 -0.00199954692853204
Ni 8.768896935976407 1.326129614494703 4.345158910606973 -0.2575826277793177 -0.09074811451885016 1.633370416301703
Ni 1.2952615501933111 1.2540519476429743 12.91419986439144 0.21374763287223833 -1.046151023089295 -1.617368384446492
Ni 6.863410958297496 9.022213974402032 3.7425262588403654 -0.038577860273198074 -0.3586354666582856 -0.9619718200372142
Ni 3.3613774937460836 4.070744397445523 5.915934510619723 -1.9726999835425252 -0.11869189211696977 -0.08439080484225465
Ni 8.46315391602697 5.6543074061960175 0.2147043314996875 -2.0566665563631674 1.427687305605154 0.28762262578483366
Ni 1.283133495096374 0.9183175458866241 2.878190990082249 1.8980801420441054 1.034870050858837 -0.8492777973748923
Ni 6.4326117589886005 2.3571524304803355 2.8293187036699825 0.41975033169173515 -1.3634788892480452 0.523288398886402
Ni 4.640652480804784 2.5214198919983035 11.808795327351152 0.28719762243227315 1.8663655845496439 -0.4946028580262514
Ni 2.5223499858212275 6.467421210975254 5.457706752384309 -2.071241111743233 1.1493725874848075 0.22840523488441308
Ni 7.338053491180056 2.1631956374266608 6.230324640467432 -2.277424302004652 -1.1969791336191773 0.3799936206190875
Ni 0.5831596181234918 6.3065333973089 11.87037674727844 -0.13929902684436007 1.1143893865414034 -1.7027565202050094
Ni 5.834810069791358 4.322505140266452 6.445218674271598 -0.11562508026618797 -0.3316406832369966 0.904064663307785
Ni 1.1941207535876468 4.43853664688863 10.416373966291284 -0.9855781466022446 -0.2561708350334556 1.217035023828788
Ni 5.04779414515238 7.529883039945657 11.761837560798151 -1.124844006215824 -0.7741229093086087 -2.104310383493376
Ni 2.7396972571939755 3.4300478861970025 2.6627702100734183 0.42874610743244224 -0.8239488316918003 -1.611232446752083
Ni 3.051969351603343 4.547026105580366 0.48963730290104374 0.2298843905331009 0.07932058940819887 -0.7763538555216565
Ni 3.5565498549643713 3.686385427334695 8.245918071735979 -0.10555046963900533 0.7067209257148668 0.5441441592894886
P 4.213978846175788 0.4172400889636175 9.897939669393558 0.36148707717446776 0.3844061478644864 2.775795368824084
Ni 7.865398271078388 4.6419785551661805 11.322397697785796 0.09640017059830495 0.5883905307023738 0.864717271858414
P 2.6046863112743135 3.1710766140359814 12.214889945484227 -1.1044888395982397 0.4569796483568388 -0.5005814442071895
Ni 1.7836160603266986 0.5235157401798 8.994881187512723 0.013480293874621945 0.654919110552227 -0.013133709168480608
P 6.900237148375439 6.5111724560516 12.18080338820153 0.83862006055073 -0.47536920660761994 0.17607634357370966
P 6.782870358542134 2.898752509763677 11.94745758218952 0.45059251388357235 -0.11168126512709152 0.6898352057031216
P 4.624647499970709 -0.2237280833519948 1.679436343309501 -0.18925401860624824 2.306447942930512 1.2830727800851516
Ni 8.027575323707211 4.975265244663786 6.461096572979372 -0.2850582074917671 -0.31903096489278604 -0.30329529932508414
Ni 3.7287645538009855 5.903996157827264 2.405055945900804 -1.524250998364517 -1.3233434546797402 -0.4064356168607
Ni 7.116074168392152 5.8113919649230885 9.462705488053771 0.674385961027587 0.2554596678990439 0.120793768951321
Ni 4.5837141629123295 0.489455888561325 12.54686805743493 -1.155383312455262 -1.6946770856309845 -0.25539461898906335
Ni 3.5969490787382994 7.990776760178464 3.820187251284556 -0.22379216159243392 0.443777547844268 -1.0787834644123355
Ni 2.238487192834829 8.922822859245432 1.0329143137205683 1.07898041091449 -0.28958360616594647 0.28848677355734187
Ni 4.893730089137377 3.2038140748329527 1.435968169672165 0.09561726968569338 1.514006437818373 0.7294921579731114
Ni 4.543029464796713 7.315574688984442 0.561045486377262 -0.796331584195164 -1.3708787812565424 -0.8609614043604076
Ni 7.341985670015585 7.399854081730964 1.4170992365714632 -2.0267545992950837 2.0593096504129695 -3.180113939341781
Ni 5.423579676162791 7.21828319156672 2.8820587069696555 2.313152608644197 0.5968157786515915 -0.2660559553576515
Ni 0.8727291352887598 4.897542552926391 2.0622813785244016 -0.41690026383744977 -0.3627124649411366 0.48050241406912736
Ni 0.8637661618446834 3.0794485592033887 8.580174453110356 1.236393630861058 -0.21776009646574107 -1.0741529076188598
Ni 5.2472670391954725 0.7726593279069176 5.184668041372809 0.9896754566000696 -0.28294321803129335 -0.44930824785451007
Ni 3.0230259368959222 -0.08001753709058909 5.534639324814705 -1.1413931688237569 2.1830511891387046 1.6413956005990245
Ni 1.5110156905624375 7.120982485299265 3.0017580984400554 1.0604687252635476 -4.0612258505081344 -4.707158955511668
Ni 0.034221927373756754 8.22788622307591 13.716105578161958 -0.37076078916690985 0.8426271248275939 -0.64719114578035
Ni 7.360716470370309 3.4807057685722875 0.758724496492578 0.7008341279167866 -0.6178774844178971 -0.6064283620406911
Ni 7.935293440543652 8.784183626531393 5.768821294382374 -0.7054515720841398 0.06660854115816915 1.4398429671310815
Ni 4.798786848401294 7.870177664089253 6.161451653322412 0.7817899389355633 -0.3363648281855433 -0.4316902776624307
Ni 1.5791427608791728 6.493095484027844 0.3715761657979516 1.876420911903117 0.2505036094453492 0.7870537584376638
Ni 2.5999253359629115 8.914028407751449 11.388534735675465 0.41931607236779395 0.24022870988190237 0.8040577491948281
Ni 9.057843014014825 5.863919243793953 4.4895361775889695 0.9568136728750425 0.24377760357542536 -0.3015160959374743
Ni 4.561898397897414 5.836900478680503 4.764987607230233 1.089619378685575 -0.7449624856945686 -0.5618132944344776
Ni -0.015632943304905406 6.900826514758282 6.6955474409592135 0.09794180405381198 1.5205203276774912 -0.2283946933614518
Ni 2.981613739651483 2.3730284874181633 9.979522710938573 0.00685738924146561 -0.23309338438870178 1.4086667986385932
P 3.089237566468418 6.721944608715759 12.096821441301351 -1.2907130702392287 -0.1585293358288818 1.3748884166365676
Ni 3.3667186265905964 4.92450606494145 10.911680237087298 -0.3291058326302848 -0.5965974919931983 -1.6180134742296586
P 8.508875854945948 7.652554127224548 2.963615042850448 1.7132016267977332 0.48347615198547067 2.647398076493892
Ni 4.987927413045175 5.089611531785023 12.298116766706391 2.382810221041335 -0.09276617339014345 1.671962417642288
P 8.768602252784987 2.7354059332189014 2.811554832537111 0.9356789477789562 0.3666272266145105 -2.3372163344616204
P -0.06074525637162937 5.203635509165642 8.766198743004956 0.4444959140675313 0.6518697822029419 0.03231953806831207
P 4.962667538230521 5.823400304973511 8.953449651683847 0.2478836553239989 -0.2863514723818939 2.132645225882327
Ni 3.811441606694153 1.4251431668122945 3.337820335246862 0.3396869505802408 -1.045953048145876 -0.9159956104174161
Ni 8.25539305722515 8.323842437282503 8.317823533097721 -0.5122624800895436 -1.0862250082920455 -0.3297691772458966
Ni 4.4940660107721 2.0589698761608037 6.896842766364253 -1.1122504858215296 1.105458916820993 -1.570495374044037
Ni 6.502156992164052 8.607567097522923 12.922960243141413 2.2103462774092324 0.3045340568281917 1.4492727450854137
Ni 8.654467769207585 1.2514182166196457 8.587829769892501 -0.5791813533992799 0.8582851430798251 0.11436421127589337
Ni 8.164934526308512 1.2099047220281556 12.519332675851517 -0.24294585170274935 0.14500121943545996 0.708463105216954
Ni 1.087436229443367 8.45762860618782 4.335966636804571 -2.170556399105804 3.050523912255069 4.766243934599282
Ni 3.391490432369458 2.0180089125532286 0.35110028841903007 -1.3339579969707929 -0.7661206078294225 1.2139561277931479
Ni 6.420667880886302 1.1713012239519518 10.61908469190012 -0.495089824964999 -0.583002526917583 0.06171984560730016
Ni 0.8851058293284588 0.5135563691947298 6.440636350644995 -0.7313477231246114 0.026854144078366657 0.44295093817791464
Ni 4.11401678233581 9.268523078181664 7.913440840129809 -0.5423539001582853 -0.8439268174756239 -0.5666464541570627
Ni 6.132716358618932 1.9258927886848445 8.336692466198421 0.13289620864180984 -0.40321762414403456 1.1124564311847485
Ni 6.233893990623525 7.984818634401911 9.60369942364426 -1.348658022185129 0.6535870220043647 -0.2616974212786396
Ni 6.73749835591297 6.788303579883966 4.997578287564226 0.8073932413259645 -0.31593509957628174 -0.668741618257616
Ni 2.297967153253293 5.789088130872381 8.903217218166176 -0.8232800877595499 -1.687987846536267 -1.7543868427867917
Ni 7.664663764622022 3.62752245984827 4.285990209309448 0.4200436945624379 1.5215852786068955 2.1800854216421612
Ni 7.630452887867943 5.55689619373178 2.5030684962525354 1.3043031502188376 -1.8831361191397633 2.212471294172035
Ni 8.333355179055575 0.6998108803326273 2.02214368608286 -0.8023330531942376 -0.33417090585801806 -1.6777371153425362
Ni 6.0549844580318055 1.3911256759025863 0.5500261767880479 0.20890316029574346 -0.12652758611130469 1.0081586030059217
Ni 1.9726645364732602 2.606334695376327 4.678848947722837 -0.4881360193549852 -0.8476634016999209 0.7366657929034152
Ni 3.991594333999681 5.829809664386926 7.189209011193105 -0.6747657129645089 0.8762694954723876 -0.4555678556109767
Ni 6.354935111499866 6.503077877137244 7.304123484342801 0.5783830258677006 0.9584771766203944 0.4466103893073728
Ni 8.853774903955504 2.655427073297186 10.61717109292583 -0.38142263975613017 -1.339566344296506 -0.06379086920371595
Ni 3.3305646825430832 7.319847595260052 9.980182985464353 2.072291664494934 0.8043174306141181 -0.9596310877191797
Ni 8.051453871062076 8.371268013401885 11.24735201866547 0.9023196555922202 -0.6546738273106403 -0.8677236627849056
P 5.940960480651187 4.6630760299020055 3.5218361750149305 -0.7900218399270523 0.5140460543525276 -1.075335100852419
Ni 2.020209827639157 7.903716294812902 7.640077977607744 0.6979015276510239 -1.0319855302221905 -1.2961776928982258
P 6.33926164925614 -0.037378721061858536 7.617448150276528 0.6164008998723707 -1.0435459813662802 -1.5659758889071287
Ni 5.866497721718891 5.359541335127028 1.149605173983551 -0.8652417769033164 -0.08569383992439435 -0.4292911813026349
P 2.2817503688753837 2.0486559644610547 6.930645691075208 0.02240947804345173 0.9711812544506241 0.29256017229576714
P 2.347750194904046 5.046007628304387 3.86319626307251 -0.880357292388516 0.4328069077653772 0.9964906797496902
P 0.6764590791824274 0.3862246830665149 10.887500560346197 -1.9682059523269138 0.5614407415864073 -0.18952347021755103
Ni 4.966480002019536 3.1676232953865116 4.727653088647087 0.6405219612902904 -1.38303907076816 -1.8392319615576453
