# total energy = -381167.46053796244 ev
CRYSTAL
PRIMVEC
9.30473338995908 0.00000000000000 0.00000000000000
0.00000000000000 9.30473338995908 0.00000000000000
0.00000000000000 0.00000000000000 13.61841785306941
PRIMCOORD
 96 1
Ni 3.740512158471182 2.836240941213356 7.875231446425717 -0.41397126311611293 0.4356803726584303 0.09877869813281054
Ni 5.323638120015068 7.206906869004271 5.7790303853574345 -0.44104677917666624 0.14649425904121866 -0.010667507016175177
Ni 2.1331752804461375 3.0072898565373865 4.189828432859591 0.5458770828201953 1.460908529552129 0.9631118471789285
Ni 7.283587177505894 3.0604664083013446 2.1534940269180454 0.08694468161235994 2.1336073326852802 0.36546405954434474
Ni 2.243473590964065 7.22389731231503 8.995781888390706 -0.032374302565647474 -0.17892178344230478 -0.9605386871351134
Ni 0.2925929267101858 6.464165824733725 13.185842939586973 0.8918953749351026 0.27045691263882454 -2.0526471507911292
Ni 4.679583078895622 1.1121017439769445 12.243434411267915 -0.28625916977840377 -1.7141634764903706 0.6946742789629777
Ni 7.833478315939207 1.171084449424316 1.1918116736954258 -0.2311519443916148 -2.3214369601401765 -0.8541196988482258
Ni 7.184147490943967 -0.13808968843719074 10.010259299305135 -1.2856785931391148 0.8125902121458715 1.3648675420654557
Ni 3.39125898778699 6.694262578639397 12.599501438269998 -2.867300673223933 0.8595879210516486 0.46600370623232007
Ni 7.150017728586977 1.131920826261674 12.314849171100558 -1.174352397358597 0.01750021366729244 0.66193539396906
Ni 5.945901475354778 4.20971264827859 7.1612317933614165 -2.77803505678788 0.3344177317615015 -0.8466609285773354
Ni 3.1793995114766562 2.11322593189287 0.04977381073507253 -0.44023816723244175 -0.3419343518535208 2.025193682565867
Ni 2.5071325184852387 9.020120279720363 12.042413088499956 0.18754294945241248 0.2805456643333943 -0.6435831167141174
Ni 7.271723642335457 3.8115444937583307 11.13504525594431 -0.3467443716476545 -1.2383204155701253 1.6587325492155756
Ni 1.525222605178688 4.697243463016006 10.140219442112201 0.6617163359797185 -1.600590907877837 -1.0054206352494683
Ni 0.1408615685370128 4.431118781126075 3.0777490202429676 -0.260796506730925 -0.86046646700186 -0.18019319395556063
Ni 2.5881302233155545 5.528351561022738 3.390604865024259 0.7506040002510622 -0.9382107130618746 0.058964394349350066
Ni 5.513473292208991 2.189124642783264 10.471201838160574 3.216153349463842 0.7615908382798691 -0.8875586952329618
Ni 6.103681840754854 4.512032743355187 9.403395277853326 0.32412406314497727 -1.2972385300625724 -0.6305070002564497
Ni 3.861482998275769 8.785371159081185 0.4856847556175615 -0.40609468858151354 0.661851318895686 -0.3648202553127588
Ni 3.5821455948626846 1.342142669481814 10.064378420569302 -1.0592243113334856 -0.8883498236756895 -0.7916357213813915
Ni 8.808856306351917 1.1298644801654651 8.760864352075776 -0.8919244284008252 0.16359492327724728 -0.31174754385749537
Ni 2.7279989767916373 7.0788644317647575 5.215431513580524 0.4122910472002125 -0.43114803200571555 1.0921778834413707
P 5.254997101228941 0.572360208809446 5.7634644967404745 0.9878170632350922 0.15855941773586887 0.31308091795693826
Ni 8.062486416029238 4.3281619053136176 6.7176658442556185 3.137854516451938 1.9955372931520148 -0.4087683787589347
P 8.28082198683261 7.6696591785190416 11.539675547857406 0.8433285217699927 1.2837302111634923 -0.9741220822465031
Ni 8.540610145231508 6.654317357865526 3.7471892352071077 -0.8373147114757452 -0.032199210440363904 -0.8580650566492191
P 6.07214809903516 9.11523326522013 0.7335656465987278 0.41053832617516395 -0.2669463283824048 -0.06840060006158542
P 1.5645630182772028 8.127489284029764 7.207111573140546 0.8572857552810332 0.08657058610239284 -1.5693442911587294
P 6.903972661518852 2.547049825058709 8.694079627616318 1.0882672355330547 0.4065505451720095 0.5840435665875876
Ni 4.993776013876123 4.2177147190602176 3.837806173495617 -0.9830144996401263 0.24821455630085634 -0.7613344992946888
Ni 0.6226913730791923 5.854259155438204 7.8346758351364105 -0.34715523393282793 -0.3898064929444513 -0.4111487060656532
Ni 8.377935490027784 5.431573028232376 1.0044673786506217 -1.4470965633697013 -2.0405416257768465 1.0756084091184637
Ni 5.018005539824215 6.6817756263266705 0.31725326181780034 2.6580157041087387 -0.4037241314668079 1.97159055252843
Ni 1.1261053678447932 3.433521087194146 6.852297893736469 2.574455622697895 1.0051982348260171 1.8000277805543583
Ni 5.746212590419293 1.6820538877651283 3.585865627302795 1.03693130426324 0.7661319206833321 0.8406964834637844
Ni 8.862488790055759 1.989491586248581 11.037999677303443 0.477590639738971 0.3485356592201223 -0.9594210285909026
Ni 8.35188223632016 1.3976454046125242 4.163518368508275 -1.3497797944943979 0.33837903040209466 -0.7023299957360227
Ni 0.9193281369541405 6.456145144485164 2.1242148221174078 -0.6279125000563961 2.1819114191073066 0.5192072868384929
Ni 8.782803052644292 8.4797478836238 7.31659013664003 1.2504133421789174 0.6326119624145944 -1.3930301205426008
Ni 4.642587458630794 9.300955745221636 2.6375746464858945 -0.18769181632545096 0.7413745112329942 -1.3461270282331592
Ni 3.9958991779401845 3.969073631354797 10.284288352275292 -2.3701243980435502 -0.7260386522068721 -1.4211862712618428
Ni 7.19897923609038 8.65914314486774 3.224378593056179 -0.6412161591438377 0.2590615263176893 -0.243255155413052
Ni 5.7874883880789465 8.187867699497188 12.099977752566954 0.842766992839568 -0.5652706568554587 1.1033734950468739
Ni 0.3549067267387467 2.0951096158326026 2.074398209608387 1.43810438717342 0.4957909647970817 0.9173917194339942
Ni 1.2403581900862 0.8657003056170327 4.332263431825875 1.9783687517925281 1.4356770086788502 -0.23197341185164566
Ni 4.203310991653288 4.2985914623554615 1.287610418051713 0.34435555970050374 0.7464758370153015 -0.022638563335122302
Ni 5.589362698365918 1.9672253590620277 1.004189167119958 -0.8368336580742685 -0.3897892665532706 -0.2838978686350788
Ni 8.55905212696312 5.460203693110363 10.163520355660285 0.6210206580325691 -0.016560475461842448 0.33145633514033235
Ni 7.293301319245453 9.063080234137544 5.731978209161462 -0.9047735164493514 0.7051150146803276 -0.9686826563984867
Ni 7.21621160247128 2.3666217383999326 6.4785397769935615 -1.3296683684565034 -2.643890834671582 -0.8354277788656773
Ni 1.6394009895523582 4.714382782062238 1.0002839704838544 -0.318936862517083 -2.805465899305323 -1.0399461798301637
Ni 7.374336243009636 6.036045733183164 12.453103553320114 -0.6590573010903166 -0.9220790976073345 0.23314583489319202
Ni 5.140614012718996 5.202127605669395 11.638232215213314 1.7497642564131157 2.24549325762401 1.215069672572301
Ni 8.702847477962282 7.578575142610489 9.256411194695023 -0.6280816786444087 -1.8617018605253874 0.5877102168058975
P 1.2763582038700585 2.476715344781586 9.641867222352651 0.47670078093484997 -1.0848093588914414 0.4663400065258162
Ni -0.07852078478139758 4.029963807162906 12.317354935823225 1.5746068251092495 0.3145775571071227 0.9532943468678744
P 7.404074171170197 5.9043930593584495 8.130876207011756 -0.03417921698487016 0.8558006860950745 0.3245909754790668
Ni 4.675572738771342 2.6523328842379184 5.563301070398172 -0.3333432677504001 0.015094175328961101 0.4340073558313816
P 6.355598194640662 5.733288315633617 4.517474151486694 0.018187469542304158 1.1204255654331543 -0.2179452158933537
P 2.7285479560661905 4.779301907461561 8.181604683400543 0.33424392518779855 0.7697273513440743 -0.06380243916794173
P 9.484500917591859 3.1042823981974905 5.1209745117901795 -1.7472808278696292 0.03416121926274116 -2.5236408540388733
Ni -0.009822076647774956 1.3989294578309714 6.482571518004817 0.9722636888815257 -1.2141021664527092 -0.41238926334097364
Ni 2.254583442723674 2.3878458354381804 11.611308038453174 -1.5339561414674228 -0.35051463732336413 -0.42865817570432624
Ni 5.5910561598569135 1.1490508405744382 7.8425476396495 -0.7303524490908777 -0.7146280963770855 0.3426907704035711
Ni 0.12482486040662237 0.49137273918594426 12.67622733996561 0.5714518459655061 -0.46727588807652426 0.7569631096998706
Ni 4.194629675328567 8.54166158011328 8.271976907198871 -0.6712263323526827 0.15962591132717024 0.37803649689271673
Ni 2.713027660643219 1.168888532326102 6.3433773577050925 -0.013124967417732235 0.3472819893186793 -0.1651589253302575
Ni 1.5149780936315105 8.06898111998921 0.4278521152267123 1.019661975659831 1.2246951114772069 0.8084247679142723
Ni 4.461275422292651 7.242543998182916 3.391068240750916 0.40618750540563586 -2.1145819406227133 0.07475636707628416
Ni 8.98291995531926 3.511187697443272 8.75596168801201 -0.957266701252061 0.6212181187553559 0.47585385955352244
Ni 1.488059499711453 6.667818526126157 11.076309125933811 -0.9007947343072614 1.3828765770483669 1.4132161085721724
Ni 0.8551840958526189 8.114378914574749 4.715186711033787 -1.5607786609769057 -1.7177820470795642 1.6674043659579607
Ni 4.664258182875458 6.0309095203093745 8.489489939563759 -0.7735071301014808 0.25020561858895624 -1.8216705556351143
Ni 3.6837532843224254 -0.21505006941617089 4.7191635541175865 -0.9278967327303762 0.11548726913674304 -0.5232490610080343
Ni 3.287855484768116 4.96715517142701 5.977913480374677 0.1498030116994775 -1.00738701494722 0.398529731750062
Ni 6.463226046653558 6.551239520517998 10.23989267748415 -0.17893309629621443 2.3272841629495726 -0.364754692182146
Ni 7.845192975374172 6.648204147977702 5.955729134842633 -0.1996415324881594 -0.06692041597163313 0.7567293964225096
Ni 2.8535756596623942 4.408498974067776 12.426670666487034 -0.9824177465963919 1.1211112786462691 0.27207927873359594
Ni 6.544884387560031 6.092302151724701 2.3487008217424723 -0.3265046475620119 -0.09539512637255829 0.05017842062660391
Ni 6.512010764221087 8.126968218955612 7.878063807293074 -0.00027253693509630484 -1.5009966558222665 0.12097760282735295
Ni 7.2873648992935 3.778019539076696 4.416766229753213 0.6768501062973633 -0.20203831485511012 0.4268553181676326
Ni 3.853685631630415 6.687237504871805 10.479999463653632 0.5592684165254368 1.3016927091791841 -0.41429882165886067
Ni 2.003904618388978 0.7202775567344919 8.558250058938263 -0.027184016613959635 0.26080422004040893 -1.794113729062768
Ni 0.7901393565514906 8.98509726295054 10.060251771276684 0.6016743922954735 0.3347092948599913 3.0440714717615056
Ni 8.319687858524308 7.948996581932127 1.114255789774557 -1.4946478307861033 -0.7441258487258863 -1.0205533771258488
Ni 0.29356899325087504 8.91282739811228 2.6096297404644258 0.42617269027831123 0.4739653842815579 -0.2508126560453358
P 3.0042006850263396 6.3350347336785715 1.1960388141094882 0.47452871298419563 0.636254187152872 0.7445256552674662
Ni 0.7205018008110469 5.358000500708734 5.188535251020787 0.6314706497212995 0.3800244738570229 0.45621834471078204
P 4.758664008631734 8.872817044204139 10.447301699777213 -0.26619710892120607 -0.06393947896643827 -1.2739165675071802
Ni 3.4754109972626215 2.3706972116584826 2.4563817107361308 0.23864773854802773 -0.9479040290902385 0.20978607712132905
P 1.0567571893151735 2.469001720737435 13.734718931599035 -0.8364058265082305 0.47044271584028013 -1.7653765090290756
P 2.2991996396979832 0.4204771834807608 2.2553873716952237 0.8492104344720666 0.36376558879599935 -0.09645364954405969
P 6.238535342892218 4.815004169774475 0.23500220938947877 -0.05610301364115499 -0.7360744391763194 0.9809409049405492
Ni 4.868264464139636 3.381005171506346 12.703995456051207 1.5809057707440837 -1.397705157420767 0.6772175169391111
