# total energy = -381171.701284108 ev
CRYSTAL
PRIMVEC
9.20254419908263 0.00000000000000 0.00000000000000

0.00000000000000 9.20254419908263 0.00000000000000

0.00000000000000 0.00000000000000 13.46885364277900

PRIMCOORD
 96 1
Ni 3.4905617707323664 8.232411861888513 10.993964657059772 -0.3630665058464457 0.7717857765349998 0.5490667934020868
Ni 9.151405518983207 2.772754131796591 4.567220774634909 -1.071260159452097 0.2671257913830625 0.2836993794710275
Ni 3.197939274830009 8.705882753585358 5.937151053795778 0.698815554824861 -0.6917802452446344 -0.2515536479764184
Ni 0.32196664813469433 4.877504793090124 2.814047787486039 -0.7293193798406731 0.13226885947045608 0.4017654650785404
Ni 4.097966488624661 0.9651076053608351 2.175421598373921 0.20283458550416036 -0.985667106771625 0.3394871758646089
Ni 0.54006510176029 2.1883833816772253 11.9904851465568 0.4505881430081982 0.5290445846438889 -0.2914697674450658
Ni 5.8264711361762025 0.5377442201492901 6.605542871658011 -0.716520685414108 -0.802539769888405 -0.70409608649751
Ni 6.858343198665524 6.733934005568349 8.411460240065587 -0.5098358729259219 0.3216822864727041 -2.525842232565566
Ni 1.4757107623248675 9.087843547186315 12.018338486652015 0.8309067510668723 -0.5881020529276775 2.361387275280869
Ni 1.6933233216242904 6.5139932026226814 12.3541310369769 0.8300927398060091 0.41158682204433633 0.4238193595547862
Ni 6.024307428298628 8.338103080375165 12.15603063184006 -1.3894421460810265 0.8818395333609973 0.6743353102953096
Ni 1.553260601087342 3.0303517450206554 6.737821160177732 0.23258404885245104 0.7624210474906482 -0.07086243133851666
Ni 6.429145746423558 9.241746893983946 8.746485298216177 -0.6149531116822506 -1.920425599618841 0.019875141657372225
Ni 7.979075026562517 8.397422679362101 4.693019551884586 -3.197048253203275 0.4621298250992105 0.27100481472249455
Ni 1.992636067055581 5.164513737118137 8.074901117820811 0.16165194061826355 -1.4493809885285038 1.5567623407286608
Ni 4.195890759927793 6.1134432700279895 11.886047314570616 0.23034770332276455 0.03567765590726759 0.3407619288119744
Ni 7.517631859947262 4.083187202870237 5.413010954524922 -0.5297619224258876 -0.2736605071777868 -1.5066985913030502
Ni 5.943914003422756 7.753511469198448 3.081579547018883 -1.0905909985702251 -0.004328966392657061 0.28663840749469344
Ni 4.9326004243552175 7.214794540142407 0.7143668077131232 -1.7411490039402788 -0.5565011381929448 -0.8986167528193363
Ni 3.8861239244485413 6.170894752571496 2.685783648683678 1.4292006569258868 -0.037552247222161134 -1.0164334414202043
Ni 3.834902564231153 0.4334094566565368 12.956431103681163 -0.4119894567993937 0.16217875965601103 -0.20676400246555357
Ni 8.660256540154203 6.918619862234316 12.559220774324505 -0.6107706981697869 0.8940867261594666 1.1912052072498773
Ni 6.4514159030398135 2.8665648659065552 7.077276323037027 -0.21916906099812578 -0.19591086180113357 -0.6059727625605112
Ni 2.3940510387915657 6.2775430356400035 10.185793557017524 2.3580677239893326 1.456905836150639 -2.310828845607027
P 2.2564177898854814 7.7994965818478 8.279331032759579 -0.0075991525034965896 0.2127276762481562 0.5045481421644213
Ni 3.4803469468298687 2.687602991643609 0.7244049427697397 -1.4798917555228512 -1.1388056106022386 -1.9880371281202276
P 2.891365722138295 2.904479347418528 4.66263459191948 2.1950333012012457 0.1982253688669231 1.2477730763425932
Ni 0.43481928640596257 7.540803865881035 10.532400937117377 1.7633437948697632 1.1317708152426444 1.3645245569037403
P 8.63571335515604 3.14343260638452 7.332187713651056 -0.10508278597396742 -1.41155131927524 0.2606008457803512
P 3.995266096956308 8.11521746333148 3.9586574564459247 -1.143095239116528 0.5350277988105173 -0.3589828226953753
P 8.464536833164727 5.665721096600683 10.695508668480121 -1.416190617819464 -1.4062700162716426 0.9131272877306854
Ni 0.888961154566947 8.275884680010494 4.750275940494098 1.932310009761253 0.21393352363079932 1.259910225925759
Ni 8.670627807305657 9.41346636607458 0.33421523427363503 1.2087843537842213 -0.660151819706076 0.3496998547315526
Ni -0.1740099853062484 6.3991638578881185 8.786783238638733 1.2416736483130744 -1.9347726123691324 -0.15489431017945582
Ni 1.590991031718189 1.2547852871651752 5.068423532845426 0.7219536835042211 -0.3014960413328162 0.02007234526984285
Ni 7.874929835477324 5.22670452985064 1.063392616390974 -3.2381403952578944 2.320574355029565 3.0154522653629163
Ni 7.5537978580885365 4.466132668685219 8.853130820521468 0.9693123195626855 -0.5486045090536874 -1.6720398078474432
Ni 4.303275246520806 1.0789890880575983 4.640990208299053 0.6799696257629515 0.4357243385224883 -1.3736969674316277
Ni 7.660869458183635 3.309639754585428 10.941651875117303 0.8112900052772091 -0.297672553821668 2.143437945622457
Ni 7.5229877405880305 1.912380680340553 9.077913081895158 2.0356071645897074 0.8208599083538316 -0.6581589576457633
Ni 9.098463283027291 8.11310087819853 2.4100763490112134 -0.3451366608409024 -0.25020587569927233 -0.5600284346199129
Ni 3.908292853080178 4.613897918597295 6.644737427048216 -2.3451132207111933 -1.687625835211158 1.7021248001582816
Ni 5.719454751345442 2.4381864400855995 1.327506551061307 2.1486079198591708 -0.06751048414714825 -0.9992903539820145
Ni 4.2398605154288145 3.5945137083923777 2.5628128132225036 -0.1313700018052705 0.03994877247879571 4.378883846312793
Ni 6.003758147420902 5.3704298629219975 6.558253758515881 1.6554322811977489 0.7008580391761865 -0.11860576016106669
Ni 8.72699338965052 8.993848762195226 9.010016711847745 -0.11757937577908137 0.46590549009155885 -0.9614403730137765
Ni 2.948016583348903 2.083492784523471 8.8791399707878 0.3163729584446487 0.8770922484839991 -0.9876977640484085
Ni 4.962490287450093 2.9966152185102444 12.314585864658152 0.8337809872908737 0.27425828866278573 0.10439810120211698
Ni 9.07383727513262 5.125080835836873 6.636036421642981 0.9686579738081383 0.7058804320914425 1.9117555826486687
Ni 0.7588601879709478 2.5133804275696607 9.330090396670059 -1.0888627030252087 0.5780793785843529 -0.5435911149994961
Ni 2.6279613036147027 4.38251835338964 12.519420691535396 0.263199716855779 -1.1349417567714584 0.39833947011612686
Ni 4.950950297203487 7.38414895841057 9.438190841190652 -0.13469160997933577 -1.867330005345442 2.0733144493324938
Ni 7.0684556845590585 7.723051048372081 0.9604722839196748 1.8879751923996193 -0.01515845290799325 0.17513763380952416
Ni 0.11053267691467406 4.60925063384886 13.20964554517121 2.881645114871063 -1.758068662513753 -3.2169984710729564
Ni 5.519087759607533 3.0434469652127762 9.171777190760649 -0.8218572392700942 0.4959390603391717 -0.703410373284395
Ni 8.508718247179043 0.30039680512112316 11.422032036891624 -0.9337107683089919 -0.25759933994986606 -0.8597807537887452
P 1.2318249397446965 2.856129180946706 0.41831452364098126 1.112349473293239 0.21495450869614594 0.1417027511898463
Ni 5.159590376048014 3.6335877104554446 5.050550351779272 0.1648236534780258 -0.7759779602394765 -1.393909952044393
P 7.164806320828563 3.7278585717682238 13.199665386142149 -1.1965980961306748 -1.2023637949698582 -0.6443457059117548
Ni 1.9622124564054395 4.858851236287996 4.61360803845952 0.25503723564964464 -0.8428754933929742 0.5656581221018645
P 4.411349923918041 5.0510279638157956 8.877362039276123 -0.2537658251363888 0.29996649206216724 -0.0598748219787614
P 6.502434807287963 0.8857641907617868 10.74457571313393 0.60627435296133 -0.06861528717555279 0.919420834048881
P 9.276256434195087 0.9535768176582862 3.277012134633802 -1.0249389077880542 0.07152423329223166 0.06529187922927465
Ni 1.1470050911777419 4.611081940116065 10.656650926202378 -1.6460886351993198 -2.013005110919475 0.17738400664153964
Ni 1.7342746426748437 0.8089892062088531 0.8900111648437712 0.025708717620013786 0.3866273238855212 -0.6474809091066268
Ni 4.34952723294779 6.790695297307632 7.278972162136665 -0.2857881436792562 1.550953961577 0.20470814837778936
Ni 7.26082566551204 3.750064310576086 2.8692832974207874 -2.1606622799205435 0.8646329396747238 2.0735036825251645
Ni 9.407668763319107 7.709081586494612 7.1313136617356445 -1.1972802097993638 1.823726923943511 -1.593255036338056
Ni 6.947101736088577 1.6215250728970059 4.874270098854334 -0.1834296986149873 0.6740584024848391 -1.1136576505817015
Ni 6.534975003071054 5.943039761737407 12.410389869810711 -0.11270507840591558 -0.38846411998394387 1.4200876388810253
Ni 4.162006992712482 -0.09582701151270012 8.298255144356963 -2.033224009069511 1.2973591148008365 -0.44408479467204165
Ni 8.237151172077509 0.81408649536164 6.701427859198266 0.8004096109192795 0.5188409046380097 0.6222306191802703
Ni 4.009842926741494 2.1767697710781695 6.669251163905399 -0.7719948072220124 -0.31128448817814774 0.633629090825199
Ni 3.6644806508524574 3.686106629384772 10.504588088216009 -0.9462580088463833 1.2044229914917322 -0.4404952775485705
Ni 3.994990020634619 6.125332956948735 4.956915386260784 0.6859127307202638 0.8972219293543386 0.17053921580556436
Ni 8.601986031189686 2.5786724776491377 1.6588101003955273 1.0865551379379546 -1.397167539749742 -1.2280637708391238
Ni 2.085821028169716 0.041267888566090066 3.0180065321691236 1.1173181301524242 -0.5525622081498548 0.05111918727331842
Ni 2.0357867961355907 6.644273618827778 6.419268655887927 0.9503908000678343 -0.4171679156765396 -1.6618237865463894
Ni 4.667843231855349 4.801832273315136 0.7635212765354659 1.155089435363927 0.5727471677381619 -2.1965073146436107
Ni 6.0638323550204545 4.907035756966804 10.49140176283773 -1.8355349723220322 1.3757481935337017 -0.21174140107548695
Ni 1.8336529159388713 6.768572381396278 3.148560263932693 -1.021293597725983 0.31370209648070485 0.010841056479561973
Ni 4.525562698200831 1.3958694900923734 10.355541844171297 -0.8729247473698709 -1.3245816979622156 1.2899268268925075
Ni 2.3685507892115467 4.603968373560542 1.4454905278983705 -1.06540370067132 1.020527666094236 0.3682485642680174
Ni 6.994494837978543 1.374795664203437 12.957602587539531 -1.1128919760602705 1.2560916235106174 -0.5009395988775566
Ni 7.477932084888366 6.213254062862663 3.844643457114751 1.3127469101108167 -1.0831918778926763 0.5384818187973888
Ni 2.5035613130615837 7.614194154730061 0.8320047688936697 0.0966955903515367 0.7163983009036308 0.31731629619452445
Ni 1.5921781599014522 2.746996210982996 3.015716939207915 0.9923203504220844 -0.4364049095292807 -2.198557255194104
Ni 6.938368521779144 0.5626923170859305 2.6032064601032445 0.9449624299634112 0.9976345635461463 -0.4721756393709868
P 6.429431025289303 7.644341689058512 6.259070768955785 0.42184578076818313 -0.40565965792662395 0.6908880724476681
Ni 1.6968386934537985 0.6342844288263537 7.252371288287513 -0.9336434054061661 -0.19592680264073353 2.066206377532803
P 0.3121548956618629 6.284178069904599 4.980337701392889 -0.7559529232678014 -0.04168143889918628 -1.6908178597858943
Ni 7.242457387575657 7.528260798332292 10.492680916461557 0.31662441233382244 -0.20539617558374948 -0.08467234063841546
P 0.870963739156033 6.21552709124457 1.0794206873738388 -0.5755640683616667 0.9553178050558063 0.20773305124704222
P 5.508753302632305 0.11602843622509885 0.7318930528683543 1.3133547188981447 0.6511953818437366 0.5036318009977391
P 5.951506102269206 5.5639961746022975 2.443452135794617 0.11905467477302721 -0.4550418079041776 -0.546118252296724
Ni 1.5916076021699612 0.4117926806682785 9.870164700974405 1.0716285985351095 -0.3982088580755336 -0.8871447476239946
