# total energy = -340857.72510428634 ev
CRYSTAL
PRIMVEC
9.37706766754040 0.00000000000000 0.00000000000000
0.00000000000000 9.37706766754040 0.00000000000000
0.00000000000000 0.00000000000000 13.72428637996627
PRIMCOORD
 96 1
Ni 1.404234650892048 4.6003331796552525 10.101939476041027 -0.23645253066892177 0.8251572501776047 1.3243397571547384
Ni 6.276474664325258 8.356561473873247 13.083870465745996 1.7716980803717297 0.9931194492846123 0.1457874627821812
Ni 5.994421843233174 5.490845173426722 9.97102341995163 2.149108770754989 0.09731496910309047 -0.15146034479724238
Ni 0.3229143315542303 7.514031935819328 4.035461431035256 -0.03821996271314708 0.23703899930001113 2.197446281518112
Ni 5.674485668398876 4.6303773047518 12.038299279528674 0.8206526774390318 -0.7781757392217437 1.1154121713789629
Ni 1.472143375595292 5.335720341506567 3.2451490324983885 0.015018584896019297 0.5317198174832068 1.118923526966331
Ni 0.56962123343941 2.387392074112296 11.51147873416376 -0.03792377162896694 -0.010392656088233714 -1.378312354716452
Ni 4.221724691859315 2.4864326637720118 13.450020581318688 -0.30251882617037573 1.9703736494021935 -0.010126289800724496
Ni 7.859614390971682 9.318901806670794 3.644072937591976 0.06173450089531948 0.2946638489023312 -1.071667936413477
Ni 3.0499850589584616 3.979402506857763 4.006750724973893 0.5412133587959388 -1.0559194153299687 0.10578726824015976
Ni 2.989671759139176 4.825214018626974 8.061989329617491 -0.7583633324815068 0.3509825780987181 -0.29882440803792404
Ni 2.1801401225255654 3.7049638647851526 0.5376173011814465 0.4960614448496489 -2.0328864232244346 -0.8831682794747501
Ni 3.5339073947442 4.845899830101063 12.752483953472435 -0.8085615506024525 -2.908438066694191 -0.07149055184081882
Ni 0.4763709831202425 6.6648353025894895 11.843194381515623 -1.8951295440562137 -0.3439596098136657 0.2514166081779219
Ni 7.851362571344666 6.517943536160834 13.77204690455624 -0.048551940766774444 0.49517981357564406 0.5919617929933999
Ni 8.470295928709707 4.086338587569693 3.8899705985296427 -0.8560927634141966 -0.8058176693087283 0.944041975031671
Ni 7.761089540038656 3.83912157319848 10.759223165122627 0.9367683241883932 0.06912385138085515 -1.9255194692019806
Ni 3.3540646122140263 7.666296762073301 7.572347920206164 -0.7896348889012788 -1.9710449644376054 1.4747114968734925
Ni 5.73919681299665 2.6738239858473545 4.537290215411621 -2.2798462811825835 -0.21920659910428053 -1.0716306554176382
Ni 4.796520191287574 4.463512383998661 6.497982572024436 -0.4849031142399843 1.2328578497936575 0.2298843905331009
Ni 1.7017783879203052 0.8380182307555581 6.781128759217101 -0.549881061773266 0.16993680633487507 -2.5605901775697126
Ni 8.19431007045703 0.6879860843347579 6.777958372608129 -0.2556625279384694 -0.665492515192699 0.683639618415371
Ni 0.7461951701491543 2.7371660785524656 5.179765639089831 0.8598100643647837 -0.813949040166611 -0.39459362992044944
Ni 7.33476115442239 7.266111641366266 4.489090211722086 -0.4437986308901905 -0.9004543202487073 -0.0539725975617135
P 3.629919191518091 6.671464889494376 2.660041571656685 -0.6140162016902779 -1.5958217686239677 -1.7097944008883974
P 1.6226453131107668 3.1184751618627002 7.449967808896852 -0.9158855672021129 -0.2798218987934923 0.1585974700626559
P 7.716510959917249 7.6990414826841445 9.158793063237274 -0.8457358456599048 0.4889016938764161 -0.35943045175575516
P 6.73160002502626 4.29744451400495 5.565911413949627 2.150969735223128 -0.2872017361973312 -0.429871222175821
P 4.1264255522350295 6.721444660644375 5.696580853156989 0.21665966431271075 -0.2766650983320655 0.23384594628401015
P 8.706710561023735 5.915363784965699 2.8941635109038883 -0.4873780581430381 0.8906651020724274 -0.7632193750222276
P 1.256686489720335 8.050531490524024 13.370748725906333 0.3094250663719058 1.6701844998062592 0.2817949633594631
P 2.5386160458451346 1.3700739930497505 11.229376214612556 0.5098908945335735 -0.057396535641597926 -0.2807392684014391
Ni 7.817877062380942 4.205568004112326 12.983463637313942 -0.6207067263365762 -0.6211250448209173 0.46521900554749557
Ni 3.2107361315334013 2.7377662108889758 6.019829008323402 -0.7434861582593583 0.7032267965186791 -0.8872398784409623
Ni 0.9659036185455766 6.257476725047605 7.612354242088783 0.7725409095334695 -2.268259347675932 0.23465790066234424
Ni 5.759545050031453 2.2064334205189233 9.344536834507542 0.6433344910384211 1.6555011867624714 0.4149235997270531
Ni 5.120197816157304 7.52928842506155 3.7857895003250053 -0.45635358473706567 1.7824596897636078 1.44592182633531
Ni 8.970562493597594 1.9889042026694541 13.713938153366852 0.011108965428967964 -0.33011576195203796 0.20218666750751632
Ni 4.82069427196763 6.477284570362261 13.492167687770454 1.4144767204521513 -0.3753108704314375 -0.06834172179919197
Ni 6.091183805427702 1.4577589536545605 0.26433954009727306 2.278714481570985 -1.0470275121569774 1.1414399629012923
Ni 2.671986080566792 6.555508069599276 11.79295017705485 1.2827169394076297 1.6629129058455103 -1.2976843593507392
Ni 4.2589235196551956 2.9098166501122735 10.989722743094926 0.574608646426933 -0.7479855887916087 1.98058812804135
Ni 3.80932125186364 4.995248388282307 10.425613350083651 -0.6248022365621885 1.277053313363949 -1.416979689379663
Ni 6.219152649120766 2.6061590649058175 6.898347732432423 0.39272186681903337 -1.737306490265737 0.8620394679159348
Ni 9.129044315775104 4.462255856919093 6.356431045683946 -1.2848537832449742 1.1496860049601683 -0.8322568373368634
Ni 6.819238100292281 9.194777560758498 10.810016865754017 -0.5336499446263842 -1.2766162258265303 -2.464300050186711
Ni 3.0958858056337415 0.4629955336702691 8.659572041404402 0.33660548344143965 0.06174504241828076 0.4142949650041188
Ni 0.964703353872556 7.068996300025905 2.000863714887973 -1.905933576650253 1.6740673798004333 -2.2238443118956672
Ni 0.5089159721878411 8.04393003482241 9.042163907583928 0.07516105871387056 0.6680443350802752 1.2119074727942354
Ni 4.355338530342679 0.3081567023167316 1.99914864919504 -0.6832773499799458 0.6905517721541721 -0.10233067715012699
Ni 4.828786681442761 3.058715109041135 2.263752622603088 0.05197485040539435 -1.3460290692027141 0.3663829718141884
Ni 7.663671183101068 3.3054820241599656 1.6103116558887045 0.02598768231301331 -0.012198856059037056 0.6702210310166199
Ni 7.743526292127971 1.8985936630924112 4.998604440832885 1.2737733570610967 0.43719295264821484 -0.9691089453026278
Ni 2.709953827918826 2.8218034921359347 9.458613552317168 -1.004860134760308 -1.334290440609547 -1.0590330212582857
Ni 2.16998475814368 6.344617815722453 0.3979111817757266 1.88400103824322 -1.1433744609198437 -0.8961145552227727
Ni 6.557580401573787 1.9967434313151196 11.631744316693648 0.032153959024725266 2.4051795898754706 0.10485215802040009
P 7.5470579684629095 9.133170225588612 1.3494678866516037 0.02612215100834856 0.13318160109271257 -0.35212826166738714
P 7.498128428901804 6.385183010843445 11.64498848719501 0.16660362819658403 -0.9351724404561831 -0.04583634160782429
P 1.5572496425666595 5.426049635219126 5.562713833844159 0.45201870480713763 0.028674228006240938 -0.8298862802221578
P 8.212520336043015 1.760263159526786 9.967743321649891 -0.26925003681491694 0.5214274344182632 -0.43864588304465746
P 5.632120076268351 0.4297416382801677 3.7210380343358707 0.46827707564752896 0.5461084821047112 0.14800838169289993
P 4.324806797722717 1.4636196210032941 7.130412343013528 2.037886447542187 -0.7593413801240599 1.8005831388371958
P 7.788770644060193 6.624007549571272 6.429499033067628 0.8334984230534483 -0.2609967956671892 1.2748352226667077
P 0.7123280145276814 4.2486837616634885 12.369919280789407 0.6667608403821614 0.9877335023823506 -1.7539122171432182
Ni 7.17039991076063 4.5654129793245595 7.960566964747249 -0.9611920044483964 1.605537710360151 -0.928406068266627
Ni 5.910703382289986 7.716576599391555 1.5510363974702264 0.09996886178616977 -0.1618324320601858 0.6948221173947519
Ni 3.818885860976773 4.920531912386774 1.3872649713704432 1.3517425746477236 0.9210604265348332 1.3812686091312987
Ni 3.5858844813266475 9.241203423228225 6.1070882500520005 0.2889932808801152 -0.9470208551543368 -2.593421622277437
Ni 0.4732231014738908 0.19235835486674105 1.8363777562250325 0.013898098138330903 -0.23220661090837427 -0.4645209510392065
Ni 5.859551477670241 0.30065035957647385 8.361603523206709 0.324391457873751 -1.675319249929663 -1.4385381322767288
Ni 0.1353635993270023 8.074077307664295 6.765716610650095 -0.7449977098078783 1.338638690275914 -1.4124038970835224
Ni 6.576625226190232 5.531729188851487 2.8805489462260865 1.6868928136998753 -0.013748974154976319 -2.7120754620676197
Ni 0.774751154592511 3.371937303360724 2.280427862197092 0.1346936668618648 -1.1924663333504884 1.002750287506157
Ni 8.855252691377792 5.797025189860073 9.716204416749028 -1.7996907089299135 0.744667323051653 -0.3795331360429012
Ni 2.3498181636060957 1.1336312295324487 13.668758503202161 -1.0805102172954553 -0.9248414908438201 -0.2354783396811106
Ni 5.902395300256421 9.439331487886447 5.869767792992552 1.0050532246077208 0.8398063675493472 -0.6712574427009343
Ni 5.69389619865788 7.356028344097473 7.109029815405021 1.0991170337633651 -0.2643304880261125 -0.34988188883537163
Ni 4.733065573769368 0.7232551115860478 11.890406042263468 -1.8352431521132264 -0.1286693150446558 0.31671722915794487
Ni 0.3527896694311339 1.2902001298873322 8.339165137768655 -0.8377137466863765 0.15180332995895793 3.077907189364028
Ni 2.4024141366605694 1.1064939954408732 4.1283750446219125 -0.261056445260531 0.33309078541996184 -0.06226389103622825
Ni 2.2851632814148686 8.62118232600326 10.653985271381666 1.6087379624650038 -0.4306443528964196 -0.6134549298701694
Ni 2.4792310757338885 8.266982345581326 3.280557778059272 0.2067686304512439 0.7697602614645388 0.4569670499513485
Ni 9.118832688986672 3.611361974425061 8.461914705547631 0.9544528859523498 -0.8089333321195745 1.9662832813829039
Ni 0.5163576131605688 0.06931903569404332 11.709314234307932 -0.9556070541614509 -0.33228988678522126 1.1372549782856671
Ni 3.692070396617939 8.37913207596669 13.569957028770274 -1.3672987772147678 0.8738644855753208 0.17454010943484136
Ni 0.26203465684236316 4.781976359194958 0.49612752717951686 -1.1435690934291531 2.561342739465021 2.505699953289736
Ni 5.10345975020932 5.179517146794244 4.336408105952882 -2.0283515114685584 -0.2431569392722909 0.2839076388270917
Ni 5.338364674614316 7.607521301366322 9.473504335916829 -0.5058807449329158 0.9918716929204402 0.6844186626732407
P 5.045865800039848 4.168734881959006 8.583827838882595 -0.06292646432089162 -0.5452551329654803 1.1465225196305222
P 5.8923712148231475 4.016995171499479 0.5972160684375744 -0.48358336698729615 -0.012403001650043157 -0.7565882428589551
P 8.950692487018447 1.8171819608176851 2.980242179801758 -1.7139791283937063 0.811221871043435 0.8131234589415223
P 2.4561916202525476 6.69148492915765 9.32036838006814 -0.4619922710800818 -0.23207651308841323 0.9944674786720743
P 7.854175691672058 0.5826853642398186 12.412916887286821 1.2515364000397673 -0.3351733789806034 2.219703550254416
P 2.4503497070393303 1.8905950242948597 2.030659347688934 0.8973142319578289 -0.15013982621360594 -0.25622739930300387
P 0.36585661335187 0.0698235219394223 4.991042773392856 0.7356471218309137 0.8730566449620448 0.9260594224113211
P 4.7947948108201075 8.029742531304596 11.651850625380296 -1.1799455751756582 -1.689385498214742 -1.4519598049992737
