# total energy = -340862.1422513571 ev
CRYSTAL
PRIMVEC
9.35394654480848 0.00000000000000 0.00000000000000
0.00000000000000 9.35394654480848 0.00000000000000
0.00000000000000 0.00000000000000 13.69044627973599
PRIMCOORD
 96 1
Ni 4.2908329470143745 7.0121672245174755 0.675634614392588 1.1137797779818623 1.5720840586873956 -1.759814698670582
Ni 8.905256316420267 8.262948877721117 6.825385751649396 -1.742579308628902 -0.029164537379098163 -0.09688070977914928
Ni 8.776358934777349 8.392379434309873 9.122833787081017 0.19279905564502922 0.3072074898952967 1.1476221804526043
Ni 0.5219586286878337 4.4159139185186636 10.492549933597543 -1.4183989383246927 0.9178902563369676 -3.0959828159188163
Ni 1.7380380760745617 6.816108507591816 9.68292377834268 -0.008168651853721415 -0.18088507781626267 -0.6882377793090148
Ni 7.213819601401223 6.943013498647657 4.047991402472686 0.39258456991022067 1.076952581851184 0.6213086215866331
Ni 4.1153716201016115 3.4094479918122214 2.5876860264743735 -0.06205974544522215 -0.3170671562981958 -0.36212882452352474
Ni 2.2532815066287633 2.365959145182508 7.534496269483471 -1.7933205437375115 1.8582966914985803 1.0975067518534516
Ni 8.512830202337149 3.8246790272629334 2.6459657896330246 0.7016854201734883 0.08599543032521319 -1.1006049311628012
Ni 8.029764347461587 4.310775560777996 4.872840170128542 0.34019628611649155 -0.20963181093165187 0.9393255433926081
Ni 0.29286270840770284 1.8997584556989757 0.4508480572273259 -2.4664849736531713 0.9498076738708545 0.4034281974929439
Ni 8.09153780960744 6.944070494592915 0.6238268467606961 0.5956505546988967 1.273330355986407 -1.4666006948409
Ni 5.727037880066171 8.900598051104 2.1415963217899905 2.2107465981714443 0.40858531621385114 -0.7114538124141618
Ni 5.112689387211046 0.2699848262580475 13.299214651906112 -0.22192168404259843 -1.4732199999296305 2.4833447255229877
Ni 1.178316630301777 4.895911678969055 5.822601538253161 0.2287363929715867 0.8497737631747043 -0.3069174694587037
Ni 6.449807965854756 8.553575992934867 6.991971118805921 0.3171232063471119 1.5782361943317207 -0.6818884400522193
Ni 2.853374585142538 9.202393778341092 11.781641609751599 0.20102581443019574 -1.140923942496822 1.5348076908344406
Ni 2.1576561123954137 0.6992898094895965 0.8526356008857879 1.4882421843700757 -0.7120024858287802 -0.735495683854714
Ni 7.955456597115336 4.451645993836222 9.016965821519728 -0.7900303245674846 -1.9546827210294984 -0.19173513315688914
Ni 5.593080013411001 2.355361123890677 4.6837202106559115 -0.2645346336171186 -0.01989031116602381 0.6662653888029816
Ni 8.302908936819705 2.2626073912077174 10.906781032176148 -1.0782615304705945 1.668469316887365 0.4552672936514224
Ni 3.6918062183922755 1.4962759769495342 10.313464887842365 -0.11009797980037168 1.0286050437857317 -0.39746169549686383
Ni 1.4128107130598562 0.44442750840586737 6.64940902228899 0.2074270899708492 -0.7093763610598428 -0.5054403149613875
Ni 3.4638131283948517 5.303855990159982 10.635559614201615 0.13219609725099166 -1.771809409138613 -0.9105772676153221
P 2.5816892114256604 8.306725346958334 7.961103574568008 0.03768440192465123 -1.521290630184612 -0.29952117699463254
P 1.2643822912957172 4.420132548353276 8.148649264858454 2.68819479879528 -0.1415070902392724 1.775997993298664
P 2.2033594945947823 8.887895391868073 4.6869239373041465 0.23062769645702863 0.34708221460304745 -0.3515443641394591
P 3.7166315921862023 7.17999573115298 11.451606318277934 0.3197303049526558 0.8835171781737365 1.2954354154155625
P 3.9456068465575385 3.424096271903137 9.303438849129153 0.24876837192179735 0.10854734748380017 -0.2144138057013275
P 9.19384427131485 1.3417300742278866 7.96506029390291 0.17131723162216947 -0.7868259586975739 -0.057210130662404705
P 1.8595084242614228 4.109880853554123 11.874586162941492 2.1483978607308933 -1.1596042925151446 2.677603653542995
P 8.27415490553013 6.322098535406949 9.938455821989953 3.3563476344289613 1.1413761995428924 -0.026287215831303116
Ni 5.501542293762409 4.894817267238124 8.702688188182178 0.0503195741901585 0.10573790305946307 -0.07011963963522116
Ni 3.2541444194306988 6.0923656113757385 5.053581799794384 1.7213461102817385 0.31597906544033966 0.9806920221545368
Ni 5.998582944586776 3.053736117420573 11.744964785845804 0.1629423772949129 -0.7388761702911726 0.2749532578472813
Ni 1.4515454051776593 1.8518381881984916 12.171819970510423 0.8810432627119471 0.4303234792218911 -0.3017125282189965
Ni 3.188330052432181 1.355489729409072 3.7460347873572 -0.8866750070764278 1.792589579108758 -0.2653283331630075
Ni 8.969826608545164 5.782628383629587 12.098712331489628 -0.8029575741521139 0.8031367800424555 -0.7688997132364563
Ni 3.7191852195583732 8.724556779513309 3.0189487906912538 -1.1804538822706445 -1.8977466699640866 -0.42946781608981516
Ni 6.04331351635865 4.076216000394989 0.5574007316664273 0.2558486758073465 -1.305121789465391 0.6730782979597569
Ni 1.0169797624805095 2.6069448667548243 5.274080507921539 2.1574674271323295 -0.1117080045999689 0.45634432876568504
Ni 8.850647977230764 9.053432181631116 4.5044172179491895 -0.022483011593864507 -0.659018220322265 0.188947543109423
Ni 6.268154326413139 2.7171998331862524 9.356447663481143 -0.4980437653870003 -1.118065806951726 -0.03168164737399705
Ni 6.947419207410634 6.364340957431581 7.408708139629964 -0.25749238205835656 -0.784998675680848 -0.8223079536542678
Ni 1.0878546144912784 6.9717581759908125 4.052769398303107 -0.33889067993119054 0.26959327908694863 -0.6819249497171094
Ni 2.12498277755661 6.102299502471876 12.60984563798767 0.12288407582144642 0.6550522936959815 0.8756269767923823
Ni 1.4523591985160433 7.352052221569514 6.067660903490607 1.7455111375637165 0.37957350236253334 3.878717892376469
Ni 2.2677894775234053 4.875557491563032 3.421749366746808 -0.13010193372612433 -0.20036504091774524 -0.41188301312851644
Ni 0.6408959281846437 7.8714675122262365 11.616330250097235 -0.5102302801508631 0.33334918128767105 0.11943905469563945
Ni 4.595603229212458 7.2076927664972965 7.445919073876241 0.4571051181911095 1.8187639235112805 0.7563887252536393
Ni 6.951095308352989 5.570546356489536 2.0760607023947353 0.299356112171678 0.09944255696905453 1.0104587118940083
Ni 9.179121159652588 5.820156416659441 7.693510552409096 0.44561254417047774 2.4254591660601132 -0.421489425870029
Ni 7.654643034252154 9.31901878228332 12.56190198562114 0.8607042940442788 0.3836764687873134 0.10871112675517405
Ni 6.423860118490643 1.7408161981607697 0.8265221886700742 -0.5570865783827696 0.042367409222617364 -0.46825419282939357
Ni 5.723081160731269 4.916350051892842 4.5217491452674885 -0.7420211436780575 0.7861656994057558 0.5638745478388805
Ni 6.597693858726639 5.478045180359868 10.653905509311645 -1.9895499652203281 -2.0859776466224593 3.3607285371054765
P 9.261688444686119 0.4899325869411701 11.1362062113702 1.340554162131072 -0.851778709419875 -0.5022773438523738
P 6.176682084389474 0.3409391868133712 8.875543505622828 -0.8159771263402334 0.057483438928449385 0.4040208367716204
P 6.310275147134333 6.067727316510176 13.565726357859079 -0.7317932953024623 0.774765170878298 -0.8525940062323188
P 8.651455688255005 6.289602925550092 5.528612614696705 0.709408756959675 0.430057370044698 0.8697252665959666
P 1.3915585467976854 8.170934106805195 13.646404145716131 0.18998678300721472 0.19834415383297452 -0.9878957389918276
P 4.139252245307299 1.217593851311836 1.662895953707806 0.5749099797174357 -0.2981649200770542 0.32425596073715124
P 0.553751757168684 5.997563364427191 2.37482668638697 -2.3181179230692717 -2.9086794932810354 -2.4106894639501064
P 3.651107197526649 5.402512063032831 1.6731918425303285 -1.1012945010306583 -1.7254151381447898 0.8180682045413072
Ni 5.10911617967929 6.715366504667706 2.998070782285812 -1.2433518073464458 -0.1258668125988542 0.06686925101872354
Ni 9.160179418155716 3.388336134746324 7.159994187526923 -1.700032436405627 -1.4991786287769213 -0.4739098484532741
Ni 1.5586480916661511 2.8234793723899423 2.4014274392110724 -0.7751253824311941 -0.8368660539741006 0.8140613973747592
Ni 8.993913020572052 8.017707110528516 2.4713032897443767 -1.259033479747761 -0.28983788826859763 -1.3455053354887603
Ni 6.515556855228346 7.440736987560553 9.649341239912026 -0.8088988793372134 2.5243216821559815 -1.5295284447133723
Ni 1.1997932912779845 2.2482677913486033 9.814831259942977 -0.41859102127631137 -0.2091006210185302 -0.8501637995242715
Ni 5.815610398700191 1.635509469384574 7.0233218056211895 1.8614241813839683 -2.6521934410000068 1.0170152820656033
Ni 1.0334052923908843 0.40402500764169763 2.8390153419959456 0.5336733416651519 0.7245695238605134 0.49247758415313253
Ni 8.17498436560428 1.4114918066148887 5.823039302945533 -0.8475762413027531 0.8480390398717846 0.7948634842900698
Ni 2.503583758833616 3.575237338128556 0.4540611378219807 0.24640090013088536 0.5178566863478694 -1.3318419790690545
Ni 4.5350457801009725 4.553229851937971 12.669810046896238 -1.4561666439917695 1.3895064236600585 -0.025760396793555632
Ni 3.877584948204323 1.4088727016177902 5.939668048466329 -2.2583924821841816 -2.935130231273397 -0.8937398843430091
Ni 7.084660309258595 1.6075879393262202 2.9793965636564996 1.9830869832038036 -1.6955561458018282 1.1443933891026614
Ni 4.2746132039252 8.421732118170214 5.535526116494403 0.43760664314686576 0.4916378618606565 -1.3740990879660528
Ni 4.271301906893155 8.282330254699646 9.716150866809441 -0.5673825609921389 0.29884934773858857 -0.17807820449508685
Ni 5.853129077783628 0.5406365888957133 11.142420973370458 0.18246322093665995 1.1097441744599081 -2.251607083831232
Ni 1.7335388278474033 9.270191181980271 9.695697527571385 -0.2530636568630416 0.5843937508381548 -0.288479060247858
Ni 2.0817207753723936 7.323569454726069 1.7407535267197678 0.8162949146909683 -0.05887466284902118 0.12102259713267544
Ni 6.681533280473045 3.6181532442952986 6.8781756836552 0.7048730738728506 1.8404360091680756 -0.0018270259064097566
Ni 8.922411454151263 4.726923282977692 0.351834663601301 0.43464833184949014 -1.4255846574398545 1.3155918357587795
Ni 3.3858947547311713 5.531849080157406 8.116079758824894 -3.4957477056275605 -1.8528991746320926 0.19506162642696084
Ni 4.238553740483004 3.2330699781504744 6.9378529264087305 0.719640204879696 3.799369020833495 1.2506370281539492
Ni 3.7782740990821986 0.7437584707617616 8.159232319836017 1.0017835527175134 -0.8599884989241771 -0.12238193937404729
Ni 5.865635304144773 7.827017558846908 12.091210466462224 -0.6526395704894309 -3.0231971994156583 0.18024384468783797
P 9.147738669419498 2.1091091304849097 3.7632843999470196 -0.4672717743114662 -1.2754970246204227 -1.2696742472910585
P 4.060566848037325 1.6835232763492403 12.382460554507427 -1.1884824090020758 2.122170294492932 -0.6542570514881958
P 3.3475529283629335 3.263180331670689 4.876592038036886 -0.9301631601670497 0.8721125358812205 -0.9928556541002643
P 7.872739648939113 0.13545823966065057 1.0131549337901038 0.6139696647230588 -1.0535092632265792 1.0486892161301165
P 7.661649140119393 2.917804568071161 13.142910207257842 1.1401148163319654 0.7132741534523522 -0.2971331363784302
P 6.291520484565825 3.55463994811566 3.0335428178929433 0.7748762425348654 0.852738502229983 -1.884527600170651
P 6.611238373140205 9.201430321860016 4.55203254679644 -0.3398561291682534 -0.05617294764714196 0.3561715784988253
P 4.945655966021089 5.356986405815409 6.516816831810879 0.7516854062406989 -0.18338521853029705 -0.40694983749295727
