# total energy = -340859.98837902996 ev
CRYSTAL
PRIMVEC
9.36865593483827 0.00000000000000 0.00000000000000

0.00000000000000 9.36865593483827 0.00000000000000

0.00000000000000 0.00000000000000 13.71197495888605

PRIMCOORD
 96 1
Ni 9.016984718408999 8.570371520279538 3.8849314822826755 -1.260703668361332 0.8893363559586748 0.3303628449658375
Ni 4.952252801595033 9.547409912730403 6.435071202006637 -0.7216826892310215 0.05600016951470355 1.1974000232066797
Ni 0.4696038798481096 0.20619100149676017 1.7582044210760879 -2.5134538862035423 2.4140455249065327 1.542420470184692
Ni 0.6052667024344547 4.5306726521828615 1.1860512331218955 1.8732294015490127 -1.0590096242195182 -1.654822158417576
Ni 3.5625063769233405 8.146168147199386 7.476879797416703 -1.1841022776565089 -1.1335309924668606 0.7552121884470347
Ni 4.587980720672256 4.017345254983108 0.42970839532052474 0.0490515061110123 -1.2044808413128612 1.1553190348762294
Ni 4.670246888631284 7.720400208574406 0.7005328173995118 -0.6507474956730406 0.8943968012007176 0.6858623370983026
Ni 0.7188616559139226 1.3169613365412192 7.625105987641478 2.2671473455586764 1.409686241042043 2.3635832544909228
Ni 5.5348239349734865 5.397095323748608 5.603000581238677 1.1698933331459787 -0.6268280087429655 -0.2871225462199636
Ni 3.932399651420359 6.147608983813489 9.86583460199607 0.7363210079694867 -0.14620655259747078 -0.6415303479501469
Ni 1.8637348355077104 7.894563522816328 1.7764273937781838 3.025940823599066 -1.450390917850257 1.9410075375352505
Ni 7.979865135305446 5.8314917945100495 5.909696650111688 -0.4577322102521472 1.7088297229822829 -0.2692387239610073
Ni 4.740127693415064 6.39971951561823 3.262517328849996 0.680684392441789 -0.9203860261756278 -0.5864629746623577
Ni 7.4296533396027105 0.6881202851219904 2.261639454450771 -0.5456639383681248 0.9095220868779305 1.3915329671717842
Ni 2.3168686181832916 1.3522343262195857 10.726206058679145 1.200711861188732 0.4038058925473368 0.4850249845298292
Ni 5.8078734128422775 6.634357504063036 8.043746252814321 0.22581690533194657 1.4745163501435508 0.1748167601349957
Ni 2.916874820297852 2.2106467969420374 13.392266969156715 -1.196682685424681 -0.5505986566655807 1.2740973160594187
Ni 7.738397396667937 7.8745708110039425 1.8997666863185996 0.2081498270694867 -2.127216855777904 -0.353907465054997
Ni 8.189582498904448 2.888647059899202 2.56689556090318 -1.1801227241834709 1.0580691146831198 -0.28733106268634384
Ni 2.5847653352756943 4.619065921137812 5.497432692183226 0.5588835223821924 -2.1858611477836742 0.34242054746131995
Ni 1.2039472397310897 6.1788909260541445 6.427845157666948 -0.8796407259374657 -0.1602864277293046 -1.8687680233435495
Ni 9.438639817068827 6.399963100673114 3.510128095198556 -0.9026407863770648 -1.4515733681941323 -0.5553654819266048
Ni 6.157211856169486 2.0543214036423754 13.138896353125746 -0.8132664122772896 0.4715837714232588 -0.42971567043456316
Ni 5.415748317759133 1.9909518147487573 8.479896535970926 -1.2503902022504658 -1.42697562425011 -0.9684630841885128
P 6.099566516065637 9.255164058805578 3.9454426942437917 1.1481184033627323 -0.3343310855849661 0.25215065813046894
P 2.8484930004672013 4.49628031616446 1.9031394024631445 0.07474788243585191 0.8907036686198465 -0.07583288796991457
P 8.720279384248608 6.944478753553951 7.628355974392985 1.2462499548298471 -0.805656975361148 -1.471767069533188
P 2.78814011879176 2.6070158931737346 4.923640926302142 1.3494072416463276 -1.5601847361466485 -1.1312257413724518
P 4.646956409922008 5.914685459408827 13.22987537112485 0.2870490126695508 -0.9263432722003273 2.81354919053409
P 0.3409900340038635 7.909974961865708 0.38418234856274114 -2.4445544921286673 -1.3140350327946209 -1.2919484853082268
P 4.179666588095295 2.7659551414854193 11.896989193187805 1.3240638777855325 0.3754551093187857 -0.4859966044144791
P 7.578633706632029 0.22970539108340896 10.991861793266615 -0.27046102640388264 0.624821262725582 -0.9375208860837014
Ni 6.930622511393445 4.968582368928204 3.004087638602212 -0.2175461806827221 -0.01378934047460851 -0.4415777119794718
Ni -0.02112444545200035 1.48930713152747 4.082397454486617 0.04240366177719149 0.9325056922572973 0.3246549959477828
Ni 4.5079723987988825 1.1338509558602954 4.310716284488379 -1.3371777894596715 1.306369031608931 -0.04101475184946485
Ni 0.535258483929657 8.478080890446446 6.233409008799524 -0.7231924410073286 0.18855724964953977 0.10076950331059419
Ni 4.028746909282862 7.300066090404525 11.99051835933842 0.03811454748353436 -0.7961207537359385 -2.7551658654991904
Ni 7.545665406319102 5.360239031213497 8.891036255184538 -0.0020918495320222034 -0.9985807295094996 -0.3490827899728439
Ni 0.12186279236158175 5.850528903414816 12.739014010910148 0.21419011972629565 0.14408744937193893 0.17961032486889714
Ni 3.8468357165644433 8.817722774858087 10.200941120058893 -0.18277406730885942 -1.1014667649424643 -3.181085816336747
Ni 6.603487782684492 6.863093239254888 13.573237548817044 1.5404540904869406 -0.8862805998514866 -0.6725121410436418
Ni 2.4233433931353865 6.196963063395331 4.025287064637916 0.09010945249358673 1.4889278975831906 -1.878572411028481
Ni 2.225421167386336 0.6962522784927268 3.2316794609017063 1.0270994057744827 0.9080624716132684 -0.4498641203579801
Ni 1.5101523910319496 6.499102218010823 8.540572636276886 0.8271650246362529 1.4623192938567269 1.2713714324878234
Ni 4.032728588064617 5.148310664808627 7.6933500882295585 0.39613860581006616 -0.2970094663163724 0.6580849098747182
Ni 3.5709569045966174 0.03653775823257112 12.333496422136374 -0.32536821996472354 1.5599304540439973 2.0790397818520447
Ni 7.087669291201802 4.3026676721556605 0.5084697490860125 -0.40707993531291825 0.49284679456709307 0.2682331655146284
Ni 5.192652513453437 4.777677266490999 11.60578794440219 0.037390010612683995 -0.9081938549848101 -0.4580541123679402
Ni 7.001693135483776 8.263988364515493 5.885014925992788 0.5622966618287993 0.1194547384249233 -0.47698437361353985
Ni 6.315354768724819 3.4674613622388706 9.890776774750575 -1.5311083876059826 1.9578240948719574 -0.43920921174729516
Ni 2.665541886937548 4.677563808933755 12.834929373733031 -0.31323672680851217 0.3456051158368887 -0.4675790211392399
Ni 8.583937334105375 4.109401668417274 4.54217361423576 -0.32367617697428125 -0.6039120233767407 1.334162399672115
Ni 6.275594192843016 2.740388079378576 4.340593865201069 1.185951672160422 0.39731308573414154 -0.34339525266976345
Ni 2.4102553807633607 0.5432387050738888 5.7061972634713936 0.14059923371302238 -0.29200147157881967 -0.24063211596790818
Ni 1.3905052858042148 8.175941735830953 10.90777997978311 0.15804879664803748 0.8409492229045389 0.18401848123892178
Ni 5.225124275000639 1.133110832039687 10.773306976503312 0.6215875862796326 2.496238036545888 -0.5495840993581373
P 2.0287074982557476 6.225706099871621 10.667299697483474 1.1352968261180318 -1.1044764983030655 1.729498564185544
P 8.511967319043166 0.8245925595830264 6.6801177672197465 -1.5493259390552736 -1.723117600359865 -2.7133291319690627
P 3.710446823141425 6.302126226513437 5.9724835086047765 -0.7792795138088837 2.6632725816323037 0.053562249497172275
P 6.424921200142747 3.7580395954033388 7.678569159726091 -0.08268950588043178 0.48508951921917737 -1.0637473960148196
P 6.0479264844302705 2.9173619904076196 2.0392041403900483 0.4153192925035751 1.8792838352732086 0.2550688602185284
P 3.3358130087301294 0.03737718980632455 0.9287682663632565 -1.575180181114216 0.4409753025087825 -0.19874524592613513
P 1.7019006725052914 8.212104747825242 4.184277840557365 0.4179317904257576 -0.15268958921865317 0.5233678459740857
P 0.7023709476982889 1.9878414209710102 12.329328307101074 1.6536862450409198 -0.7347575201371087 -1.5528354948704288
Ni 8.734201207000812 3.3503812687433725 12.936713262647421 0.4709697919883437 0.9654320106716728 1.2341416016020874
Ni 1.0839160196091149 4.152132108237468 3.328554174094592 1.9026988717630395 -0.7782461874483629 1.600534857828921
Ni 7.597670815536795 0.5446205818275566 8.821201356814948 -0.3743731891085165 1.7420985123377415 -0.9589376611965809
Ni 1.3059625344476193 0.21963502279515493 13.361483439412975 1.6820275151877742 0.48071967228625606 -1.7331659857348025
Ni 2.1705957927255652 7.087332019587348 13.19671969769278 -0.5077306536574611 -0.0029670530481239227 0.14244991376851596
Ni 5.071543897896399 1.1641585578814153 1.571488044717288 -1.1766561057911091 -0.81255113137782 0.28883310115316707
Ni 0.18678383068169066 0.7531649897007326 10.15758391715517 -0.5432998090113225 0.666798121378 -0.14111602544844085
Ni 4.279405299414257 3.65947196607901 3.3116746666567396 -0.3964810767511494 0.16031856651882068 0.05924181638045281
Ni 0.07073428934147057 5.868507354196431 10.306373163602968 -1.6223172438113351 -0.5432563573678967 0.2789749774121647
Ni 1.3623150000293929 3.5153633001473668 10.200708777391156 -0.31843215496652255 0.6871800274684616 0.5013358058747107
Ni 4.183404681822165 8.09465927674742 4.727121188349865 -0.6929724657805227 0.21688000785363293 0.3531343343343983
Ni 7.733450746322603 2.430145037360219 11.027294050096252 1.4761561997398192 -2.1937256381334156 1.3483746866167552
Ni 8.280346037816537 8.121003937298699 12.248633262746047 1.0799247771056304 -0.9989226862299507 0.5654663178060326
Ni 7.700266966922664 4.714176516413982 11.515618378277779 -1.006577888782363 1.3453199589508316 -0.3835006053310815
Ni 1.9219516636249403 4.277484724943058 7.817526001746941 -0.7955042031978623 -1.1655263144265346 0.7208193127894619
Ni 6.662678951021257 1.5120635968471918 6.3862698731262615 0.004895637529404471 1.9838657703513576 -0.3893629776491294
Ni 8.849192090217883 4.13847260785206 7.154401290718412 -0.633810867818702 -0.7394212441613652 1.094634058291347
Ni 8.27669226199328 1.091345363783071 13.61280981471411 0.850151201118781 -0.4154118522173813 -0.4905819097923164
Ni 6.375314166850065 6.65266385780315 10.599137104202219 -0.667204098567167 -0.21003547412797377 0.5755506986252281
Ni 3.0523924287168627 2.083120652054407 7.460260738614457 -0.9752034882361399 -1.1559978061108092 1.5382095174271377
Ni 0.9691874587588416 2.9072157360061133 5.9280845111586284 -0.637629984454476 -0.5683395255887695 -0.46317292165174423
Ni 5.887179085518872 8.703799918420122 11.876887804966316 0.4803736018007469 -0.9113593971969852 1.909876620458401
Ni 4.531834365521538 3.2206066464260457 6.36212309926251 2.0703232279146535 0.007570870368722446 -1.5504554246740265
Ni 8.065635180592418 7.691076315428779 9.388287975627557 0.029162737606885262 0.8581753569748382 1.4768789368384565
P 5.765311608829311 8.857389664180321 8.555902568019441 -1.7727617457495535 -0.33962910075911185 -0.5030286201961014
P 0.6858830500794422 2.5128327948373146 1.8662268979922907 1.325488783157517 -2.504021794256365 -0.09809941267759881
P 6.483437825250603 -0.045764947484688887 0.41878735307136883 -0.15479789381090758 -1.311363913720361 -0.5446452672956232
P 6.818236114532439 6.740776067079389 4.182494985328734 0.07059375105816229 0.26147502085518837 0.13649395329539718
P 8.855113080782752 2.9420015555747123 9.238209602120069 0.5695034639898837 0.38115190259324677 -0.9504293666152536
P 3.4857489786670697 3.098073995163533 9.556369158422148 0.06095905618187565 -0.17836951048326058 -1.1679835177177755
P 8.585173996691708 5.939662296190375 1.014081121239523 -3.1344429196672277 1.395855248696222 0.520541175158568
P 2.013511538293381 9.471711172597281 8.801552474676186 1.0292897285575822 -1.0177873843449374 0.9327761723098645
