# total energy = -340885.4129586671 ev
CRYSTAL
PRIMVEC
9.13342269371827 0.00000000000000 0.00000000000000
0.00000000000000 9.13342269371827 0.00000000000000
0.00000000000000 0.00000000000000 13.36768733277459
PRIMCOORD
 96 1
Ni 6.665215464171731 2.365218465015675 11.41484171466584 -0.20510718358842098 -0.4899291066996659 0.7928233139315893
Ni 4.758549604179079 0.6079827022277523 5.660533520099399 0.5080060188060349 0.4109090792510214 0.5965311575316372
Ni 3.01854130272236 1.5688570990999005 4.457201465507812 -1.0262802523072971 0.8122986490473817 0.6770750778239759
Ni 3.5351276736760737 4.538169255085335 4.584462006520605 0.6648867632879001 -0.026534813065734943 0.3864260065079926
Ni 3.8468148465043344 3.0929695618613597 2.5091018347967804 -0.8045249186392338 -0.47515631926586555 -0.5067711179576693
Ni 5.5272732339119335 4.73099406879776 2.5870619883779264 -0.2211318411514514 -0.49903595409694046 -0.26609349346380623
Ni 5.626736203849804 2.954954415972364 0.6059614758505943 0.23089072031042818 1.8524751997207967 -0.713371855372481
Ni 5.771263479910122 8.46862798393044 12.405400647680787 1.751087346099913 -1.0660770725892608 0.11530934879798205
Ni 2.2754825899339877 6.782004536402726 0.20392557529759456 -0.5213436164552054 0.08314947623598583 0.6165343401264415
Ni 0.6415653830509439 0.5711850567197003 0.3243049958740981 -0.5790980496568543 -0.5672048977636941 -0.3396998060960472
Ni 8.048618421436144 8.764094198575998 7.3031019046798855 1.9187649240869664 0.6309127203353005 -1.0889858588666343
Ni 9.0673146888393 2.644892992331334 1.5118590632693885 -0.7892903610776665 1.0518609289898788 -0.9643719448382747
Ni 7.2266834727998885 0.9071488662876178 4.654602123842724 -1.2381095851108999 -0.5943287505636796 -0.9438139181812649
Ni 0.5511655081607639 7.363255537949657 2.0352169535905897 1.225327088634251 0.531796179247097 0.4429589085977146
Ni 8.021072019477225 4.09655914861463 3.5604966677347907 1.0335844992781942 1.3156733397289924 1.3132133082242738
Ni 8.25630331339365 4.168146913387177 12.275065796688098 -0.8976374196252024 0.8025603387136953 0.8319310785663285
Ni 8.355464880392315 7.306747053559794 9.162158887069403 0.12432440781239877 0.66151167616808 1.2739438212006897
Ni 7.356158868744723 1.0433291076164184 0.3391623340924575 -0.7120600785395931 0.047865456222711114 0.06057287648705053
Ni 2.1447650485427294 6.551093351281585 9.18547194774584 0.20944283484929735 2.02488797839999 -0.4944658182277549
Ni 0.4317131299578778 5.142409080813496 1.349789222805061 -1.1698465390684434 -0.8087988634242393 -0.957882480459189
Ni 6.866616561517918 1.7165902064226783 6.771161337329244 -1.5559853533533203 -0.20760681008182308 0.8360695262147344
Ni 3.630982941765876 4.497434191180568 0.09766642575175649 0.7001895523542522 0.15843677611507553 0.4685966637704769
Ni 6.383129713342427 5.885312525421066 4.705037795678712 -0.7596799944104012 0.00266674819888573 -0.5325214874488958
Ni 5.433619120620572 3.2330031941007924 9.419219973864475 -0.5987183949909429 -1.1755636440578787 -0.4820671874530859
P 0.40551390780298513 6.169663365005612 12.400093215924047 0.3410938582300964 -1.7278206622624888 -0.3340446646927989
P 4.444688676819577 6.485752847430756 12.613080972927092 -0.7865012283683035 0.1506936418345469 0.08823897494375126
P 2.3133771594723 8.82906023210842 1.1920906383014558 1.2385361311253573 -0.43562046595477233 1.1220469030866613
P 6.426367334984839 8.319871933298845 5.823793445502469 1.7724203032497348 -0.5274286463070208 -0.7707074558691565
P 4.882928550424618 1.4941457038664954 12.577242336771059 -0.3605843628545403 0.17425086032919668 -2.1186733370832673
P 4.58790987347667 6.456535029172607 8.076702781974431 -0.4854769844655833 0.34820938622895514 0.042613206684836286
P 4.95376737456035 1.4555661276481702 3.4735263929558755 0.6352393727351124 -0.13997831229957183 0.1267795542211107
P 0.48252327211227325 5.88340364013943 3.6666763565057474 -0.6227790354845727 -0.21839001674025613 -1.157885510051825
Ni 0.6183692301812277 0.18245198589255077 4.895794802559739 -0.7636181531225429 -0.2858053700704368 -0.3213580703640659
Ni 1.978007022360394 6.509335344068 5.06758351780009 1.2608921302230542 -0.025307882637169318 -1.0616892279342103
Ni 6.64439126109934 5.685327108546906 8.803356954789855 -1.261561131265621 -0.17465786595962823 1.105813214836618
Ni -0.046758555977679236 2.5242952829594665 10.199758598814194 0.16619919366931377 0.701291012948547 -0.8682761928542658
Ni 2.7084250785469286 5.487113575618378 7.135416836123932 -0.2907866253351121 1.3548728927465892 -0.60056753238454
Ni 0.8822255832420292 -0.16306264347922617 9.205871446676625 0.4470585325883849 0.41989199947592204 -1.735363507606753
Ni 1.6120490536303125 1.1064136561344047 11.338110919739758 2.445830016406981 0.7953424808090174 0.46114432125748966
Ni 4.254311620310397 7.358771027551172 1.5465213146202803 0.47360568694929395 0.09574042552711898 -0.46643642289436443
Ni 5.938459910367666 8.58182762115817 8.033765649928984 -2.0178110169485506 -0.7469916003094554 0.8159565575149431
Ni 5.757983483740272 3.299193106234837 4.811939938161522 -1.3095895954287577 -1.260568171224732 -0.7472934478205904
Ni 1.017189252707127 7.557103294970902 6.852129126906766 -0.47779067156491917 0.16056822063578155 1.3662528524487567
Ni 5.185436633740705 4.802654900949507 6.7986447186736 2.01302208020034 1.3480952077031234 -1.0775459924608088
Ni 1.5681264253078868 7.690040258005402 11.291618146353924 -0.5926932718427856 0.9036214051227792 0.1586902868867783
Ni 4.8126559984776955 0.42869088048566095 10.48737829027576 0.575094584924416 1.0049827763811015 -0.5059596777999673
Ni 8.16281360170549 7.583873356025806 4.373960367094886 0.031217820363701073 -0.2116203021165904 0.3571455123763204
Ni 7.330539618912241 6.447520341263638 6.815581737172478 -0.2501423694511885 0.14473716714079587 -1.6987656538780613
Ni 2.5948601044231934 5.48666603792077 2.4478503641545086 0.14308497624935357 0.5293484890375529 0.1749507146096987
Ni 2.6144604288939615 5.629905501422663 11.540978844723414 0.23916658716597522 -0.9222071385447667 -0.8158372583282595
Ni 1.3421929553948382 3.5810779217713375 3.662238426561504 0.3526255130187798 -0.18384801709932855 -0.5280637087878584
Ni 1.5620435659893723 1.4195895768138937 2.638246600850729 1.33675947097533 -1.5800498505016918 -1.5586952960853158
Ni 0.991241199668239 3.896107927198061 7.847433786200841 0.1387603807320707 -1.0876910513146107 0.5592133949177852
Ni 3.6784219377123684 3.5194455874149786 7.566632194561001 -0.8830947459243372 -3.6936673703286065 0.4076098396744593
Ni 4.538909062299749 7.345061760528515 5.842307806049857 -0.7751379808366844 -1.8156078943808023 -0.6693082893943635
Ni 8.223642194890635 7.500457809245036 0.04738693543881105 1.2991118358258853 1.6472888261550083 -0.16765418094828546
P -0.08469513925903258 5.85044111869721 7.848516096755262 2.0445594886869887 -1.4400787372909714 -0.18016799714458004
P 8.994722247602734 1.4726182272692907 8.003247232321051 -1.114404298939739 1.106822372827423 0.638533727215668
P 2.2264909121794663 3.5945131861219903 10.142905784399845 -2.097662539159555 -0.5905996225385506 -1.0657716255337
P 4.464919207435957 6.282607266406136 3.513429402079985 -0.7398637310154225 1.4349977232236382 0.6841664374531184
P 7.147423633211198 4.287867814208628 10.334024474807919 1.0393877362235326 -0.3781203148557746 0.02444733440908693
P 6.814008048492929 8.391066960908184 10.322661583999864 -0.6441233054883035 -0.5889672291414502 0.5423081345220143
P 2.486884784808363 8.659553045783632 5.549702179300035 1.8995150747184186 0.3313558050067261 0.7154395365347872
P 7.2919874429611165 4.320017461057232 1.386482747297751 0.8957723413920058 0.008703955531901139 -0.9603947053580815
Ni 2.7768526791690156 1.9668916472993847 0.1899039452288509 0.7223982272408075 -1.266835749400999 -0.042536587810629974
Ni 1.6058383263981957 1.2948270268275477 6.861660766523585 1.3087735272853653 0.16559729841925672 -0.7379292329968711
Ni 7.125001081218776 1.1700462099964013 9.357635133304598 -0.024719614233867107 -0.2218754041856953 -0.4549281651444488
Ni 2.761060991839118 1.514440168439677 8.894377902403248 0.8379086363060021 1.736910540378899 0.4322384368564169
Ni 6.797467420526218 2.4931959796868814 2.649422256499579 -0.8140156317384885 -2.263667614540192 -0.46956648388291383
Ni 4.796115370510984 6.836384933373349 10.36706919705174 0.47197432199345807 1.124846063098353 0.15395868573906388
Ni 7.3172139556303915 6.370826993369395 11.417274858393247 0.40742549157779506 0.528927085229418 -1.2700866522381289
Ni 7.546006186754693 3.327040911132961 8.290665988489815 1.2300751448421976 1.3392662965575837 -0.452957157461007
Ni 3.485195253414335 8.816182106524177 12.652849720741921 -1.002122938334803 -0.10770891074290481 -0.24610188083322776
Ni 0.5347216944714948 5.159041043004209 9.985822792566012 -1.138798154403071 -0.5668999649287656 1.0991550860901522
Ni 8.829918773814036 2.4400759950074824 5.789224355060059 0.6323617940770012 0.860112168986235 -0.006048263076608938
Ni 3.7896122220120585 3.0132987182646613 11.41784935066222 0.4657622796454753 -0.46255971354777753 0.0008816312740049332
Ni 1.3099154406326312 3.482144690332677 12.141429213497744 0.901143375895932 0.058255026987151286 0.7099618012496677
Ni 3.39984342108473 8.38351362058324 7.665392804316298 -0.5623090031239735 0.38875619730306593 0.7899133393736459
Ni 5.511463279737235 8.389048474557745 3.5024007945317783 0.43702146006735704 -0.25854756279574825 -0.1855788837475062
Ni 2.553175164588809 8.16115131882866 3.4009531319063506 0.700808931105806 0.3206260772940478 -0.750307809166882
Ni 3.7568780361298435 4.859574389347379 9.510092960034985 0.8973139748475127 0.41723784968252664 -0.10881474221257388
Ni 5.567149756111083 4.669051198079796 11.735706150321795 -0.7454311978008711 0.1317770074357021 0.3739147614148593
Ni 8.341463343852851 0.008248393769595101 2.420567004760716 -0.5620781180600901 0.8333737245501259 0.1155716013204332
Ni 5.063130974380005 0.7528223413341558 1.0870179203254 -0.6705755861425613 -1.6465617181809964 3.1238391760094526
Ni 6.399579007085136 6.187290870237944 0.2772642171442536 -1.7791524797672456 -1.2814211034143415 -0.0803577724234616
Ni 8.808528298552833 9.281749179950532 11.09415081403549 -3.2788792677381533 -1.6995845502349307 0.5008393258542665
Ni 0.5037018519737915 4.719184553634338 5.537083442911958 -1.4377580595775947 1.2987901908204083 1.592033248115813
Ni 7.381047444785191 6.29346690563994 2.4142978236252377 0.7543184729881719 0.95760480131777 0.4841441245867727
P 8.905516111020257 1.7617184465019269 3.6809263221344954 -0.31700673537390567 1.5011717479475502 -0.7408937149418338
P 1.9977260813223647 3.608834392445459 1.1935903462595638 -0.44945917161007753 0.47452639899135046 1.403301677671938
P 4.881805139469396 1.4931501608248767 7.763551521535423 -0.36355912921214806 0.531358063268414 0.8518854102010683
P 8.678084759833581 1.9057525177526353 12.337065294624942 1.0141945247873565 1.2810392945948905 -0.34712746601868605
P 6.637705595902413 8.288991832163864 1.272772551757853 -1.005275882141488 -0.6515355387919747 1.1743539400204936
P 2.1810978028506125 3.396409254262265 5.877423988494037 0.04160430580434771 -0.7583749024457327 0.34141216080146364
P 7.250978376384346 4.173161162284871 5.921096361042698 1.037147534039104 0.13206445676913384 0.9141590714293094
P 2.8974138548512824 8.85891738993458 9.93419612244904 -0.31211418316829476 -1.9992237408646665 0.7288401262114093
