# total energy = -381180.65479295485 ev
CRYSTAL
PRIMVEC
9.07536818426557 0.00000000000000 0.00000000000000
0.00000000000000 9.07536818426557 0.00000000000000
0.00000000000000 0.00000000000000 13.28271868995482
PRIMCOORD
 96 1
Ni 4.09303632507466 2.6014996014773155 8.440131223324867 0.06309332891605908 -1.439702327788159 0.897826652817873
Ni 2.77390436654077 4.53687627033935 1.914557774770569 -1.3823258467512194 -1.310572528167317 -1.30398021966178
Ni 1.3369015289920805 2.0235620192921857 9.975639919743472 0.003928902740760975 -0.03413987910650249 0.7175799799165578
Ni 4.628473959121023 4.4366569819993105 7.267413991101539 0.5079191155191833 0.5087981756900269 -0.8124516296854781
Ni 6.274536972908158 5.506887898967148 3.1496118944112723 0.2542558773989299 -1.161948367267289 0.6202130745296093
Ni 2.217738592082504 1.1202543451422733 7.842050861961007 0.01349983425864772 -1.4742291579204352 -0.036471612563472665
Ni 0.9764279137728137 2.7569243530947674 5.374493708612081 0.08608027672953562 -0.6400614767141041 0.6345937687313136
Ni 6.201643617484161 2.9825652265891436 0.9006449611915707 1.536908282117211 -1.6812610693353947 1.1719466161305818
Ni 4.41440417977077 8.09738815448158 1.0880885184952027 -0.8646861615101624 0.53850830115995 -0.13885551154903827
Ni 4.197629940769576 3.6050991669109167 13.382604745898382 -2.7622963058963848 -1.7124603777563345 -1.0109269097796783
Ni 5.805095414639099 6.320167922991805 8.42408597277835 -0.31938346313619836 0.8536203906143042 -0.20297908150182462
Ni 3.4232923206448653 2.361964339642036 6.206297466172088 -0.34524644694588924 0.41559105810772295 -1.8354506401383421
Ni 9.262048275033417 4.278908936185078 7.033451912728146 -2.4676103455068663 1.5769066768870197 -0.08383133279435885
Ni 0.14197142615921765 0.360535327721369 6.43344485074719 1.5576478286574078 0.49606273040122945 -2.2362925649613485
Ni 2.9417169954184006 6.287986668219209 0.08759726658659137 -0.15074403545650814 -0.10896129509276718 -0.0021885230108865533
Ni 6.650511316596572 6.045520062534084 10.85997735225459 -1.6267536823161337 1.3457673309008953 0.5733382643549416
Ni 3.5291111110138647 1.4033695239031054 1.5197683782354134 -0.1455097836407623 0.4798915199580057 -0.8255457438652749
Ni 4.893928471839139 1.401264038537273 4.106830884368047 -0.771837969929174 0.4775001369076938 0.7265706134509422
Ni 1.998150989014896 6.478905183913261 10.801652685010643 0.21331697309272296 -0.15973775431468618 -0.1929643775782999
Ni 5.73820995280209 4.204590747991962 9.639082621699112 -0.9472278289588202 -0.9671348522953924 -0.6037562145251667
Ni 7.382485119101858 0.3582202013557488 7.5924283286424386 -0.45471630624395887 -1.4604033077809364 1.0120913624014245
Ni 8.838065234856838 2.236052684618065 8.178714341810455 -0.6129319674871638 -0.27766937122686375 -0.4112253249398596
Ni 2.9010593469747366 6.701351527887064 4.728727733859296 0.5409804168495264 -0.3410414077256062 -0.8565954140822281
Ni 2.7626872117469383 1.7399023184539832 12.37844432272509 -0.3624319575862403 0.6744188711480514 -0.29778671080202906
P 1.7887368734261602 3.1998386108279266 7.684450744644462 1.5378768166780676 -0.6277075831344415 1.4082726485239683
Ni 2.3948988499549944 4.941973469799129 6.568663295610217 0.8743187995039201 0.5426452061464591 -1.0410730943457556
P 0.5726575331082273 6.012712607372512 5.594388966653404 -0.37156683000797297 0.5998396530795799 -0.21374583310002546
Ni 7.356511416011286 8.640303891723832 13.262953279690581 -0.74942000724529 0.4831267390658518 -1.1967389925839134
P 5.4607305775420425 7.018680843842675 12.553032621318799 -0.38072124281373143 0.17388679212155858 0.11442051843512552
P 7.909155947702556 8.298761494061145 2.853579744438417 -0.6429629666316152 0.4092080373995146 1.5170706785659938
P 1.9732663300790647 0.7295969636375642 5.137649293375807 0.5103331242773147 -0.4143600139140993 -0.35282760172725686
Ni 8.59166899484669 5.981838205585605 2.9319609748655124 1.0481775666010205 1.1372295243643704 -0.5079872497529574
Ni 5.8272574631880785 3.5968587328067105 5.042398768991774 -1.9210763458289626 -1.1830226714390852 -0.5610275653083886
Ni 1.624182301644797 4.624544324795999 4.027944155945792 -0.19863520271083213 0.8307648261723692 0.47779195711649974
Ni 6.873801669790299 4.801504924573455 6.610105055845294 2.198800738663478 -0.0005494447455667958 1.8084980228088985
Ni 5.774647555146132 0.9053913786326501 2.1049390286816148 0.5821779741337586 -1.077087050546519 -0.8868033051241759
Ni 4.8926216188534495 8.808388781640145 8.61270025254833 -0.015950609791985433 -0.24402571503048942 -1.2093517962519174
Ni 6.428682097643789 7.205996438458125 1.442729394729036 1.2871315235355574 -0.3595379238678969 0.9701181032934325
Ni 3.5092542059257537 8.559433287866357 12.184463777882623 -0.18815410067385013 -1.8829558848081571 1.538073763180222
Ni 3.990938435567693 7.05065336515228 7.033942890134575 0.9412551563151532 -1.3146559542080714 1.198931629359858
Ni 5.521744276311406 8.00898499522048 3.434021220642655 0.5703946083455854 -0.18350143239318717 0.9205410636962533
Ni 0.6043795742622412 0.7631794552225939 13.094183199493573 0.2451929958657132 -0.5821545770949909 -2.1064354002561783
Ni 7.6962024386109125 5.841759901182045 13.093718540654217 -0.7696826141490679 0.8298266306288159 0.520291263931291
Ni 5.389870104540229 1.1381237446479817 6.811271477035458 -0.5852283309243081 1.379087799429896 -0.8209954054904312
Ni 5.535021539631289 5.126856865802324 0.8449911747371238 -0.15209129351302195 2.163693096327067 0.3648523941022748
Ni 4.22469268801489 8.724505155621221 5.43414610218802 -1.45088482676754 0.0016869007841196755 -0.6515478800871489
Ni 3.7963625465873028 0.8160634393768164 10.400700206096447 0.5344765542927375 1.4581348234617337 -1.213229791150085
Ni 7.890052298154808 3.4570254633379673 10.185360782769125 0.3371508144219484 -1.688727552915769 0.10520877002887043
Ni 1.8446955922439348 6.624746346968991 2.4064436255320443 0.24052798628987607 0.2409951557342817 -1.087004309660231
Ni 0.45547002930052777 8.451744971698385 8.493036080825389 0.485508609034467 2.767559868288169 1.3796830098117336
Ni 7.342108807064837 1.5428942308613385 12.122087866383039 0.1723058207876839 0.41382471023591955 -1.8117941770616668
Ni 7.421227864906769 6.847228992414618 4.8390805780592006 0.31432378922510384 0.3677891081330956 -0.021970333623504097
Ni 8.65432533521612 3.3485385147898525 12.768916566723492 -0.09990458420713762 -0.7164358390097856 -0.3485197183805223
Ni 3.3232999165037302 5.438259966482554 8.823629954585746 -0.342354727220391 0.45009680519407647 1.252172233851553
Ni 0.001318650964032213 7.811695571221194 1.1138199092613454 0.7088914510036243 -1.0044004215150704 0.4152079637366914
Ni 8.088448917044747 7.0703287628812665 7.092147762521502 -0.6513627606595362 0.4152205621421816 -0.5520778123142686
P 5.00930362466599 2.4665851814408195 11.385680746631161 -0.08536448160943363 -0.2165118258809368 -0.11646994476498652
Ni 5.2981181345033 5.782071206134284 5.386487714902962 -1.1263190480994536 2.6410963026455807 -0.5289314561047923
P 6.244198017830666 2.914545343757613 7.6446688692085685 0.5837872276024075 0.7235868482322699 0.008487468645720867
Ni 0.9334560465003254 8.001552268864373 3.94977528912887 -0.7828453767832712 0.024295639322571057 1.1571167502066007
P 8.432668548254505 1.0547664899705154 10.044856843608422 0.2753903453846999 -0.9245959504919175 0.8460492631352654
P 2.086064078406362 8.34738731557033 0.8103414198804479 1.176727582458993 0.1599025620273246 -0.10511518187379962
P 1.7257175183384816 2.998928115014127 0.5995569237303298 -0.038549321028107805 -0.3380144479738243 0.27993939820796304
Ni 0.1564085215039007 3.0055622089900904 2.9902856421094612 0.15026246783439928 1.7178761494552675 -1.8750145184738933
Ni 4.292703495478464 5.199958954689313 11.563469927503013 -0.443117802773082 1.2068850798789794 -0.2634619693782302
Ni 1.9640639069715031 7.692318181125669 6.578917553863899 -1.8715345303450932 1.8245869579509608 -0.8996115126324377
Ni 1.1618195303815544 1.1029839199216727 1.987452945268157 1.220814288365562 -0.6405612991686581 -0.21967711098279588
Ni 4.529525222294849 3.3728241994405765 2.7708414298555613 1.6380860766098175 0.13511352800810278 -0.27678465462906526
Ni 6.928190349951655 0.2519476425889407 5.06529864495559 0.005617346186777422 -0.725648358746989 -0.7553667117470282
Ni 3.2588648040148884 3.3549094230950876 10.422218811057334 0.21606805347529884 0.44552924042805203 0.43862762821221235
Ni 1.7227135715449877 4.28668652652352 12.017964354748253 0.3365229510299624 0.31232732762036536 0.3972637205534449
Ni 3.256713941809275 8.763193449218395 3.1429705401409436 -0.955841281659444 -0.3190587328069279 0.5253306261274113
Ni 8.085508497826947 1.5371585983130358 1.229007201971504 -1.1473606992611014 -0.2244125687852522 0.939929495525194
Ni 6.31707322251875 4.020161120386576 12.156277500084336 0.4706376054599056 -0.4306101572243745 -1.3453323002460056
Ni 8.300140949990483 4.364516882115677 4.618162526049217 -0.8211195897731214 0.389582035638471 0.8821868893980871
Ni 8.995541019632384 7.483276155623137 11.808655513427809 -0.21470305480697216 -0.2562345983918555 -0.27230296470862786
Ni 6.888358559992004 2.4362462263633273 3.382404157855115 1.0919675672027775 0.7889550892254348 -0.43687799251095727
Ni 6.38632735539232 1.4714529343103298 9.362669602173915 -0.6437178425197688 1.2182359861154244 1.2453724373209003
Ni 7.889208288934884 5.57673193075787 8.977151601542788 1.422452796679092 -2.359517054841349 -0.6540822164732284
Ni 1.0682978635931721 4.414322501459164 9.645857383878397 0.021535302968614525 0.022501523536625764 -0.5824931913813323
Ni 2.5109002031708214 2.3313531235258576 3.4927043649208733 0.30023542945283777 -0.09050231705663123 1.1082791598786075
Ni 0.3796662033729857 4.901306745987509 0.8985412908993293 2.9241392794795313 0.9770299999219173 1.3692702991188417
Ni 4.39262329667595 7.408213787257614 10.257685112622271 -1.2345995150751126 -1.8528294977364221 0.26088546690030556
Ni 7.621847948945971 2.297792412823923 5.863323882982713 0.24656416518162697 0.7179787580168732 0.9854585903052449
Ni 7.69580312242084 7.6821991458545344 9.529964935078043 -0.8270722078121304 2.2258662274217023 0.6203943373024801
Ni 5.210568059830082 0.9754931508733276 13.069929278630697 -0.3483826785820258 0.6981367835902815 -0.47722477175912004
Ni 6.097467468715229 8.694429386214457 11.110303226589762 0.3706558881579294 -2.0311714974158565e-05 0.27717983318495487
Ni 0.9306154563300426 6.377043253973153 8.154645558453883 1.3704357801818527 -2.3019755089814553 0.8863237943845961
P 2.620394517562072 8.011253837209523 8.757336206739481 0.5217683626974498 -0.6449897672536569 0.8737829816051081
Ni 1.6322684544937487 8.907210463314934 10.87530564873257 -0.7544141180257717 -0.007153837435961874 -0.7971227126378917
P 8.524847060585374 5.122673121174528 11.273773291900364 2.4842710939919987 0.4138380799723583 -0.037902431472728274
Ni 8.984768557868405 1.0623081207420968 3.973392119161224 -1.1637802782697055 -1.2715349546488812 0.6045144328474299
P 7.645325925848596 4.3969794732949135 1.8083886751984615 -1.0748093102559362 -1.1430183631320057 0.2751854284627454
P 3.7818691839612915 4.668142392457464 4.36203113883248 0.024313122824067807 -0.5094031562638776 -0.41799555378415754
P 5.918083745693477 7.964207129724713 6.505384384998992 1.1894661130715836 -0.8117265785939956 0.6381984553634363
Ni 4.182038458620868 6.200218784715042 2.585812827965068 -0.14096407325160884 0.4417594889729746 0.5311289779767433
