# total energy = -381164.5496199017 ev
CRYSTAL
PRIMVEC
9.32814407015070 0.00000000000000 0.00000000000000

0.00000000000000 9.32814407015070 0.00000000000000

0.00000000000000 0.00000000000000 13.65268174991764

PRIMCOORD
 96 1
Ni 8.86199824141093 0.9803319935652848 10.991228325141877 -1.6057305430972475 1.2374125590438754 1.4493005129995555
Ni 7.048112604316993 1.4423176665182058 6.873511198376055 0.2740978518255215 1.35213132544571 -0.17634939472943822
Ni 6.000440737290351 4.2141943916586655 13.365716776376363 1.4671449973801443 -0.3611584901904554 -0.11787736663547439
Ni 4.557665991703077 0.5507140484034095 10.897844272887875 -0.8280407423729867 0.6465707385875317 1.0215285965549246
Ni 8.135027974273669 5.920293321750806 5.330007419739173 1.1642225080134467 0.3915890387661708 2.2685820211226733
Ni 7.9454800827741865 2.720683869404773 4.340214822258595 0.8330765050246814 -0.48037771556580494 -0.8568466108610856
Ni 0.45380209198773924 2.6470848111404566 6.233486698319914 -1.1869819131971493 0.29717967334564943 -2.5279981025663045
Ni 1.273403630136679 2.778425082415688 11.21317939138062 -0.35193645737155516 0.08213594736980692 -0.2803158077107753
Ni 4.400272213490933 0.38531299115272455 0.0292922386263127 -1.9581143724188665 0.43731482293805973 -0.811725293042415
Ni 1.8564686156714545 2.1080300102560035 4.023022470242349 0.7513352219901318 0.5077100848321707 0.7745286293874597
Ni 2.48448592842749 3.0046419090275944 13.345456047029074 0.49907606330625665 1.1232046708401884 -0.8008333287202595
Ni 5.370333920218574 1.7978319008109354 1.683661944687431 0.28301520891980936 0.00783440844275425 0.980046675261054
Ni 7.042217217140434 3.955664873306887 5.960283076222178 -1.2777997046116703 0.11562559448682022 -0.3727222837686549
Ni 4.164550007871252 5.047542816013451 6.780263337028347 0.5555279756463981 0.42741376177426393 0.4391680740967146
Ni 6.0619971613063495 8.121045086017876 10.788240443382925 0.5260806169195584 -1.0298998513377553 0.6131325135337441
Ni 3.853223192969913 3.5746288363004473 11.417369670935551 -0.8041852759116279 -0.4478895131301125 -1.2505380406822397
Ni 6.148161229897919 6.837632357083019 13.12077370014904 -1.5209175631159095 -0.8243429818064255 -1.1450911865006344
Ni 6.510205165177345 8.962257135989494 0.3509704952204168 0.1346764404706842 1.1353744734335025 -0.5345097215235182
Ni 4.367045363612923 5.499164920686061 3.6036664165882786 0.22816766495231025 0.38472727864933093 -0.4670339472690473
Ni 0.9270766851322289 6.351216274295593 9.10491897596123 -0.6251598770119233 0.3852813513805881 2.4049268504347165
Ni 6.638299242247762 6.4968752470202205 1.7298633104260028 -3.256415025197366 -2.3964092998820083 1.8870879046986595
Ni 8.524683216582545 7.200263965451247 7.688070874548838 -0.07630288562779762 -0.9561277025516113 0.17588453927787773
Ni 6.303409534928722 8.509310434831013 8.346430774975618 -0.7896176625100981 -0.1303222772670465 4.04122935278155
Ni 8.260174357755808 6.990996376971947 3.3843225666720818 1.1806665125020828 1.16899601814269 -1.3939852853670187
P 0.8409713838495384 7.80531538702265 2.03367630512051 -0.7115833960134906 -2.9529191798257015 1.218113087384315
Ni 3.3062674538915586 1.9439199681718307 9.323621049551877 -2.118477419022377 1.559179949031218 0.7306782078614126
P 7.9343049659426725 0.9331315835757482 1.7563085994221168 0.10455108184021349 2.8074063108611456 -1.072335909014779
Ni 8.594075281782576 8.212181055503601 9.955891063279104 -0.2654419759227364 -0.56331738978383 0.6100160793919494
P 3.70157555162606 1.207705510066263 3.2656126027339707 0.6597317014495219 -0.3752681901189602 0.24788751197874082
P 3.080610315935655 6.19472732607732 5.024351183737564 -1.555608943850508 0.4810747416328296 1.428024891450231
P 2.9295503476806046 3.8942576995991556 1.8444091907634557 -0.11358979500371406 0.21599889080026025 -0.11685046803285683
Ni 1.129414395235793 4.76689626760531 4.90409834473774 0.014430059382400953 -0.9239053521827959 1.3243495273467514
Ni 0.9128867120737145 4.2842021143803 0.9610152724177882 -0.4004829988216909 0.5536497847870787 -0.5098757250249218
Ni 0.699489554127543 2.0219685512513665 8.273812104673732 0.6153570319888886 1.1425293393107292 3.1213130671534888
Ni 3.471161060094135 3.787338510014162 5.114007709542591 -0.5621010008782255 -1.421244635303604 -1.3719882122706373
Ni 2.887555042191891 8.473611626722326 5.112505878315651 0.25523289660021853 0.2521228902163271 1.3023511686987892
Ni 1.505786360108879 0.22226822314380967 10.249709884206261 0.6084613333103198 0.9025914211963681 -2.4531977696259624
Ni 6.14739632206805 6.3262075195165535 7.171863497416831 1.5088747730187626 -1.224536988632788 0.5741111379652242
Ni 1.6903903351470064 5.485247329440134 7.28548029458532 0.4444030972434088 -0.4433515160504429 -2.729221891939919
Ni 1.4184282890511697 5.9137636207641116 2.993950922883522 1.0115192919480387 0.5527509271218932 -1.4757193693127164
Ni 4.200715223193274 7.532327245057475 7.0014093844168706 -0.3784805264086708 0.5158643385081889 -0.9940041658824106
Ni 5.10051734730408 4.249548058429484 1.9375199283904432 0.49714876437655675 -0.7567329959669354 -0.8295438092810746
Ni 0.7486871198045814 5.226111481711019 11.241358782395913 1.0010857553195402 -0.3646618753580236 0.4149955906155692
Ni 8.247945160622155 7.3064835442162375 0.6405767261967295 3.59536921137664 1.4116803886539364 -0.3944475912608884
Ni 0.5329178147713863 0.23959618393364424 4.580215847653414 0.06465990207223057 0.9895792973418376 -0.1363754254396619
Ni 2.046613508404006 0.7417665695731116 6.659833263287456 0.010331978053627367 0.8483925665564616 0.30933739175410596
Ni 8.849694419123145 4.07663224815754 9.622833403494043 0.6953759330156928 -1.9961805831629689 0.5916740865496519
Ni 0.8740629756356808 7.28630676816735 4.881216406851509 1.1212053810219722 -1.7153577539087879 -0.09743683939293542
Ni 2.0384886947477043 8.53240692003538 0.5038942266999548 1.6722627224915263 -0.1381649132399169 -0.46715247512478253
Ni 5.57865003798267 1.4532502515987862 8.98590864577773 -1.05324289693907 0.7990314996248303 -0.5562522554069323
Ni 8.403510622558024 3.494621342924903 12.43740224649994 0.9986982289239702 1.5921718305762065 -0.6364429061249103
Ni 8.84448931462232 4.756103604688731 7.32336655252455 -0.2829869267850352 -0.25771323981991096 0.3419682904152498
Ni 0.2309853739610472 1.748280798466189 0.02753668187531848 0.06469641173712085 0.3303651589586826 -0.6109445047434897
Ni 4.464067392130941 3.9863917805214184 9.218113208194435 1.816393880617207 -0.07422543427347861 -0.9457311898086357
Ni 2.510847264125203 1.6776760745114851 1.516294514625324 1.3132554743161189 0.22193993887504357 0.28203818971852074
Ni 3.3943437920578043 6.035048152519833 1.2147258714413864 -0.18776560698617986 0.7663831174621898 1.8665015959068758
P 7.556197966235978 1.3558457691658339 9.225335990300147 2.1712567676069376 0.44952190652721286 0.26791434872262887
Ni 8.91156800004421 0.17900895410695689 7.960210155385743 -0.0841743179560744 -0.6314683357284543 -0.5594741047783397
P 4.74205541942307 2.1632712806034413 12.55824182577414 1.3746359343061294 -0.4754710222928069 0.5927187257640825
Ni 7.6933963121107025 5.917942629395596 9.490006226022698 -0.7737498422399061 0.8326219339857659 -0.10163622218626367
P 8.059983053648013 5.13796051839064 0.3059883179375032 0.20648040978686374 -0.41300324277588873 -0.2422575673864731
P 6.931109690779689 5.180571481400957 3.802531258581348 -1.0739999269807634 -1.0559713516138265 -1.255537293669044
P 7.757014256009642 8.59010149232496 12.389494763174987 1.1561546434036476 -0.2200218959167243 -2.090348264886329
Ni 3.0595846787584975 7.9598827375219825 2.9078577481883783 0.26126033374122104 -0.018121392191059113 -1.1010366193835812
Ni 3.580300348014605 5.911534194284369 10.953014649338886 -0.33172398697942224 0.2192125126415515 -0.4532937148648194
Ni 8.347513772524982 6.500121441225034 12.057761699875801 -0.5042416666675962 -0.6894683092820061 -0.799044869361269
Ni 5.318711969846618 1.9632665393809805 4.61567119119674 0.5158203726441309 1.481046952173217 -0.14720131241057227
Ni 0.7035351702960136 0.47859443381979255 1.9305163576749997 -0.8318824847165802 -0.818301660708352 1.2625402073494387
Ni 5.902038143420861 6.886054753971496 4.72117903255418 0.11351934677709483 0.30628369252944665 0.29016544681134543
Ni 6.95631433658833 2.0097113696849136 13.335980518082954 -0.6602976012553209 -1.5995542390832065 0.05832907475819633
Ni 6.679156514135938 2.874019904860899 10.811517894586066 0.024192795196119624 -1.0190706219327352 -0.21702244696876816
Ni 3.8170579776478903 0.023227079224099938 8.505975623255665 -1.3504269411600935 -2.6955957192450417 0.8868886657491307
Ni 7.489343156276491 3.3892692815767163 1.6526841103921242 -1.112814585855116 -0.9504951868561824 -0.6208887604403952
Ni 6.011102806187197 5.056413881211089 11.054658773341057 -0.2877190421533819 1.0153610342916322 0.027788225856861824
Ni 6.825431144382168 3.5789011263745985 8.190462337207428 -0.3014749582868937 -0.1351191844350576 1.243912307835606
Ni 6.633084809602673 8.563040545807244 6.355541734792066 0.5576100549864074 -1.4887504914650618 -3.322995284220761
Ni 1.786684768412221 7.93620790737308 7.556364007203926 -0.18909743842372595 0.019481762873695484 -0.14816239077226095
Ni 3.3755195969275906 5.994442740526859 8.710137918377796 0.346669552545661 2.3295673025567942 -0.009397382054499945
Ni 7.355577567491915 0.43963543928989157 4.602236797823829 0.5007179697850538 0.22210063282262393 -0.7270547521762123
Ni 2.2060314939220254 4.1418173202932875 9.47467448810594 -1.7017630459434885 -0.1373403604560925 0.29410180575127415
Ni 0.30843788862194044 2.5636912013960975 2.437508461085928 -0.7413575419521298 -0.6686161484233453 0.03322250949855569
Ni 1.8496870547895585 6.2358457860049645 13.190592994356487 -0.5800637560042333 -0.41106385966133074 -0.6341101442266757
Ni 0.962664488324142 8.178748986451723 12.110939584711442 -1.444498720735538 -0.40967752083676545 -0.5561923487032743
Ni 4.099877983670174 5.237482489572136 12.971849876931065 -0.09413631426479271 0.3050331079517973 0.2667504103215148
Ni 2.3898705611302824 3.2467632216142364 7.245723743720616 1.447159812507469 -0.41639684183847 -0.06992115047116991
Ni 3.470433464841332 7.931926289154662 12.18817288798207 1.0725595949898108 0.038322035508650126 1.6464375338983064
Ni 4.728669532400345 0.7272221270324624 6.632868396655685 -0.28962757203000444 0.7349218136291149 -0.9745152039198638
Ni 8.883928708581957 4.520810493705318 2.9455117353353666 -0.46126490599575404 2.6537109060857973 1.7184281653039954
P 5.080778994035728 2.9971047684600953 6.6218649176786775 0.17969414283195503 -0.22725569466100218 0.19679737817114493
Ni 2.1667040376935893 0.8777224066315098 12.33649504589484 0.8680471075625953 0.11947684991211037 0.7399979426004417
P 2.654407404389821 7.850491589706311 10.31356383015515 -0.276104340732589 -1.0141739559620664 -1.7111097772657111
Ni 6.860448997959385 8.744351685919224 2.5137044747140953 -1.3384024058953918 -0.7683759795225025 2.322451774557936
P 8.859880752662388 8.334342432820392 6.018292939787974 -1.083628965430095 1.2880612344386784 -0.44669883525612103
P 5.490461762085223 6.425440318225779 9.35618280274367 0.31657710403565475 0.04634362026154599 -0.160089224116834
P 4.614586328018522 7.896162184036108 1.1386511236886858 0.055310342536530555 -0.9854125675586577 0.40038941066662015
Ni 5.004381492491399 9.059997431616049 4.199264696759801 0.2856151084365017 -0.6214472040470265 -0.18627308160105338
