# total energy = -340896.85206089634 ev
CRYSTAL
PRIMVEC
9.00469890490940 0.00000000000000 0.00000000000000
0.00000000000000 9.00469890490940 0.00000000000000
0.00000000000000 0.00000000000000 13.17928705625507
PRIMCOORD
 96 1
Ni 6.385736314034493 1.92289043554291 11.31458977256402 0.021043965154492788 0.30428774514534046 0.12488156586744946
Ni 4.59061355240231 0.26345498057953987 5.996444267006801 0.07359757088149262 0.37787606005545243 -0.20022568712640354
Ni 2.7113778975429725 1.5445309935539804 4.9328227298425045 0.6138171983055946 -0.5832748067423632 -0.782979331257974
Ni 3.466827118963822 4.202456997916737 4.749063837637543 0.021171748981608698 -0.012762184761674795 0.4613440959731216
Ni 4.916088397247135 4.331557367277376 2.641023283896352 0.7953933886516108 0.7858311988844724 -0.22470258922184527
Ni 7.390633706762338 6.072913071264837 2.4831754130232753 -0.27630822921327897 -0.6564810557227081 0.08711797396543061
Ni 4.914602621914464 4.300527174572014 11.352532872680845 0.5435952287645541 0.9712308767416371 0.4741011385284738
Ni 5.446807346077245 7.849468143588125 12.413847405964958 0.6302352346523017 -0.24453762166990142 0.03687604709074294
Ni 1.9073033015983425 6.434199603976528 0.4507121983405182 -0.586765336394125 -0.22788432938393655 -1.9220502797064576
Ni 2.780948201907923 1.5583171877013706 0.5040326229155395 0.2946671913364409 -0.05812261517434507 -0.45959548871313105
Ni 0.4239601381233515 -0.19939104964445875 4.810624462254547 0.6010046199219585 0.9637643931612626 -0.7030817863003828
Ni 8.494537764839992 2.368731091732064 1.3961875824605054 0.8771146170815023 0.5309415445562856 0.26698309515761115
Ni 6.929413024705291 0.47136357499474757 4.7583422794726 -0.4760785739698188 1.2230084678034034 -0.258982850560954
Ni 0.8922053858592869 7.200778633343932 2.3294129740800944 -0.7828196657516583 0.5181780742430301 1.4922227662843786
Ni 7.428966710345252 3.864303536899786 3.847719582777481 1.6502088280152805 -0.8412089043238288 -0.6752233693272177
Ni 7.280704341542649 3.784584936777743 12.587036582500286 1.1590522766664166 -0.147070700369979 0.3123522673210298
Ni 7.7368823921676 8.909888510262938 6.976494993822892 0.9341771664224492 -0.8427034865914841 -0.12748712181109656
Ni 6.951798706384203 0.6594204100256724 0.3602113716527763 -0.45642968939063977 0.04941171766390845 0.014349840963768833
Ni 1.8388135611116987 6.55046827728228 9.126405596908652 0.3051138405910616 0.0745211111370265 0.2045407695619897
Ni 9.043059003565196 4.8097699163207865 1.2662767901911378 0.528820898668857 -0.16484627918584513 0.4808484845546364
Ni 6.314869333015576 1.9910289927691043 6.804610598170616 0.7103839763887507 0.05925364345499473 1.9745064406236448
Ni 3.311730183630933 4.408250388540161 0.4706549051845584 -0.6842885648532796 0.252268671765572 -0.013448412195422
Ni 6.004108166313688 5.5410055021685904 4.607861152839875 -0.7193959500793738 0.5868290997525248 0.6809708133339563
Ni 5.18750803407969 2.911336243223542 9.293809254345552 0.5543344695589293 -0.9760121001803643 -0.6969972706691996
P 0.22402160278055086 5.592242239398279 12.34592135963483 -0.026691393248257256 0.25768264369229166 -0.141728205111143
P 4.012935098360809 6.067789397541868 12.442394102690011 0.20492129282986 0.3270751753535012 0.34146666818848287
P 2.4711505379975236 8.483434970990395 1.4097882798087866 -0.9543497847155823 0.4990909757045921 0.8743830770829522
P 6.291060908896895 7.7163066549848525 5.78544345895984 -0.5297979178701456 -0.485294436141132 0.018496516142290725
P 4.8579000324003445 1.0043661154876773 12.639173789628563 -0.360853557355527 0.7778214412061185 0.12702303769048448
P 3.941797976372315 6.161015046142739 8.163540338107122 -0.86669265041723 0.24633173745584672 0.5111345371326874
P 4.705207351696687 1.0340816221410989 3.625767259823886 0.2050529333117178 -0.8028467596058625 0.8461068558460783
P 0.23910717499160455 5.444051908187563 3.5974051594280434 0.6906294194696428 0.21448116860415323 -0.5824330275673582
Ni 1.5373092249673004 1.2046486303317387 2.757133474499952 -0.6297477534929219 -1.2582109838464655 -0.751307711186306
Ni 1.950282729857973 6.437639398989137 4.807856417786287 -0.21834116578019175 -0.38975404243996103 -0.658228377431118
Ni 5.986702083173972 5.579302486955561 9.139717243419486 -0.23717963864293348 0.38348337893990087 0.7455432978987031
Ni 8.561964950846301 2.3896129886803323 10.115656424678622 0.6563216473267084 -0.06264415719378243 0.2081220591553448
Ni 2.301114807047051 5.103359122056593 6.894111903270926 0.5208440511109674 0.941770662498991 0.27590070936221517
Ni 0.634562938475136 9.034144351569172 9.119130700597955 -0.06950180354556416 0.3928555641834202 0.0826491395607996
Ni 1.3610332376196093 1.078276684763824 11.483837592353227 -0.004821075537727181 0.5132428417249418 -0.38920845434913615
Ni 3.9691092283965053 6.858708128268121 1.4183679570025383 1.208127694036829 -0.56923606926111 0.8799801115547554
Ni 5.643956225674218 7.676830054630731 8.00382039031488 -0.41112325214435647 1.0808912547839578 0.05101505759528633
Ni 5.335572299504602 2.6462739238750217 4.914517077274098 -0.912372668952848 0.5353910956872069 -1.4431023546086437
Ni 0.6485427336507229 7.4263823617363025 6.7477288151466785 0.17364639397597836 -0.42318224019141953 0.7387797539226244
Ni 5.133867042220772 4.912711635127428 6.970695967675981 0.17334814600926918 -1.8180542990387658 -0.5823849479382421
Ni 8.197868952051014 7.230160966134876 9.281144145221903 -0.6434447913640402 -0.34555189400145003 -0.25133047622201876
Ni 4.634367384774728 0.3988163171450638 10.422088132108097 -0.2688972814611885 -0.5330930436816497 -0.14730158543386243
Ni 7.991112058636101 7.005592778125882 4.5509001284648605 0.38182707428340046 0.3241225204830805 0.6328449043610068
Ni 7.278849373551558 6.1303000179018845 6.865472458146317 0.6824785082277343 -0.6963493526725556 0.7476955683550155
Ni 2.3931878541777283 5.162790135363435 2.683645225606243 -0.6640421558994176 -0.42438603069153363 -0.5626825844133084
Ni 2.292830483980037 5.218376142203305 11.271690486125364 0.030609240245424704 1.1264589161114278 1.1605309180944723
Ni 1.0780605719881629 3.277692421464286 3.87076981124155 -0.17409839391173243 0.9687412775505638 -0.8828862294579569
Ni 3.4794787210389906 2.565997032415854 2.643685973386478 0.9116504460748429 0.17123804164480189 0.7252840334290348
Ni 1.1178253227098325 3.5048629674802014 8.187342458936513 -0.6836046514123775 -0.7889926273315896 -0.4316234289802373
Ni 3.7439107114584993 2.9354598318067286 7.108432743833982 -0.23693486962197902 -0.9038384062295918 -0.1520046473364866
Ni 4.191957518899195 6.798367640363702 5.890996540472387 -0.29578742098381317 0.5788604797247514 -0.14406148123000995
Ni 0.770545599270686 7.5613087713408085 11.424043689677253 0.5231991816067054 -0.9436485962479942 -0.09541003877089374
P 0.186680016555983 5.69249155320814 7.993238068066669 -0.15461457415550792 -0.898862293171239 -0.2013441170015629
P 8.579271982297172 1.6866791717451661 7.9405209583237015 -0.17661833212010875 0.3298493956645287 0.2109531008462367
P 1.7888194723420634 3.39581606276113 10.255726318343866 -0.5538624150185171 -2.049563883880116 0.9249556478241813
P 4.0745002253273075 6.114010517436418 3.7142393278301085 -0.6025758210638203 -0.07417452643088515 -0.24616204464720184
P 6.857132305945591 3.9627248968155127 10.321543464171498 -0.2030670132299406 0.03658576954383377 1.3576627967869004
P 6.303343318313643 7.771433422176442 10.237762844336922 0.10151795144084452 -0.22436423204582007 0.19662305737680977
P 2.408693945831423 8.364419864493948 5.690209762485117 0.12115475183516553 0.5418095976190411 0.7356473789412298
P 6.868036996417497 3.9752234190079214 1.6867908300125911 -0.45275326898031704 -0.07806152019011717 -0.9749006122837404
Ni 5.058056481458603 3.0876122305712332 0.38508415119158873 1.5950185559963819 -1.829635576118462 0.30567871195559615
Ni 1.4871260375189612 0.9193437476629481 7.010695741041182 -0.17968051598520024 0.9410525533860439 -0.3354487441291771
Ni 6.867847897738794 0.783192698996362 8.990988431209415 -0.8213615305805985 -0.20477242595682155 1.2332039202791665
Ni 2.7161774021024496 1.5484300282148686 9.088094204603303 0.07326101347768028 0.005266390605261898 0.6987137391396742
Ni 6.517078853442617 1.8846744930468127 2.6262366676916296 -0.789617405399782 0.19009914021536292 -0.07135993980022548
Ni 4.113562609528078 6.866380131804094 10.364336495162123 0.05335578991332102 0.3220998336260969 -0.28238477442466203
Ni 8.243081545659145 7.236455250726009 0.24004456415603523 0.34386396477606584 0.07684744527735797 -0.10943283541254703
Ni 7.592546072122845 3.8926953528022823 8.368597144353501 0.4458578274120644 -0.28677416174160936 -2.4028853945246555
Ni 3.0019955526134354 8.45992370193825 12.480508292087567 0.7059927892995906 -0.5163428208065043 -0.7733148115850166
Ni 0.07468857526852724 4.875225073249188 10.199081358903255 -0.1494271164172975 0.13869070383639986 -0.2012250749251954
Ni 8.79746484342416 2.2856447341893 5.711415828596877 -1.1111068591353896 -0.04613381824358506 1.0924175102560025
Ni 3.472283966549268 2.4223360647950396 11.490546093097711 -0.1798070142607355 0.36548565681089956 -0.36330021912380656
Ni 0.9979907886056705 3.5069970811398563 12.528506939561929 0.2689528172894723 -0.5724746308030657 -0.1774318291603396
Ni 3.104649121052528 8.245791960053895 7.837972744862744 0.3797853612630233 0.2500109860796469 0.508594287209337
Ni 5.622930253542176 7.74826433168576 3.5133868155402403 -0.09144102682081671 0.26008713936872624 -0.1390660848979476
Ni 3.1793430991404468 8.285646757765424 3.6092004146296546 0.10322644949151899 0.10499588268711596 -0.32359467300406847
Ni 3.4157524663158805 4.327217102366179 9.352773824244924 0.4253396528540546 0.9215031704992065 -1.485473363375687
Ni 7.208009406629597 5.970718742474024 11.427614953295055 -0.3486295044855093 0.5452057677847836 -0.4186820383282208
Ni 0.5330160475414086 9.263674128719385 0.6305072220518932 0.19642148288896494 -0.3259456897347483 -0.6119258948201526
Ni 4.700614955213886 0.14190685225836402 1.5743977791503647 0.182153403005725 0.6464264997001834 -0.4199431644288316
Ni 6.029960657102164 5.671267477698408 0.4482539155173714 -0.6210211722532014 -0.07553155467941186 -0.15165266331370655
Ni 7.955165300284446 8.970165965274454 11.305178961653871 -0.5348802174890595 -0.047820976138020874 -0.35085248027875704
Ni 9.117617911168328 4.8583052438547085 5.69333349256332 -0.45364004246064454 -0.3969384760035422 0.6312546770557516
Ni 7.9112133645343405 8.730163723203653 2.5817300424839926 1.2286188720116453 0.29677678148027603 0.44295068106759844
P 8.57811938082698 1.5669616987278208 3.6807508523016006 -0.6847696182547561 -0.08296178570521195 -0.7282724266333973
P 1.7925384130232338 3.1797573152937977 1.5319208130941464 -1.600800709895798 0.5898223780528938 9.333104475467797e-05
P 4.698904062406567 0.9785856622910876 8.224217601753613 0.38111847825215006 0.521584785931734 -1.1791508471885048
P 8.52614425828045 1.8650622586555543 12.387647333795625 -0.8616093223570517 -1.2366283725796832 0.15139581010789407
P 6.522994940676344 7.708787731331638 1.3969385743559284 -2.172194448929859 -0.1303976105896722 -0.8207228685553348
P 1.7800939190247405 3.153823782214448 5.952978585001932 0.9847517940462072 0.7571382018251541 0.9980965907842294
P 6.860752194937916 3.9678125517425373 5.910344036713461 0.4617253905719403 0.0446574908083747 1.36441631346065
P 2.425433681246184 8.482930707847185 10.26164330604749 0.185340542484455 0.35443325565147993 -0.3817139457443039
