# total energy = -340895.01438879536 ev
CRYSTAL
PRIMVEC
9.04239363493625 0.00000000000000 0.00000000000000

0.00000000000000 9.04239363493625 0.00000000000000

0.00000000000000 0.00000000000000 13.23445710388958

PRIMCOORD
 96 1
Ni 6.340779394771114 2.00938256251497 11.271667916230479 0.7142411453513119 0.2048816978411762 0.212371321350002
Ni 4.628620301236457 0.42673766874316654 5.89364751209615 0.020357480610429454 -0.7291499441423442 0.10352752567170558
Ni 2.593692977545053 1.3268084590939826 4.901222237400021 0.6736876494089817 0.37826943883912917 -2.077296059688061
Ni 3.7969371316917893 4.352565075057571 5.030523036680127 -0.37158277084757296 -0.353209667657024 -0.1802890961034766
Ni 5.194240089239393 4.990623476081538 2.661250506642884 -0.32218313736852255 -1.0293704611968466 -0.5140146868939599
Ni 7.484036311521581 6.093867802316706 2.6484790302940002 -0.3994478726889572 0.6739056789570587 -0.39263702041471094
Ni 5.219830062382511 4.541216527243037 11.519072319121742 0.25994907112896526 0.2415199178895002 -0.7050077996785019
Ni 5.769291093492601 7.61195905005716 12.3585735419454 -0.7106482857937308 0.829174598867114 0.090431868830012
Ni 1.863456418845841 6.380620179813015 0.376301007189215 0.3642929220543791 0.07959184079171454 0.5305867323200282
Ni 2.919752638876391 1.513307821665292 0.3118459232452368 -0.5365357508146115 0.2872904392563955 0.9032943608006637
Ni 0.46732806819268663 -0.047893940547645966 4.698258485041084 -0.08554523016167202 -0.5172607046350833 0.4484826666294211
Ni 8.576276045065875 2.3836833922980873 1.4270714206516522 0.20546019605246554 0.15241345273913104 0.2814717756920895
Ni 6.856801655321753 0.5445709047935544 4.595890454314608 -0.3258829548176129 0.12657206619599493 1.7699823832322035
Ni 0.7341962227413925 7.395276178527643 2.31143738225513 -0.027742974441223187 -0.5157033874502925 0.4385605224197027
Ni 7.414617857875039 3.8658582537048085 3.6606773064996894 0.9969367661481733 -0.2966672524856052 0.4102652750194354
Ni 7.533326397600427 3.713439671619863 12.697654249681717 0.8564704584685894 0.25721136048282794 -0.7281220170984622
Ni 7.724799076506972 8.81077243146887 6.971898663148428 0.5415483735378543 0.3414607546512119 -0.29126305075089837
Ni 6.990339720119478 0.6092855054262984 0.3534138054144639 -1.3341405452952444 -0.11128762923309865 -0.4017976038680564
Ni 1.57947101371059 6.868891335213042 9.37644014415649 1.110807839837732 -0.6984525150584874 -0.4713791116116204
Ni 9.274692421612919 4.8570311569237905 1.4036064099426802 -0.46621813623597125 -0.6453296670915789 -0.16269040918510688
Ni 6.199763270683863 1.9385354107212145 6.860530738333845 0.3356233220338284 0.7831461958531415 0.6875870330988932
Ni 3.446770449724567 4.176057557123416 0.595424420680332 0.07610465357406249 0.371321032545754 -0.8851457149160951
Ni 5.928672318446876 5.790305615607303 4.725429068539473 0.6110702316880766 -1.0620774645115645 1.2997993488112132
Ni 5.1762728536791895 2.836951443091398 9.246358986331419 0.9834266474768805 -0.2296895009134754 0.06571019771361587
P 0.20362203859385652 5.399185934217755 12.415138233463695 0.21853734095139785 0.16920481326485698 0.3988920001854872
P 3.8820170105976537 6.023264795143043 12.661259520740467 0.6021436186224081 -0.12767661211408335 -0.6934018400084574
P 2.41134407351533 8.458724931687595 1.2618687028671522 -1.2127574794993565 0.3626240189923884 0.5761405096904271
P 6.3294944878868 7.696279367922735 5.7140954203254966 -0.02659934775508322 0.5855921420216302 0.8836629597229814
P 4.8861838330416045 0.9816693478220159 12.541460468378663 -0.33407757481326333 -0.7117579739181419 -0.22365820711773096
P 3.9610565707545415 6.208046102980362 8.253496964037124 0.15038279546234748 0.7610745607650827 0.30037658301639236
P 4.52219133166243 1.0082720690188542 3.7609411722966923 0.20654725846905717 -0.6895143320285931 -0.5185174598603199
P 0.3785272444287329 5.60623865684359 3.6593670637051883 -0.7691480818018367 -0.5418499639386732 -1.4697469537793655
Ni 1.394427476466504 1.0458070437598725 2.5899304376776136 0.3919631342761378 0.25313976151661566 -0.428029798091708
Ni 1.732459266575753 6.381235062559917 5.069207299614252 2.0164467896111726 1.3446455585916262 -0.34542848104970836
Ni 6.018074461367726 5.591969760158134 9.217971296689898 0.16607603782788818 0.7722436900080248 0.6596779653934509
Ni 8.673951977889889 2.256022883169275 10.154626706242036 -0.07662273086106158 1.2005105438112034 0.19844339841500014
Ni 2.515096494661667 5.236495193302216 7.053965616594473 -1.1301931863428794 -0.06511267333893302 0.05640743225545124
Ni 0.6371351726642804 9.256698058872706 9.310598861313983 0.05838332503489946 -0.32053891689688024 -0.6022924854954466
Ni 1.6017424284991055 1.1971947930044236 11.572354621858782 -0.38423696927647377 -0.7556014534656535 -0.8063054075784243
Ni 4.124443575957014 6.836067447400492 1.4959301501506475 0.06386286009223195 0.3243873441086929 0.34205082282672705
Ni 5.619838416422124 7.973980309688915 8.170133331386582 -0.7680062548879095 -0.3655725600977511 -0.6435831167141174
Ni 5.631014814586397 2.6567365438891577 4.681067086829176 -0.7673105143724657 0.5651642131845814 -0.12126890881552664
Ni 0.7979640847917747 7.610141528996465 7.127985744210108 -0.1592685279877515 -0.15954055070221557 -0.2408293195803788
Ni 5.063333360902672 4.593680493383097 7.277508951948613 0.7283202491521973 -0.1619782136094307 -1.0742071578955628
Ni 8.236806514416076 7.349096675756652 9.110295381074726 -0.36960687806812476 -0.23794402761278377 -0.022063150447626516
Ni 4.759653623079892 0.299571778529877 10.238334854078708 -0.7851578269665316 -0.3815167421318333 0.5256224463362174
Ni 8.274739354463913 6.862769634924035 5.051009483023961 -0.17781132398694538 0.6599849551109085 -0.1284903662646303
Ni 7.260933340722943 6.1519470947189125 7.194317124771471 -0.13430825849798805 0.057516606159229974 -1.1801422645674966
Ni 2.3762324601885716 5.008789644295152 2.611224369746423 0.588766940205186 1.0613956079531914 0.7540981294472497
Ni 2.1395387722047365 5.372890654394367 11.41037823001685 0.524426112035271 -0.8937141733113962 -0.7889592029904928
Ni 0.9873027588708365 3.327365645712245 3.657474490779798 -0.4871515439545288 -0.35790244514700303 0.31672494246742877
Ni 4.157140870262849 2.7928245636078586 2.573162223473869 -1.3866689542112636 -0.02428329802739689 0.14838144876160253
Ni 1.107729353330216 3.5074629938011066 8.17188032177925 -0.3289086290178142 -0.13634431509141035 -0.15307165514842025
Ni 3.484793713705772 2.9096884550925424 7.267622903313501 -0.11714048846944987 -0.739780684383313 -0.6283948390094533
Ni 4.199341719965652 7.063718742047536 6.155107411190121 -0.5927446939060114 -0.6531959572135331 -0.4269795024503228
Ni 0.8353607109147402 7.519310687928402 11.721162576284346 -0.4974228439735498 0.30981098895641485 -0.3026838909933303
P 0.25193102499566117 5.608725315011208 7.865370314842053 0.45966310872627286 0.13291112104014527 -0.19998786008398461
P 8.499207726656406 1.7892002847641149 7.924064489991163 0.3220252716344196 -0.652180114354509 -0.24680147800341365
P 1.7473340036147738 3.2681379693562658 10.355710545026255 0.5645286364831117 0.30406431628062475 0.06232714017399588
P 3.8098677541634 6.197963834409841 3.914368885478024 -0.04718385677465422 0.0909435183591079 -0.20829689417031222
P 6.992437555373614 3.999106961915757 10.248472281248585 0.052918445265586284 -0.6787915462944504 0.5851026039797212
P 6.393605056644645 7.6622528417963895 10.196380861714 -0.6171125812274146 0.4042046706476522 0.24157391105588716
P 2.3291668028705756 8.493294001414146 5.836845005633098 0.04656833467784238 -0.6221797113376768 0.5178939673437081
P 6.926780737355177 3.9520593893844347 1.5655167923132545 -0.09695887131525237 -0.1522149635750798 0.21048695984309557
Ni 5.365059941764708 2.7997600792971773 0.4191511007335991 0.3492198297713405 0.00923437411407442 -0.12954657544328657
Ni 1.3932429229393841 1.301670605617704 6.999360411712261 -0.5407140505620172 -0.33366568408682534 -0.21267959661904018
Ni 6.879452850630414 0.8910663750660397 8.977713097252702 -0.29899667194973023 -0.37096210654443856 0.9432169080272143
Ni 2.6025997349817915 1.6335083562912518 9.147814983747073 0.915773724214597 0.09066172545263096 1.09192822932441
Ni 6.313688384334089 1.6223500429136517 2.462350405849499 0.7898179514463624 0.8893502399157457 0.2599675830717264
Ni 4.099486570347471 6.738934058176685 10.361494059804468 -0.1154679858630334 0.7578807364181335 0.6946727363010811
Ni 8.03649037482615 7.0161376683093435 0.2445542405115073 0.44223282906496736 0.4918060120074046 1.0326550454853891
Ni 7.585320159286974 3.8420044200823544 7.897860538340477 0.3618688859939187 -0.18490216939545573 0.9582478342184079
Ni 3.263951341241331 8.230838534813794 12.543101662769288 0.7665787784127636 0.15533885391604216 -0.6441631575873035
Ni 0.009425790814270692 4.960069228996522 9.946832507362583 -0.020928522622551054 -0.8729306609071418 0.5558023123537073
Ni 8.250677545794712 2.4311649997095754 5.7725128982384994 0.7360502708066032 -0.522994521795067 -0.638959501899177
Ni 3.7320489171069786 2.7758610337080394 11.613593360910551 -0.7521895995706271 -0.3872598152631976 -0.8057428502067349
Ni 1.1481036395789865 3.282840900921887 12.49294350693011 -0.5098381869187671 0.9161395921944481 1.2100359668031353
Ni 3.036426640101002 8.596304946306866 7.967341384501044 0.47925260082242627 -0.9571808264064741 0.21755492243347047
Ni 5.385441496345834 7.8369790082431985 3.699189763960415 -0.5006992007319764 0.8588435866864564 -1.2108466356298888
Ni 2.783339092997565 8.135522666650681 3.449111525359462 0.6709496816525283 0.22485891229405147 0.6797299989483196
Ni 3.5216685937332044 4.324443231780152 9.442202758176968 -1.1151722874540149 1.0588288756672797 0.13864802352392253
Ni 7.503676389849091 6.141674935888318 11.41371306467946 -0.9325041495954004 -0.8940031653067249 -1.1253404862362684
Ni 0.2856817581252327 9.115365451018667 0.5089393538499304 1.1450523628428988 -0.04036786229408532 -0.3236386388681265
Ni 4.47679851711174 0.25234607084981986 1.6353285900699475 0.7550748915382222 -0.3509013312388215 -0.04497065117341933
Ni 5.939586487204382 5.46654272218351 0.3500816834698566 0.12300080390496881 0.6315909773492479 0.5054801670603875
Ni 7.966384699286011 8.946019508607248 11.0958874067206 -0.011407984726625514 0.04022053808294364 0.5719257002781312
Ni 0.2268392877254005 4.625835244088726 5.640326671244624 -0.1971655601438411 -0.10881474221257388 1.4430771577976629
Ni 7.910285691024561 -0.28462198962616087 2.747579140068559 0.13610751649025593 -0.7665654086763249 -1.4065093859759583
P 8.550188740289233 1.620053275006107 3.6651632378340713 -0.5718619369197313 0.3574229344074232 -0.32349722819425575
P 1.8702110866684236 3.053109855807381 1.6530363089413849 0.05525043583287259 -0.13888507923539306 -0.6832894341648039
P 4.640917956174492 1.1184626742209864 8.048032085681228 -0.2728565232192527 -0.5560637935452101 0.8233932162986465
P 8.53836128980471 1.6713326876190473 12.370590882689994 -0.006748117357110959 -0.2780293256694437 0.48100197941336514
P 6.351955792935388 7.749059817829582 1.4514099265569582 -0.4542619923153596 -0.3214732557856915 0.2707708443348175
P 1.9663950245918669 3.156618132333625 5.698068682375368 -0.6509339006522338 1.2691880516832594 1.1306246174533432
P 6.801778691867382 4.119678234668525 5.890696074911021 -0.3619125947476606 0.39637977528659474 0.060818931059585586
P 2.400041081844342 8.503123082971237 10.523629597769126 0.5222159917578297 0.46846785150209647 -1.2775197114774064
