# total energy = -381174.6966212694 ev
CRYSTAL
PRIMVEC
9.20851379389376 0.00000000000000 0.00000000000000

0.00000000000000 9.20851379389376 0.00000000000000

0.00000000000000 0.00000000000000 13.47759074821018

PRIMCOORD
 96 1
Ni 8.259677660804726 5.975892594005993 9.11790008783757 -1.2038221246829395 0.8243494095643287 -1.1184152198713448
Ni 7.3784321078081625 3.309107025214207 11.277548864792884 1.4953438284118634 1.2692479583869174 1.0941224087622512
Ni 5.277168991144173 7.782124140094981 2.5682222423568306 0.021500593075937165 -1.1340596112768209 0.3142505127850072
Ni 6.259247769203824 6.818453180930408 4.597812734305429 -0.9364461649622841 -0.2774094326972577 0.9829340241111783
Ni 0.654988687874183 8.228341088668682 3.5316141835561607 -0.44436735890946694 0.1727043417776832 0.3424215759025845
Ni 3.2134950274215104 4.427923023270369 4.7961760905658375 0.8921784533931602 1.213886193787161 0.6557277224964513
Ni 6.108007140122898 4.429285883298619 9.52397988772794 -0.39011939619917974 1.0105191328182985 0.8815145459214108
Ni 1.0451018458525072 3.8280896490800096 3.8434991759129384 0.10629326134230081 0.07275424904459084 0.8887977098463854
Ni 6.0464666430364495 4.2912870969246075 5.0260629517904905 -0.7183096589937307 0.33886008380357124 -1.6257175277421356
Ni 6.513642168801345 4.073220283890912 0.2297118994642692 -0.5775741568131602 -0.5151508573809321 -0.5552148152813534
Ni 3.95981743762133 4.5757565022806705 8.808373395840489 -0.6090087211733576 -0.5999255279251667 -1.3263251630158834
Ni 4.990231704115334 4.74579170783226 11.768025613635372 -1.0474818260855767 -1.7580794611470303 0.6707697044312384
Ni 1.4626434827507322 2.061730967331036 0.36118184962186706 -2.1632544661277517 1.8403169670917081 0.6734727051846983
Ni 8.391294947181594 7.5023418682144545 5.551716222983754 0.46617391326159713 0.8655683070047996 -0.8192737948136342
Ni 7.005275506965105 5.994042574517349 11.796503863117573 1.0794848613547345 0.17891432724313702 -0.07977798866059164
Ni 4.812203508668332 6.407329878084145 10.182144591978767 -0.028831579519711638 1.1022144417417663 -1.770927777864608
Ni 0.533032053224592 6.161315225957622 12.68675257996292 1.10419727649975 0.010497557097214179 -2.354835847315596
Ni 1.2825249546928341 7.114110930437307 1.2938394554814199 -0.7194972515439286 0.22011008475515642 0.40101058919038685
Ni 7.342030853134703 5.56982476518344 6.6522155664305105 0.13544777141906994 0.19778056802002067 0.7677316610702842
Ni 8.086253722209921 7.6622569172049175 0.05328322284772068 -0.7045128623199545 0.47313826039457224 -0.37023345590853013
Ni 6.652396053299117 8.130730843402132 6.9139638850723575 -0.550433077621994 -0.8846250665259346 0.5613150146418204
Ni 2.3874637225964777 3.555554477484838 11.860091412800507 1.2011440636301443 0.4550052982392873 1.019529820957341
Ni 0.7310510110724571 2.062817571948154 8.135370092606404 -1.1225968620528601 0.0880692821351064 -1.0347376390460308
Ni 6.088715303912198 1.480019948110919 5.177996061101988 -0.16294469128775807 -0.7365809464990928 -0.5157121292010408
P 4.960856545398324 5.42740589223132 3.307023138562904 -0.6040009835461211 -0.17753390195584262 -0.22722227031990544
Ni 5.169825346892081 2.8908839583018575 3.3675239944521262 1.2561237623001333 1.2461985327666216 0.31578597559292715
P 8.345151085008888 1.1343231351343568 9.31788045910447 0.2865185940873775 -0.6790442857352047 0.34654176871854514
Ni 8.837060678583779 8.43469467227039 7.965431576448712 -0.7629913181718215 0.4463813040157022 0.47561217585636156
P 7.2179921735365475 8.833552234862406 3.984097525705699 0.05228389700538092 0.2581747528373618 0.8429184308157676
P 7.0797079232377005 3.248874137073783 6.653077483313242 0.45329088665134193 -0.3021071925542539 0.4710325269054791
P 2.4976527975832266 0.2619794523358276 0.7450562395654661 -0.3323191973612599 -1.1132341898910376 1.0298656556657102
Ni 4.880659599546779 7.115261994650356 12.342292470376858 -0.15601094028240228 0.7113674233479426 0.7857980316536918
Ni 8.399499732892208 5.358793256619899 0.8656684312142159 -0.4105308699759962 1.2013965459605827 -0.25310479451362217
Ni 4.827351513712056 3.0604955722230454 6.478421445584788 -0.7215307370341897 -1.0670188676772399 1.0146879194840073
Ni 2.5265399050739026 5.295107175840327 10.368984414189502 -0.08978112261989053 1.3393179757311255 0.09705194524969092
Ni 0.06032128987198712 3.919198683671259 6.294250250645587 0.11548984023990433 0.5001980927258418 0.8532532370828724
Ni 1.4129359257744267 7.135649643991878 9.011655940121784 0.37970977083008156 -2.4802288056018256 -1.1250394100560819
Ni 4.6302524863832595 9.06172078742982 0.5323202351152426 -0.11905878853808528 -0.25951506891534015 -1.1587082630634369
Ni 1.2591997894796103 0.02686031362433964 9.591609974927103 0.27936115710698983 2.0448790768099365 0.9408219254324764
Ni 7.838415784369928 1.6246028217835704 2.6990899557181613 0.9205999419586468 1.7267235725435683 1.1374539816703508
Ni 7.657910498736444 6.922813266742278 2.64827921880007 0.9331147865962058 0.9419300708949907 -0.7875432964795728
Ni 0.7176038185099342 2.2401735458947347 10.967995468106059 -3.0872714041877476 -1.079358105968883 1.2958889580132134
Ni 4.10487915400661 1.2647801487844714 2.428297955767231 -0.38631159241731533 -2.423416938819104 0.3472701622441374
Ni 3.8169565560114003 7.521937585377399 7.68476068299571 0.23617022354181263 0.021203373550492517 1.0186286492993102
Ni 7.8992011833326155 2.8118472851770653 4.657923149213586 1.4615587615416186 0.36254354346344014 -0.39938642332340246
Ni 4.811347116893823 8.691409617321419 4.5664770830207555 -0.4738283444830614 2.0264208701047486 0.7316184602874949
Ni 8.777232965046348 7.7666077945030825 10.586634081552388 -0.1370526540123446 0.049510705135617956 0.9180774326471092
Ni 5.784033210974996 2.0131192234855533 12.394962406211866 -1.183187993372356 0.36750165879966384 -2.5020533576760844
Ni 2.3471580581123557 5.704692656897958 6.906307926778527 -0.24714523449607756 0.3363730557156594 1.6646982798807075
Ni -0.045858398247869796 0.16873496341652944 1.31571059638072 0.6877888646970541 -0.2089538110280208 0.10805832366252356
Ni 7.984278641447489 5.204596694639863 4.345269245962491 3.1383808212690534 0.6400136541953042 0.8885724812094569
Ni 2.67602170803729 7.658647179832796 11.065640705724686 -0.8453638070324667 -0.45303326211458106 0.3376989736159345
Ni 7.809952268509653 3.3190706370423593 8.812322927368303 1.8502131431594975 -0.6586852624628785 -0.9882235546448918
Ni 1.4342352179726843 1.5655209978561941 2.672080464171811 0.07992351309952042 -0.657422593700371 1.2223757193154108
Ni 8.079844596671665 2.182647960783401 0.21476095661381914 0.027321570633088425 0.10882734061806418 -0.4869376281715097
Ni 2.6998349244768467 1.2253124590474493 12.234808856716459 1.5438919125238957 -1.4714366827769627 -2.155875142944545
P 4.301747968492796 2.8861139482029827 10.607847734573195 0.6368758798972709 0.6288432394007815 0.7599311911892589
Ni 4.134199061641393 4.681304486360406 0.8793495200248302 1.8292385977903594 0.738772811944089 -0.27033915611403764
P 0.781242015018243 4.768941911285101 8.338126830755177 0.658804304539246 0.08626771014999336 -1.6853316398603426
Ni 2.3663025581037855 2.481860196580195 9.632326339122441 1.5766588225422717 0.6617361334740604 -0.3601583310607152
P 3.014342501536635 5.859598274433233 12.58354079580999 -0.13984641470739786 -0.152669277503679 -0.11603902787515501
P 3.4501722466517815 9.138851298217803 9.231502758854537 -0.12300491767002687 -0.06358312406828405 -0.8307473426708726
P 0.4660612956066638 5.736020020520298 2.9562690098598896 -0.49826488025887095 0.7820473063620079 -0.5099477159134379
Ni 1.1045704273554677 6.279119741777902 5.157146144372504 -0.5121917747526082 -1.457887483337618 -2.1483150712091
Ni 3.9422752190144643 2.4876431431865527 0.4441809461936591 0.10535763690190887 -0.4808569691950687 -1.1171646352936953
Ni 6.166536453228011 8.498380753049963 9.452751113373102 0.3427997851776097 -1.0114897242616838 -0.6186927812303409
Ni 2.6386535594248692 0.9610925753273435 7.0615837265647174 0.2609685135324151 0.05543169860574324 1.1253320015958361
Ni 6.822053709788826 9.23927014016419 1.7728018787879363 -0.3824317977469349 -2.6904332012074956 -1.4414077405150403
Ni 1.2124297483750057 1.9106284659556756 5.447210642655356 -2.666874697161265 0.20865324906846647 -0.028302446489118997
Ni 1.8757926586119622 4.583040436620845 0.6251724413507337 -1.0617640470362038 0.2728567803295688 -0.05571966215980726
Ni 8.248701112469092 0.8157278988411892 6.126885514068272 0.4123373270571156 -0.35779934391023543 -0.39073260430314644
Ni 4.387691026895882 2.095691965872832 8.607314707618803 0.4296740185633503 -0.9583848740169043 -0.15849539726715284
Ni 2.6544369519141964 5.61675135102102 2.8029610694523273 0.28416294937100733 0.6038932543236631 0.553933891686401
Ni 1.5291565772375524 8.074899624812407 6.480254860663332 0.20746282830479107 0.6168922376864924 0.2224449035359201
Ni 4.462666745477038 -0.09313767016032719 11.155576575669995 1.2361997696826967 1.0515966195848987 -0.12652475789782724
Ni 3.30309386576524 2.1841673655446256 4.829397645457171 2.037733724014407 -1.113942785922288 -0.8254195027000559
Ni 2.9550028392255356 8.287966214904618 2.814512229043116 -0.6731574879371246 0.9144514058587477 0.8335606437499515
Ni 1.0358657066070027 8.677339008381107 12.720918007508955 -0.17193378216024582 0.10648352297623596 -0.21751661299636732
Ni 6.351590744631463 1.5023505938440684 10.255422260632834 -0.6642504152554819 0.2330954412712308 -1.347886177016111
Ni 4.877860211380643 0.3472622603063088 6.938303828495805 -1.4499219486336383 -0.28161395769690856 -0.7147805627945496
Ni 6.566259616108239 1.404187837755255 7.822932589427363 1.6549244883233951 0.5293891124675012 0.3155946855177274
Ni 3.5063349717348653 6.973800807123494 5.308701704622122 -0.21518385109813262 -0.24172920568682887 -0.9184612983490891
Ni 8.06954026983645 0.7349296370447467 11.73608404214895 0.7503047238430884 0.20732296029281713 0.08351200178172714
Ni 4.85074113852121 5.374512189513296 6.631985382673333 -0.4731752842800948 1.567331631604075 0.7934054116873046
Ni 3.6893910156644645 6.899920901673161 1.145344805187143 -0.6098548712237368 0.3310292749052428 -1.795062980349915
Ni 5.947106780166066 6.4213544444559325 0.7469900274433883 1.5020086420265488 -0.5201218282329623 0.5116724119140285
Ni 6.899469684501646 4.437831384016294 2.560782684135053 -1.2319700478720654 -0.26633337738875423 -0.5007714487308086
Ni 2.4171243452383226 3.501132161491884 7.003292913964549 0.3826521412878571 -1.4012010863891675 0.46524291680689556
P 5.937474674831272 1.654300278480233 0.825832400929018 0.06743566504515483 0.8935447376130675 3.2368345319622773
Ni 9.088047928110674 3.5469537256849364 1.8787624042816287 0.800370530151228 -1.4180420692059061 0.42985425289495655
P 2.4098680364392617 0.21496446476668618 4.887580718446999 0.06722277770340036 -1.8628416305567854 -0.933120957243793
Ni 3.0829551371480557 3.2930105432589314 2.404590637235275 -1.372059688938521 0.4943930560082905 1.2534202473260414
P 9.416626114110773 3.8965089059036386 12.678625145767425 -0.6500335003251515 -0.5134618997142835 -0.06335172478376831
P 6.829531022916792 8.276814704808599 11.68911417629696 -0.9626097107315292 -1.4199770814450898 -0.3533510783308947
P 6.067241049953557 6.361407020240344 8.285106050548034 -0.4006277519296713 0.33532044608142897 0.372170782140559
Ni 0.2889327719485816 4.56395118771164 10.330977194725996 -0.2519565398417919 -0.8330621068469781 2.128688041006792
