# total energy = -340859.97641853825 ev
CRYSTAL
PRIMVEC
9.30382739610220 0.00000000000000 0.00000000000000
0.00000000000000 9.30382739610220 0.00000000000000
0.00000000000000 0.00000000000000 13.61709183948252
PRIMCOORD
 96 1
Ni 0.37343423767404366 8.118557105447527 6.74039230015049 1.6740951477145747 0.1377746197800337 0.4218226408397316
Ni 6.42507442105282 8.63275174075377 0.6626948870486928 1.4924446524871975 1.8226591448006286 -0.4855757148269766
Ni 1.6390832049108268 8.398825605528321 9.376838371674683 -0.007667286737270666 -1.1732553076396761 -0.7204683572079462
Ni 7.258790404728294 0.5187404854303787 2.6256610746680775 -3.050342135261566 2.6925222225260406 0.6248089214304078
Ni 8.776700560075575 8.958757856901393 1.5843618129949062 3.1116210366767056 -1.4465908273778765 -2.3776183924277503
Ni 0.5534874900529966 5.253629498560031 3.7738957386576284 -0.5542519371474519 0.8096185311120573 -0.7642699277739289
Ni 5.602606764843742 1.217619818452854 6.663224493970364 -0.4190149961876074 0.4258659576711698 -1.7030164587346153
Ni 6.710915913815477 3.3356268485581757 12.632671873927823 1.6360947572114017 -0.02410974856401009 -0.9172258832800911
Ni 4.211079802468759 3.496992432989237 2.1549869533316905 -1.5493372519091835 0.695514515476086 0.3851216858742722
Ni 0.07274290581369332 6.5869796274797885 10.596521779070505 -0.009551134023544842 0.24172792013524824 0.5004526319388091
Ni 9.060337045717025 3.7606163856445716 0.9515954782984871 0.13614222638293327 -3.0917343250551075 1.3902137341397283
Ni 1.7939454139084638 3.145661298344072 4.032973841188827 0.7210437700954421 0.11229858699611628 1.21807889171227
Ni 2.604122713969397 8.272144690075523 1.7604721032727357 -0.30862596750937815 0.9217075732005288 0.8649946938895168
Ni 2.835267004767673 0.2314494563407881 5.655151061121005 -0.270713765844637 -1.648348120657458 -5.107068084107759
Ni 4.500540484134994 1.3646295970273006 3.466584733519908 0.4607547991285549 -1.7377281511841876 0.5455461818433379
Ni 7.95088352596087 3.8413736084802275 7.636097825797094 1.457173230879413 -0.32470564668006013 1.2230218375398423
Ni 1.7034191721813983 6.08528933635455 1.9446292739688322 -1.51384060166447 0.526991301659286 0.2466875781333687
Ni 4.098103424946482 4.394681534662173 6.476398055160033 0.30911807665444824 0.8035520132030032 2.1374806995977575
Ni -0.052977854639492034 5.887071291134085 7.999415081430643 2.4759962555777166 -1.0978993593061803 0.09625027528400197
Ni 9.046213835548302 0.6537622822509379 7.936994772245539 -0.47327324331053977 1.717547562471255 -0.34706344554997004
Ni 0.980176836426498 4.415875653742774 12.75950072023812 0.979262745907178 1.9967991905835738 -0.5549695320397668
Ni 8.497985799189891 7.349288734972813 13.138151614000176 -0.10945134735530827 0.6872520183569777 -0.23067937563057048
Ni 7.142594902885609 7.823086151206196 6.50210732173397 -0.09845062536943044 0.5497244815907436 -0.00195403840257728
Ni 6.686502670414466 0.935592894971606 9.897692686716614 1.3507493574965188 -0.019079899449586494 3.3105359754114856
P 3.273607534338996 7.081803693898492 13.77137383624486 -0.047927676919214235 -0.6536816386006999 -0.8798775245386202
P 3.314358298857449 3.28973106742358 11.207656714793087 -1.3450042274826257 0.18107122568513978 -1.5949079985604466
P 0.025913950779280177 5.788385592675812 0.6600721380720371 0.8591446628666429 0.7438000899553513 -0.8318524028095932
P 4.1697894159544 3.5099898800285705 4.662750856104474 -2.6815757508168656 -0.42965062152458267 -0.6330181967140774
P 6.297388692228334 5.368829490858543 2.340219646488594 -1.3402507719580403 1.0140880811164794 1.417827639202255
P 1.6030215694602508 7.928024021754971 11.646725734058885 0.20781326966567437 -0.14372106717145572 -0.5608082502087309
P 4.770956230876737 0.5672004014282815 11.692248431710103 1.3681053322764631 3.4775273259647914 -2.2897720249367275
P 2.1307067546641547 5.28166193086462 7.316177343227442 0.8032679063036811 0.8474829102579985 -0.3820209354617614
Ni 3.1128653063514817 7.311319814881532 6.162646940615995 -3.3835869297608885 -0.8093395664190577 -0.34804072186157475
Ni 3.1462381356500413 -0.012976048236047127 12.87103872602648 -2.9783723297914837 0.6128442928693639 2.6553235019885557
Ni 3.7780610622363753 6.009035166036458 2.7069421029928633 2.0606857048248894 0.605392721687325 0.1654764565706763
Ni -0.08661584302224704 2.5926138793325646 12.129751616805018 -0.33410225740361177 -2.25045163007055 -1.5049237587908146
Ni 5.987431678545169 9.039217357256549 8.284883490709921 -0.17477228005030548 -1.5484345375892556 -0.8164090716713295
Ni 6.770041737677295 6.27866939126689 11.886482577988376 -0.4199621905922251 -1.4035870701228408 0.17142213263114994
Ni 2.2982686882206247 0.8257258566050518 10.901652897421313 -0.06857003575991416 0.20353675377750752 0.8841738379211288
Ni 2.292314238610622 0.8452918058704185 3.4207494272641643 0.12396779580392842 -1.5229983569043384 0.952524044360753
Ni 2.832159526377453 4.818815119617131 0.47441239923216644 1.6820151738926 -0.9679866587727264 -0.35796312318160933
Ni 2.5970145897474572 5.391363361101396 4.965254573564869 -0.891016314764259 -0.8959559181577215 -0.5329189799976305
Ni 5.854945174722619 7.780409494392008 2.892215732990835 -0.6217796476857808 -0.572355331616382 0.3507925735750991
Ni 2.409821580133011 2.3876226476807214 12.760004987689467 -2.1342987023253497 -0.3060749189527503 1.4571904572705936
Ni 5.364205488583276 6.81983582254094 0.5449530890729105 -0.564007730982635 -2.924195586638764 0.2581138176924393
Ni 3.095281072346944 2.0082590807309675 6.5679588825068365 0.09097462870735945 4.089551951146338 1.2118650495920742
Ni 7.280645095562505 5.126501999386482 0.506297546510977 -0.9107053085527542 1.2773829287892258 -1.1221430623448934
Ni 7.504029994212746 0.1887123246477484 12.172523172659867 -1.217728964572019 0.2584678585977484 0.20863036625033102
Ni 4.978971206471161 4.307374417255514 10.747861558970724 1.5710417334658104 1.6692802428244349 -0.37832677443962587
Ni 2.739586442596949 5.9956190467589225 9.378391180487041 1.0142726863234597 0.6546805121788596 -0.9894679685749539
Ni 4.634562119497623 1.946379323924522 9.664676465822195 -0.43082484433834195 -0.9240511337320407 0.9005386524323975
Ni 3.0412072268261103 1.3802600272535566 1.428542240145911 0.8638310125987186 0.41135182321539476 -1.9246218970883757
Ni 4.116701776150223 8.392405964542538 9.649193966453435 -0.05054660259930005 0.1373323900362925 0.056669941888218535
Ni 6.357528633289357 3.4449933410043894 6.15457121833243 -1.05128371633017 0.2080670375476933 -2.2667318552878126
Ni 9.048939857010382 4.132825309234807 5.590837423036471 1.3984317511741464 -1.865604023793271 0.5969877854530815
Ni 0.49256974901166717 0.10691121236483914 12.80616685829101 0.6765387457045317 0.5872019097109112 0.11567161723340724
P 0.8154032599764619 2.2448740221084327 6.1780205852028205 1.7418758548039743 -0.8211087911398439 -0.2008466085398541
P 8.288565945640608 1.5683927234470814 0.13571586235322508 -0.09235068311927966 -0.41488966116532416 1.265344766677769
P 6.652469269362298 5.590465269935846 6.218176835143025 -0.6428732351312865 1.0372269811267878 -0.09914276634044861
P 5.356632172985554 1.10335951273342 1.4117655783697294 -0.5729376864824133 0.464842081824051 0.054667566746209074
P 5.177673050722439 6.380574214045569 9.55889939003151 -0.17465606618741536 0.019221824344089474 1.064426167249399
P 0.3520931181186949 2.230285620563927 9.804633012757042 1.056648065965877 -0.6909343523045713 -0.1174464497456429
P 1.8963898586830499 3.2753473500844184 1.9191116662417178 0.5237149449008593 0.854278078802961 -1.1700964502957205
P 3.7182746666209465 8.348361645083552 3.778102929460196 0.13651349367942295 -0.28754780668284025 -0.5241849425587424
Ni 5.934613849738946 3.038416078571422 3.836860321752396 2.7273611845820964 0.18202150541355103 0.1688667131991479
Ni 5.740349931212622 3.867815086279644 8.288070051634024 -2.1089034021806974 1.193417384409848 1.9480490177630645
Ni 6.977675256343577 5.957938545320627 8.273213699857068 -0.6932948821169479 0.835421093997458 1.0936814645700905
Ni 4.769160592166221 6.303259407390695 4.902684472756764 1.7921342367388942 -1.9363199022515942 -0.4207929140236366
Ni 1.214791454888103 4.409977027097866 10.21693119872937 -0.2740955378326764 -1.1056520066684057 0.4480602343800219
Ni 7.925186354362704 3.4088758825887195 10.034843199272748 -2.0499899156739403 -1.2571845994644801 -1.9837459569440419
Ni 7.0785938734056 7.773524662030443 10.1837602624879 -0.546467922326659 0.22440588391703287 -0.4253077711748546
Ni 4.74398443490893 7.067410672731814 7.479746074014205 1.997748441870721 -0.964248788996849 1.642893782411106
Ni 4.6615246116379145 7.971658972803268 12.139978384010199 2.572669734442066 -4.927024271245869 -0.8543125315853223
Ni 0.5885992047142272 1.6155817366063492 2.2062408087325367 -1.6355962203084282 0.7133433161273909 -0.3597713800349417
Ni 2.12286362806848 1.4801552232888602 8.78113197312127 -0.15441891320493406 -0.7724228958983665 -1.6973464049330318
Ni 2.7641392434106926 5.781193734006231 11.749426034090149 0.30195549746773803 0.8948439160404653 0.5254494110934628
Ni 5.031528528106946 8.423638913512502 5.456708793657413 1.6703732187782974 2.326328741014839 -0.19127721968386413
Ni 3.291536009961612 3.473528179994822 8.683878133717652 -0.15250626956325347 2.2336211887767727 0.3443164789324522
Ni 6.445198599969125 3.188114663297885 1.6367879506627214 1.1871773170374071 -1.1532138156077687 -1.528546540416077
Ni 1.0420752008879746 3.5553739506498063 7.9025296735966455 -0.8220780970316488 -0.6807232160995244 -0.012816435038377927
Ni 0.5465970753949221 0.19602513307503242 4.732620739981342 -0.723278830073548 0.05808713395071932 0.3194585393485079
Ni 4.669218876993339 2.446487964372103 13.255299827780462 -0.3471120393997183 -1.3313557834612555 0.24439569677539846
Ni 8.963484201279334 0.17476216567081493 10.20172130150682 0.25527197736827006 -0.022569143549767582 1.5679461252596223
Ni 8.138783626466504 1.8851973541817486 5.685762514412927 -1.3490498583069088 -1.1462939485594839 -0.28446736798530364
Ni 8.818623606860998 6.353434949182481 5.745500530125274 -0.4236494096358252 -0.2447219697665656 -1.2602012748036169
Ni 8.21983857178266 6.77920600778019 2.2378059043448095 -0.7013025829127729 -1.722440628897498 -1.5320668948645098
Ni 7.393351662086829 4.996201895030104 4.253489439433248 -0.9611642365342543 1.2739294230229865 -1.109352338338128
Ni 8.052053346365815 7.9411982415171005 4.0366367580817295 0.15063656334436637 0.4377336556430332 2.2705553427989607
P 8.771499720494338 7.7624624111143605 8.7535293776479 -0.8253752797256817 1.1244282588346444 0.030566559932947355
P 8.54742633860794 4.587987158954387 11.473298667636563 -0.258688973469619 3.302708766057583 2.0302867808180585
P 0.8307313158084599 7.7015502523695405 3.245851425711621 -0.5907004097824731 0.3067866003077942 0.08568484106332985
P 6.904044765384893 0.32518924009175193 4.643837105147953 -1.1431564313717668 -0.13387914138036944 2.640629647421807
P 6.740185755179644 2.0847365429094338 8.242684120247286 0.3876308254493711 -0.39327491110902596 -1.1880206388743089
P 8.230119301187429 3.067350982145027 3.6729110644202447 0.7471458664991326 -0.4949990650234055 -0.4084580466073675
P 5.049131369766515 4.547692281984199 13.528253658668469 0.5306913762186924 0.6973340851833281 -0.30900083435029363
P 2.792413575230688 9.007742508771178 7.512386692087285 -0.04965185869917255 -1.0182517255758656 4.1874122512299365
