# total energy = -340863.0068440989 ev
CRYSTAL
PRIMVEC
9.37354809166092 0.00000000000000 0.00000000000000

0.00000000000000 9.37354809166092 0.00000000000000

0.00000000000000 0.00000000000000 13.71913512490722

PRIMCOORD
 96 1
Ni 2.3922419833104662 2.731283221717514 12.28130158991753 -0.07554132487142474 -4.5382444197937195 0.09182746362595798
Ni 7.804341243234753 5.215826534156933 0.1031221531714487 0.6263898927642825 0.34489857668816726 0.8118857298796792
Ni 8.542011365958542 7.57378007815048 10.434183926327963 0.42274309577147196 1.1336492632122799 -0.32660414925435366
Ni 1.968154542081545 0.20442208857274724 1.4492067930649732 1.6408479556256708 -0.19665185373221616 0.6152729569155145
Ni 0.543636737621502 6.841921555310914 8.032732431910643 -0.44526724501591697 1.8686605512314076 -1.1373444526756802
Ni 3.038744976237547 7.303681286757085 8.291927912037378 -0.1041168225162723 0.8065591754604432 -0.8949922686928715
Ni 3.2808074849636633 6.589388793244995 10.81707181115184 -0.330921802793101 -0.3893825180331552 -0.5318676559149808
Ni 6.133806230062862 6.008603746750643 1.6051385794424344 0.78594227054104 2.073821213765583 3.8235517887272863
Ni 6.285451492848298 0.6812329263642375 3.8663955375558796 1.3310613921492882 -0.5996727884844124 0.22664634321177743
Ni 8.992410356985877 0.14109064751182993 1.6481753512947508 0.5386484262822401 -0.18477130024454633 -1.3313974353324685
Ni 7.477841812319788 7.700885391747372 8.178319570494185 -1.1714069415770278 -0.5553567401758565 -0.3674425234269543
Ni 4.958803842503041 4.130885197706179 1.5985124182195993 -1.1845558202541597 -1.4832323898603101 0.5640362702277254
Ni 5.237882493072382 5.881301588641544 8.868460179713226 -0.9634604887675988 0.21363861809819984 0.1155716013204332
Ni 0.3894821759828294 4.111931883245049 7.340025345194343 0.10942897875780508 -0.4290633815625449 -0.7626447334656801
Ni 9.302665428869616 6.1387742106090535 4.234699118734814 0.2350551361007629 -0.4097122307294428 -0.6550484370412396
Ni 3.993928284950708 4.2138129786347704 12.341871583678621 1.5266863472788867 2.436968966471926 -0.43108735397110926
Ni 1.0249974957094474 2.1181688074801186 0.3971703602167652 -1.0330990750013433 0.7393194284761784 0.5670182356741847
Ni 8.750141630199353 3.5496408473500094 10.112786517698455 -0.1126469714744705 0.3644433315893143 1.5622300487114515
Ni 4.006751298888801 0.5584319461009515 3.4642459485350825 -2.2263089713860755 0.6287907888962913 0.3858562500474516
Ni 3.5531278072805432 7.503169139557162 5.528920853790562 -0.02538604417327241 -0.032034402727725474 -0.025362904244820836
Ni 6.895275791667367 5.838680064974504 4.302376136741419 1.1651108241556707 -1.172685294068819 -0.19234602726801067
Ni 5.27551728909683 7.830530936906561 3.692519030503648 0.5016512802326005 -0.8299243325489449 -0.8381716601594016
Ni 5.862132682571807 6.618334310087709 6.239915733045765 -1.1359920524128435 -0.31368666986173716 0.9392676935714791
Ni 8.002994850244999 7.809506068293151 3.437233257331283 -1.754865325085107 1.250796179439633 -1.1115519170926083
P 3.8461168033792195 5.8222107407864705 7.080281512497887 0.29117589035373076 -1.4540565396273022 -1.4978336847132527
P 1.3150525712214103 0.7408936859498936 12.536216170581161 1.3433612925625638 -0.9872743033577448 0.14042876957342915
P 2.2494734706707717 5.075654494368739 3.8713757037147314 -0.34852177526305145 -0.9702618279601485 -1.5035266213329719
P 1.638571213808661 7.0778537635139935 13.575358350524953 0.5452883001962608 -0.21870729087035878 0.21163650006650647
P 1.466426001109036 3.119544961724657 9.429682631113424 0.5929388121946886 0.5258885555134105 0.44676979770337244
P 5.301847585991643 2.1944507427346545 7.536345876057519 0.41087899734403427 0.040387916898743347 -0.542697142430317
P 5.950525242101208 3.2407543135035213 3.589735262422232 0.15991516043281492 0.24665183979942681 0.0014680999050942457
P 1.368003745005248 7.942807297250482 5.305519204821724 -0.728497655270326 -0.15111273164983652 0.8261106152298096
Ni 5.033632877786522 1.1051694534671328 9.375396664065855 -1.4040010177318079 0.04252116119166225 0.1696763535846368
Ni 3.737055570068022 3.332090167167837 3.601547807864327 -0.29906891994856233 -0.341124968578348 -1.5310189132159697
Ni 0.6853319789922552 8.90130884202657 3.49534738146388 2.174091923062888 -0.9323560540533103 0.1287366779474815
Ni 5.666441116792875 1.6684634590196112 1.8186773809948527 3.3012517218960817 1.525940727362114 0.5227649222827643
Ni 1.8824146966928454 2.0284639512026663 7.593500148854399 -0.9344281060909908 -0.7303725036955356 -0.28605193886360414
Ni 7.439832074367325 0.5896064927057112 13.622223279462295 0.18173405608011928 -0.30150298331135167 -0.1370246289878866
Ni 1.5851138684220036 2.082689927541753 3.8471197730366575 0.15471073341374 -0.8332719088649391 -0.32242250707283826
Ni 1.7980996306306005 4.603115182492153 11.612631092851418 -1.4449183247714599 2.8879751708541486 -1.8489553594929964
Ni 4.960294236666899 8.878859194086706 7.422614741032902 0.3170417023768991 0.021067619303576618 -0.2578608211413688
Ni 7.248536702694363 0.5671474712176469 9.765692464032476 0.31068413558998753 -0.6910467095127195 1.0902806664186577
Ni 4.633119910281507 8.866570472396033 1.4886085029251896 0.6521364056007672 -0.8889643173312367 -0.8197718174959752
Ni 2.057240744177774 5.284328424405169 8.628924779581927 0.8816186755994431 -2.2582163616176336 0.2917037378327428
Ni 3.8679196764932584 4.078908872935179 10.083893492725663 -0.5954548937483228 -0.523486373829821 0.10160794005148953
Ni 7.227914896653569 2.1914512073105388 11.837390968954486 1.851484039452121 -0.16455394475640694 -0.8480652651240297
Ni 3.5789144383797358 0.29864405772795344 11.261392993526059 -0.9816279037052449 0.433586209133563 -0.46264815949652577
Ni 6.10544187320857 3.2871627506435077 9.510022375383897 0.5659242312790576 0.27576469800498316 0.3792112339271082
Ni 7.1196691620358035 0.6973854246230992 6.849978119989124 -0.08105299871827332 -0.08916560052307869 1.0652730886307267
Ni 3.2987109620263517 8.514078192321469 13.30011160645992 -0.7500370720039986 -0.7666744234503635 -0.2557810557942047
Ni 8.49777759200104 8.288681852295593 5.95240370116056 0.4367327251823446 -1.1956231338119152 -0.41389258735937745
Ni 6.3877075301660335 7.419050918007125 13.529385783376283 -0.07725830756253146 1.2678328232069458 -0.08497084571544075
Ni 7.037538132704242 2.4259492626389636 5.366102321550296 0.8089119919633357 0.5441199909197725 -2.932327471717279
Ni 6.7315105310588645 4.720153305321857 11.771800502777282 -1.7705930202330087 0.0865279057899155 -0.6906466458608235
Ni 8.888551442925879 7.687828039104269 12.889827652310851 0.0006965118463923488 -0.26535687240809785 1.3921703436454669
Ni 4.777828747398677 2.01531286307756 5.2418071977038725 -0.9297142455550891 -1.5981077364446672 1.1495332814323882
P 6.920734348579547 9.198993985773626 1.842987678252488 -0.9357977327450075 -1.1184902960836545 0.7720207753639413
P 0.9953958304927081 6.360139924908772 10.131965734671214 0.828814644424534 -0.06152032800198437 1.5018363781147426
P 3.1618102905600836 7.704972258762729 3.1351237988336567 -0.08467748284473803 1.1636301258450863 -0.11157507856653043
P 5.39373647899978 5.436901668462442 13.553353008769786 -0.5506876168349614 -0.9198679488886286 -2.2871556703598026
P 9.280834435110977 3.420960777655457 12.341940010580483 -0.4734863877626103 -0.20493774789009223 1.061457057318746
P 7.020825096262999 6.124948227013522 9.942408218834597 -1.6567918805494368 -0.04245251273725592 2.3376570215434644
P 4.374194388342942 8.364373254013506 9.510475117761974 0.6886257587760527 0.13674720695678383 1.3409236296553488
P 6.1804115117150555 8.563467417789168 5.429553744028178 0.8240521900388841 0.8941252927068859 1.66448822075243
Ni 7.056107131689156 3.469159562501712 7.222809124948832 1.1811185124378367 1.687007742011185 1.9608487406308939
Ni 9.027664271767433 1.018745339059807 4.744530154771715 -0.5187781697208742 0.06640156735368564 1.7544498348142432
Ni 4.751273485347054 5.4893841648362605 3.7342116355440327 -1.825202737158089 0.041077229656284096 -0.5471004137043352
Ni 1.4699692023287723 5.79285278782294 5.7154057205271 1.4026234206579906 0.301213734205707 2.4936414794633053
Ni 5.476692380572972 7.446356063914776 11.3279723690384 -0.11519673447951773 -0.0265263284253027 -1.0565251672347675
Ni 9.166308423198968 3.6389332675066455 4.7070219016479715 0.24168164027834507 -0.22055334294016207 0.8710552982612998
Ni 2.4878615485023463 3.654015306561026 5.49636558353589 -0.5958379881193544 -1.1639075478761889 1.5666716294225729
Ni 3.5419826584703142 3.5722592191574796 7.817218623752408 1.1270559262654782 0.4104573364255834 -0.13622141636030086
Ni 0.45421121308042045 3.9037172570704364 2.4364223280432267 0.027172703760049977 0.7219282295829245 -0.5795683044250535
Ni 2.5181756033823133 4.216456319227271 0.367569632354846 -0.3974344418033542 0.6000463697737473 1.1203132082250062
Ni 8.146560114481723 1.8197150327806324 2.8856008830948734 -0.38579145824778716 1.9277445018777573 -0.9559991473935472
Ni 0.5831209347058817 6.421471050783732 1.635842573927536 0.8704492892461847 0.41401368631827407 -0.18177365106880308
Ni 8.348747549163505 5.354151984949656 8.668161514993818 -0.2926326774049154 -1.2847753645985551 -0.17834945587860251
Ni 4.907905475775083 4.192694374539357 5.836531647726981 0.7332549674496532 1.4649747292017028 0.5032582197084043
Ni 8.932691481401378 1.8573217081604796 8.68827340001251 -0.21623877472520825 0.413173706915482 -1.8098247120401219
Ni 1.3731591965154466 9.00940459987313 7.323686313326294 -0.5238260165574269 0.06262821635418246 -1.5537384663006724
Ni 5.525097383479636 2.9430035549190627 13.321293950683094 0.8553725974187203 -0.7400455080089255 1.8725454881081105
Ni 7.964694532298324 2.8430440369104155 0.48322328211535703 0.47720008916877177 0.0974322114072451 -0.054560608854699585
Ni 8.904467727770092 5.449949647557343 11.741439580156314 0.574618673729262 1.0476828863527892 -0.7812453792860029
Ni 1.5023923055538202 8.11766146538001 11.579636203186148 0.0014043365466943555 0.2140260833446056 -0.2432261019473295
Ni 3.6141871002576935 6.453172390797352 1.4582344573367405 -0.33559709678158334 -0.3091551005399708 -0.6010557848748681
Ni 0.8193296625808723 0.9811667843245606 10.449714020986322 -0.7528205482864067 0.9368426290697542 0.6299899514107151
Ni 2.3838057899301415 9.291670256830592 9.32484136920203 0.3996646166854536 0.12800519909809566 -0.47492080621629174
Ni 5.286109398563237 0.48589661806209994 12.613002402728876 1.3390824626815518 -0.4916998254468436 1.297173995373224
P 3.832131469464281 1.6582087972884167 1.1800472312012547 -3.7701864857322684 -0.16770071791550475 -0.9247890403393298
P 7.2477493246455325 8.668554266663412 11.868849534069716 -0.5020708842685224 1.2040545524087198 -0.22646636599048742
P 9.175878815911537 2.1696670812929004 6.525890503026111 -0.7433812572503777 0.4188139359203949 -0.21475267709798498
P 5.180019580031555 2.255088226042788 11.354052392196264 -1.7929251080713058 0.523516455736808 -1.9496569856801327
P 8.98912961511575 9.104883561842005 8.72097958439321 0.9768579931204274 -0.6724031262696032 -0.31788142466937513
P 7.839173348347294 5.862648227722826 6.642434639865656 0.7999079886925127 -0.26750477198903605 -0.9091127672546536
P 2.7051497693349087 1.3034199979047627 5.723390108884167 0.04071161878674924 0.09231520189565393 -1.428771025587636
P 8.122920025920413 5.667134759359702 2.3873077475377964 0.12429278324351499 -0.5404749379680176 0.1967611256165708
