# total energy = -340872.06727939844 ev
CRYSTAL
PRIMVEC
9.22267033809215 0.00000000000000 0.00000000000000
0.00000000000000 9.22267033809215 0.00000000000000
0.00000000000000 0.00000000000000 13.49831028160381
PRIMCOORD
 96 1
Ni 1.130533364961753 3.5755923664339937 3.6885617766308663 0.5126553446525881 -0.43793728701340706 -0.8982007483278401
Ni 8.376268913264209 1.0178968931610164 13.486809657524073 -0.24320759000456824 0.03414245020966378 0.3490902461720117
Ni 7.326655257102885 8.071468884070518 8.32184316929977 1.8543081391644776 -2.4584397347511917 2.191212899013891
Ni 8.844845120811906 0.937299977819443 9.420997320992479 -1.2048955602527764 -0.6789316714167404 -0.4943429194966454
Ni 4.273056804322367 6.848330687097695 7.142131759747575 1.0890938451994083 0.10178148951487632 -0.701794692057843
Ni 9.132315752600078 3.9842581080177517 12.700640654874652 -1.0439434739150149 -0.8774437182861469 0.5664816464444244
Ni 6.894388702341523 5.841417994208085 3.5024473686569007 1.0611552098076111 -1.402807768754655 1.9601213755465665
Ni 8.838795049125892 7.184921260653716 0.5674340099903479 1.3728153361576227 1.1269726225230527 0.6756198334346881
Ni 4.8195461301679945 8.82779240351398 11.91386480052258 -0.4049433485858897 0.49917710766049517 -1.24865059385154
Ni 3.238715890100128 0.39550406886560285 -0.008467333559343015 -0.11839621525342192 0.17355871935817851 0.6891530920344324
Ni 0.8377560087099638 8.009916782801533 7.864898593475244 -0.4559530068645373 1.0490831091344255 -0.10443383953605885
Ni 3.055203197404553 5.735062160849687 13.490670267292007 1.4000908840441242 0.023491912474353092 0.973580093700104
Ni 4.940280106450926 5.492837949323072 2.3814124317887835 -0.745949017977554 -1.916294865279919 1.6032298881625808
Ni 2.4742026394719403 9.136567403586744 3.5378670337638134 1.5425639377410916 -0.48620306399833035 -1.2104704832373927
Ni 7.709479076637543 3.945218544836509 6.94241022408223 0.9324226456251877 0.6128242382647059 0.285693784193237
Ni 6.260348567783508 4.66641291328603 11.684623341911212 1.059025565059118 -0.8971000590644937 -0.7488299390697749
Ni 2.19779921198745 6.126647517124761 7.592988450938049 -0.5105460116190691 -0.27433747864015334 -0.35638292317868303
Ni 7.936458214235834 2.9497511857309573 9.221869725291432 -1.2209359015450907 1.9807449653341886 -1.1160976274817618
Ni 0.5921590666718016 4.444386349613637 8.270671183400614 -0.1565138480607498 -1.1227781248257307 0.05904229877513703
Ni 7.58928001522929 2.335106326715147 11.400173134630919 1.432535891946707 -0.07898686021786397 -0.3339451630004572
Ni 0.1982237740162459 7.5286132903046 3.0918420995189213 0.5125640704903623 0.8359646252057538 0.4043856763102067
Ni 1.9753207374726571 7.8924107411071756 5.653618604378883 0.24889332753543586 0.12664431419482705 0.08778337546357139
Ni 8.8576000737719 4.837419665118444 10.586373934170329 -0.38279869416805046 0.7812111836139578 -1.1595459284733836
Ni 5.101418601112555 7.8883896568768375 3.6598774276097696 0.37823164362265826 -1.6164571854861323 -0.8120289403257627
P 5.565457254895741 3.274352287957988 9.615831763690723 0.4500924343187022 0.891941911902322 -0.4292281892751833
P 1.8286802804488536 7.691365752260515 1.2491590388248328 -0.3433973095522925 -0.238554407503273 0.14798395621286772
P 3.065043786564578 -0.15900990236722015 7.368281779290115 -0.7962783623597254 0.2628585314662763 0.45678732984037457
P 5.622204344962877 8.147039444124168 9.576538577077521 -1.181710894606197 0.28994407482915874 0.9589690286551484
P 2.7531054105950115 7.709488299307797 11.3876469038932 1.378828118010606 -0.4306613221772841 -0.05707283375359203
P 5.089318457740527 3.19485287037653 3.280845047816149 -0.5570166443767826 0.5823142426013067 0.13141885276533496
P 8.219732531058861 6.021638193623312 12.37981346931518 -0.910318871747613 -0.08100491908915727 -0.47751993440203566
P 4.427213737602422 9.252828384796937 1.8203817217551417 -1.5410994373804232 -3.2395128501253883 -1.1101321539269462
Ni 6.772243657509872 6.867181825094968 10.771880568174618 2.045580216642019 0.44502761820128517 -0.32967456064956124
Ni 6.676872024422882 7.932188117908664 5.964579377301623 0.14913092533311734 -1.5755082538775964 -1.381899043626446
Ni 1.3960263735368619 2.2330205896839224 13.261144750436845 1.1029752311671908 1.0667728131047047 0.21145677995553258
Ni 4.982695166944792 0.9066558113695693 3.5595854999427665 0.07848369532920031 2.393403937396781 2.302373772861138
Ni 4.459649868882467 5.444704833272303 9.868803152863238 0.36067152325170787 0.0207634577995965 0.3142078324725298
Ni 3.847845592304602 2.54757820400536 6.338401870669284 -1.5182646988740949 -2.821571289507618 -0.7982012904140512
Ni 8.496698541428788 3.1905643287088523 1.2664247998056042 1.817163154683064 -0.67035318571911 1.9442458419668904
Ni 9.158047002606143 5.337758749017711 2.351189741369475 1.0471367840413321 -0.9611202706701965 1.0152785018801547
Ni 7.335112445724951 0.43496510807741084 4.025398595482644 -2.0815044413424535 -1.343505274339596 1.4406508077443576
Ni 1.7771347764044487 1.30035039233152 8.53294363552335 -0.0291154293087176 0.9740436636000838 -0.9100530196807359
Ni 1.2086032686539856 5.768614235230354 12.371160760083749 -0.041544141990373616 0.7392600359931526 -1.4484379078889442
Ni 5.108437053175139 1.8969003723108078 1.5129043513869849 0.9424458341891447 2.8095827496871744 -2.214701211943818
Ni 5.179460836794028 2.325763761748788 11.494945294151462 -0.582464395025926 0.05720061758070794 -0.16390217010502095
Ni 6.657624311604725 9.123148418368528 1.4464116656634307 -0.37565051315904335 0.34708607125778934 0.6583499906106467
Ni 5.3614886795788586 8.963743785714476 7.578950624545852 -2.077305829880074 1.3850157348785566 -0.4633953220751955
Ni 4.612497182986586 4.357112221008841 7.587386601026336 1.6353493944049446 2.475909609401181 0.010387256771595015
Ni 4.997137868561098 6.518112978686545 12.040006950641912 -2.6313235395295327 -0.21156785161210015 1.071655852228619
Ni 3.99050185577908 1.7384180066820634 8.807269195399824 -0.16608143714452686 -0.4799851081130766 1.1501164076293677
Ni 1.1532949151463283 8.247529659201613 12.69000414927179 1.0775339082759505 0.8548817738252309 -0.2681202940858479
Ni 2.6599564410390104 2.259858560120354 1.8235275745784636 0.7096884929836229 -0.9723783600825189 1.6947287648045262
Ni 5.126550377552169 5.883169022443729 5.147229448793601 2.085211714990712 -0.5745713654310943 0.11684326894400522
Ni 2.021037513917122 6.152692337919429 9.957055806781884 -1.1991933676616766 -0.8128105556867936 0.7337506761391491
Ni 5.729648453411135 2.4293527940312636 7.541964950029968 3.414212110845914 -0.788039519389701 -0.36735304903694155
Ni 1.2813055782589315 0.9683803765722869 6.209910706436497 0.01649748343439094 0.20016063821642302 -0.36338018043212256
P 3.4195447857520596 6.5682843048632416 4.336129723916083 -2.440965489225828 1.1433286952835728 -0.4010157313967094
P 6.3830746408411025 5.7736129225075175 6.841564936200044 0.3223543728390642 0.3894995032269937 0.7126324061032953
P -0.15594151997402395 2.2893803276004294 7.38222553444573 0.9029498329770514 -0.2688173201528725 0.5168729822783614
P 0.5457459786232298 1.209442531647015 11.7155340435314 -0.969695156823401 -2.415995449544052 -1.3678623630277216
P 7.380534096721317 7.219967407615379 2.1532638596024034 0.28211300882051416 1.4787108478408726 -0.43486507584598655
P 6.363743923990669 1.0435082484537903 12.634755743120776 -0.012295015317269148 -1.409573626723579 1.2434770200704004
P 5.323094703315331 4.894572552676714 0.34053142055515734 -1.1815651130569522 0.03343359706809726 -1.224825466407484
P 8.904571133370782 8.045119715157497 5.4889395266071 0.7494457182769028 0.2880088054796588 -0.19852953037090323
Ni 8.472581258717012 2.3025134100408 5.118019407568079 -0.269252093697446 1.0171541216363127 1.7724359869790183
Ni 7.38685162584467 5.410894524124551 0.9137434334590532 -1.5086228049089567 -0.7147684786096916 -0.7379503160427936
Ni 1.3148945433206105 5.81054971687106 5.0743389967154915 -0.17144887210402732 -1.4597057674932796 -0.45917279935341565
Ni 3.7461748754347655 3.3283417996194564 13.291192210121345 0.10775827592360153 -0.06861914383029472 0.06897267051497154
Ni 2.803387408814746 3.918242234346281 8.959084492702626 -0.46308833235773794 -0.8033877197109971 1.7327492099123578
Ni 8.73152617141244 6.137880729493 7.017596198786328 -0.5598965370277389 1.1124782855616195 -0.6717025006581528
Ni 1.0876295029444742 0.47856712623284703 1.2345623186153 -0.5745173722647073 -0.6604732076012367 1.9425203746353514
Ni 6.781945906616101 5.455928822970289 9.012821303199159 0.47253970757862485 -1.47946083863302 -1.4853208969582226
Ni 6.152627779227658 3.596509382567955 5.383125986259585 -2.157428089253962 -0.13599027418610127 -0.013370764879951166
Ni 8.019923380026112 0.3758127456082743 6.932003362968667 0.4974485550051626 1.9311522420077256 -1.2097348906229488
Ni 6.365662239403308 0.9766162211082778 9.341802251529373 0.39239507960723385 0.2358318663657874 1.468188093932678
Ni 2.59348865652514 5.978817335638312 2.358681316416043 -1.1564351507585438 -0.30563860274628013 0.5208535641926642
Ni 4.064670569954264 9.11754103485466 5.453398122252847 0.2529315021605515 0.44063874510497014 0.6285627320458852
Ni 1.3540078878638777 8.888828035248794 10.009645317098938 0.9971931051333537 -1.653235016436114 2.6119541338639856
Ni 3.4943590868449586 7.766189276023668 9.159993908296565 0.3045451125717852 1.073295701824887 0.27337845716099374
Ni 2.9510884729176525 1.7669713937855662 11.219457677823101 0.25466493991189043 -1.482046339972009 0.31857099453723203
Ni 6.716151377030704 3.231199413843876 0.012034662413230259 -1.645634578381037 -1.0060772949968608 -0.43078216402586456
Ni 1.0670445029396234 2.7271343711623683 10.384060828163872 -1.7729525216041206 1.7981128229198324 -0.7222257062186852
Ni 7.193092546497935 3.3582324739096543 3.414721329209704 1.5530049305687579 -0.05932614856414299 -2.1884350791584373
Ni 8.35220696657395 8.69603733627863 11.535507520191485 0.43984144601465536 0.6773301312575755 -1.3891618958364464
Ni 0.3575112787580834 0.6513750655656843 3.9913697090498936 1.1995746622604955 -0.474621272698002 -0.8994053101589027
Ni 6.811947252949335 7.923288241114452 12.970715486031487 -0.2580207437580008 -0.3825181868131541 0.20432299712422874
Ni 4.954178670522301 7.116295371300626 0.9134021946596895 0.1358385790995854 2.070536115256408 -0.3837204346513714
Ni 3.6208849000468173 4.125152841473893 4.720007694660667 -0.9520273072299926 0.4330979566432348 -1.5531789942527767
P 8.972846561254256 6.693380604175876 9.341154820077605 0.06729194037843894 -0.022549088945109548 -0.5418188535904217
P 2.561928678919136 3.861485921608892 11.490679809159417 0.06689239094717513 1.5998977384655544 -0.2428268096263818
P 1.562587798307295 3.9562949718104456 1.3840359799408464 -0.6821476072508769 1.6175959270762656 -0.21761765735060584
P 8.150470277458309 1.3046297113289442 2.378685288194951 1.4558727669004345 1.169030213814735 -1.552597153607378
P 2.470200000582108 1.9397212302958091 4.313911389009414 -0.22905418132232164 -0.1801242883908382 0.6426148392635771
P 2.6472107107492686 4.193880180199766 6.833492332927531 -1.8143429116254497 0.7390576901743594 -0.6594378243581869
P 8.723059760120124 4.528367984938087 4.756061879480991 -0.8378507864848731 0.39271801016429136 0.17883205194197588
P 6.01450906951769 1.1198258447979395 5.757339520845976 0.015579856716128005 -0.3508817908547957 -0.08818575310831264
