# total energy = -381175.4271368562 ev
CRYSTAL
PRIMVEC
9.20724742773828 0.00000000000000 0.00000000000000
0.00000000000000 9.20724742773828 0.00000000000000
0.00000000000000 0.00000000000000 13.47573729333617
PRIMCOORD
 96 1
Ni 8.646176142286453 5.899691076828071 9.528828912689569 -1.1642464192728466 0.2541733449874526 0.471026356257892
Ni 3.418522051967781 2.2266530854428455 3.003027520024899 0.8100124241163663 -0.05992290160787745 1.2878637737158916
Ni 1.5115445956742206 8.777572769693984 7.92626699373216 0.8411803650787384 0.5935599907184551 -1.5606305654348154
Ni 0.6308115363505293 6.656545226232724 7.507508492591887 -0.8169466893423543 -0.8679018402339828 0.08243856621189029
Ni 1.3508044708560116 7.706447645354063 0.4776922501915042 0.14104634855276998 -0.24947696795304775 -0.5145109098040881
Ni 6.7414176326122766 0.7550200657258921 12.45631096793423 0.37153700521130206 -0.48122258006460344 -0.116093021041542
Ni 4.947891878576132 7.834999233320144 11.202393440568283 0.9336223223602437 1.521865785961792 -0.2558918703404561
Ni 4.609313770548867 7.250882252074183 2.1583417549316906 -0.9013264384410155 0.8814790646977851 0.4642584414064392
Ni 1.618735369710971 2.8671828714064813 1.611860318089837 -1.815057935414603 -0.9968393213383607 0.416174955635651
Ni 0.15682428250607788 0.5079785697342363 1.7523444986647156 1.032528032989222 -0.4024915446112875 -1.345565242192418
Ni 0.621509454319149 0.7793216744694583 9.790648961456212 1.4876644574897346 0.5329500903458821 -1.0036247196913102
Ni 2.333420326099963 6.040000319702666 2.3135418789993487 -2.68232856982249 1.0474669136872412 -2.011662995069284
Ni 5.456325286331105 3.466399738361107 3.0512569232682685 3.183722482628646 -0.08210355146997474 -0.5075671314964033
Ni 2.3756539698473063 0.14498744527006632 5.4681713308145 -0.2388714245230596 -1.107556679890286 -0.6068507942900904
Ni 5.724698133060464 5.577962231512303 9.16479460709687 0.7347747465282893 0.02421567801425507 0.46929806071287566
Ni 8.994164057139484 4.4016903420547315 11.341948609882182 0.50779647389839 -0.883362397763427 0.351780134299349
Ni 0.6905813034641669 1.664256000774164 6.357987339681848 -0.08938157318862672 -0.9898785737498113 -0.5371389316162491
Ni 2.6255294565835516 2.0416242420274067 10.738760657131126 0.22051940437843312 -0.13892236023123172 -1.703521680505808
Ni 8.026031202029515 5.4213469535218275 0.37371848839049 -0.12675204341728494 0.16304882096579018 -1.3808875716427962
Ni 2.5009830212292203 5.937449998347115 6.438869325045466 0.695856215086221 0.7591346634298927 0.1092194338501603
Ni 4.551170003323126 1.8689423173530162 8.806057230923798 0.0733556300740156 -1.0077845074959548 -0.36392216897852164
Ni 7.885445741733419 2.158942988185822 8.299369517272705 0.4069624358984475 -0.7895451574009499 0.253810305221079
Ni 4.4510596025241576 7.343626854966485 6.138736999192042 -0.14539228422629155 1.7471450736227137 0.35506626124978846
Ni 6.528868326768059 0.682866550881673 9.591787149572056 0.42664988702504586 -0.567266861349881 0.9657068615996142
P 1.3433834294650462 7.969434252364174 3.6762623694188687 -0.25408721303154946 0.04087462672717476 0.15493159117529448
Ni 8.361267079256631 2.9075474439350084 13.418061359158076 0.6624488432703688 -0.17287146348316682 -0.12873693505779762
P 3.4091030378946328 1.58081992498641 0.9490931882459775 0.0880389431178032 1.0844303782854678 -1.0407895016670654
Ni 4.134689375185489 1.0400322499264087 12.40949671861368 -0.8916189813452644 -0.8804431672341031 0.9471908050732978
P -0.042526434214133546 0.8923618127688396 12.621820446897006 -0.3748511571861996 -0.41745870744408103 0.29544289316020084
P 7.916142704509449 0.7659288124256637 6.459406090333988 -0.40161968352929545 0.12895702148840374 -1.1489884646725115
P 3.6995732783439883 0.193123855314864 7.143326871041053 0.6728047325833961 0.002024743739512642 0.735665633773675
Ni 3.6687382068572094 2.244008746760426 5.775363773961463 -0.27630385833790483 -1.0693876250197325 0.0025834444564600666
Ni 8.264821162916228 2.3841890881716545 3.5539560573529023 -0.6299382722371731 1.029991382610297 -0.8242450227759806
Ni 3.442875221296694 4.395521486307899 4.694973396579696 0.9695282922282336 -1.040368612079563 -0.0056888228546611705
Ni 5.786193338333738 1.29638963882052 6.809963747931707 -0.11456012933678335 0.3602768589164505 0.032573305950331
Ni 8.873908199065786 7.184378304224376 2.013894775083026 0.5441863253813338 -0.005333239287455332 1.917292710416814
Ni 8.113748647850517 8.793795939583415 8.208907391006731 1.0206690767681068 -0.678472729502451 0.7807105898284554
Ni 7.299082192125925 1.4052745463758034 1.579761091537327 0.7610138827304765 -0.2865905849758935 0.9395746832889368
Ni 8.468540718519831 8.390094970813843 10.97613638481976 -1.375544819273644 0.7198705757229473 0.6209458389305758
Ni 3.300236544834116 3.9055301950617407 0.6224605629738472 0.12345820315736158 -0.8159074494445625 -0.26758730440051337
Ni 7.702166275320814 4.6092401125698 4.118805031999765 -0.3212860794755499 -0.5379580850834348 -0.4492835652641617
Ni 4.283616601610883 9.045485254054178 3.9578512990422623 -0.5982175440951246 -0.8806717383051414 0.14589339223242617
Ni 2.264255483756373 4.484270143835836 11.437046585205666 -0.08377888228986861 1.336821434561517 -1.7072474660968278
Ni 3.3756254864088375 -0.14196010233042677 9.727218392782962 -1.5998640570141414 0.37822958674012924 0.3120948998945851
Ni 0.8017385596736566 5.79266603324422 4.547333343338491 -0.07151420598990264 0.8607464601361241 -0.2598698811515976
Ni 3.3220945501221455 3.9772086159409796 7.505823566320737 0.7117271206802065 0.6113430257334891 0.07582054667474039
Ni 8.299265475377274 0.11168114858560138 3.844951110903108 -0.8942659320498082 -1.0719325029287734 -0.12127199413932016
Ni 5.706513819478384 3.3858639454991026 5.332241054795417 0.19560567185588892 -0.39375802139303157 0.2718298817269512
Ni 5.315205805686777 0.4397777261916816 1.2401775520958018 -1.337019666615252 -0.48411944199642426 0.6351388426015061
Ni 2.3239092395529806 1.8207607917960404 7.864615265253369 0.494166027599149 0.2867916452431061 1.043379630991745
Ni 8.056092864736094 7.984313164135638 0.04439274325873493 2.1965975603645718 1.2804942207246979 -0.7866683500737871
Ni 0.17515959494524508 4.660395579031593 2.2678720905285457 0.5286856586425733 0.07349446964472504 0.8738099781883015
Ni 2.717233640521538 7.020655031253968 11.198216112430465 0.9838339102176283 -1.0877589284380687 0.8035399290181452
Ni 5.945064391933131 7.609568988386645 13.712910566462945 -1.151497090026978 -0.5038922537479774 -0.5395403419688901
Ni 1.8413574041925538 9.133672269491731 11.822115768170327 -0.7816061050595312 0.45878044901100345 0.22661471864289356
Ni 7.6503663015421886 6.884047101827472 4.232540317476587 0.4121565785048773 0.9693339168292402 0.4608658707851224
P 7.437264560854971 3.839201184912217 1.8362446197205895 -1.061726508930049 -0.9401405830947357 -0.08691434259505676
Ni 4.888578790932708 5.609773271221715 11.614226250226814 -1.3417206716353474 0.11175608422908494 -0.6625468023008138
P 7.218076829647371 3.9646131015205817 9.647899798025033 0.9922049078901429 -0.25126928396678017 0.21464263388268193
Ni 6.908206918961334 6.914348152966017 7.381887571467921 0.23570125432519407 -0.980078556940254 -1.0348582237842952
P 1.7700656877034147 5.55650934510914 9.352929975779443 -0.7849819635102997 -0.23161757117412368 0.4566549180275684
P 5.364611895145736 1.7538333105666004 10.961245503626698 0.13482196490961298 1.5611923514755566 -0.7187169217344783
P 3.0034961689167106 5.868478508198576 13.2966987899489 1.2164069033264857 2.0838747413468433 -0.7970134407535371
Ni 2.65777323691998 9.163872040909059 1.9845991553587405 -0.5838597327115558 -1.2318618044289753 1.4498841534171674
Ni 0.5486460607016751 6.497996426291747 12.02979075724981 -1.118771574769499 1.5046473652009764 -0.9626757880827743
Ni 6.597655671968932 6.06722615021518 2.1279808566851535 0.3535547097012685 -0.8914480029850389 1.0236723823708047
Ni 1.0201906318153284 7.695721202152482 9.79617330988621 0.9014249116920926 -1.1201802821915676 -0.21936703594154477
Ni 4.097372401540845 3.8074822176766387 9.734993913198187 -0.2040967400460356 1.4758237561010645 0.5192306838772606
Ni 3.6111192527323186 6.4254893531480075 8.914792981071471 -0.5288016153951473 0.37208799261876563 -0.434718008745161
Ni 8.483769505691862 4.272107542381718 7.755448615928156 0.5725111404679559 0.7007276842459094 0.6831089427228816
Ni 7.033885845743816 6.561010827383271 11.875425730519819 0.6491546972646239 -0.2729639953313944 -0.767483035394588
Ni 0.04335232430441842 8.29903529419269 5.834953999751126 0.27930279306522865 -0.16985710213687522 -0.09862263217092047
Ni 3.6141760588635847 8.235404007526483 13.408870684820034 -0.033060015778762414 -1.5011370380548728 -0.023703257154210792
Ni 5.805151060696018 1.4313586782127825 3.694117063544626 1.0955923084395582 -1.0315373869411781 0.6832868630616425
Ni 6.790878965555536 4.114810928084875 11.841857948009668 -1.0063426328431055 -0.7841144733036818 0.011402585409986813
Ni 1.0562185908263064 3.5188902556934827 9.1518851255407 0.3010975203428169 -0.14891880932231127 0.44248942516046375
Ni 6.406798640959844 8.660134329319586 5.368302159896976 0.22379961779160162 -0.08009320590816528 -0.04795904437778192
Ni 5.951049102732297 2.602861213525788 0.24037084526243185 -1.4467952300791986 1.5390916629217752 -0.007858833922786466
Ni 1.4692741229373436 3.9294045875267205 5.912075745283391 -1.4695394657542498 -1.0780573848795885 1.638596954807965
Ni 4.223705042887542 3.474189069647406 12.06148578564219 1.6721513937246426 -1.6097689748326793 -0.26847202099831186
Ni 6.021410887235719 3.737433479584249 7.641753842339821 -0.3354613425346675 -0.3801581712214098 0.6040182099373017
Ni 8.126703244918867 2.9896392616047964 5.826275248367597 -0.9253400277467935 0.0962890989417374 0.05831776190428666
Ni 8.310452280948022 1.9709494111129509 10.787502904053747 -0.9906061959444552 1.4244073493023015 0.9131509418797693
Ni 1.1246928896161459 1.4904323774242403 3.7247882460279813 1.1775608769935655 -0.5148880906378488 0.8594279984350167
Ni 4.153278807652436 4.901901677896389 2.413598877763494 0.026731759567889445 1.5206859067210778 0.2906038199003447
Ni 1.149239411140109 4.930462559279485 0.016386138168115846 -0.6925654601500911 -1.0320251252108743 1.6328237997696138
Ni 5.587418074574985 5.609662784253115 4.498092984332432 -0.7102556783410027 1.0014675641389914 -0.1391786992164119
Ni 3.324488434441812 6.56628658013392 4.203756620706815 -0.01304217789593883 2.255261906975 0.6352815388269576
P 6.773560133227488 7.407985514175976 9.754641258389476 0.6409418224365284 0.7856311670585244 0.3288191546278015
Ni 1.5272521597101847 2.660332851692546 12.61574274289927 -0.7326119345490156 -1.007625356210271 1.0181730498191304
P 8.307257366106006 5.4000229685820305 6.068636700514306 0.4702835645545965 1.5059617131370258 -1.4481725700426995
Ni 5.3520808314570205 5.109764494822492 0.3720013367534985 0.46261987736175164 0.1404115431822485 -0.4911974318891283
P 1.6537505315097822 3.6053739303651193 3.861755258102427 -0.7466388449557271 -0.20177169145728474 -1.9460003627641518
P 6.671368894519888 8.224226409203117 2.5803209512066534 0.13893521574703813 0.6588282157986459 0.14258104002974156
P 5.149926507908585 5.4538945730219055 6.6432416744885465 -0.23438022152092536 -1.0927892917731243 0.7337326784170203
Ni 5.157154197104501 8.32130762561297 8.559020338555834 0.32152956294492363 -0.3821446055238193 -1.4991984262712632
