# total energy = -381166.75527930196 ev
CRYSTAL
PRIMVEC
9.30794822316555 0.00000000000000 0.00000000000000
0.00000000000000 9.30794822316555 0.00000000000000
0.00000000000000 0.00000000000000 13.62312308643019
PRIMCOORD
 96 1
Ni 2.2742202961865376 1.7321440078346233 4.780667384862144 -0.654297417807828 0.07030270218030474 -0.11762411297408776
Ni 9.147860817139149 8.350365121722005 13.625983583900366 -0.7606888952908899 0.9789238745105205 -0.7914639716902176
Ni 0.9252770701510425 4.462025601112058 10.512269199139764 1.0136769617209895 0.9858447700000699 0.36321100184411
Ni 1.7959686087692206 5.5013510991953485 2.8354346568706124 2.913011030776854 -1.0825323899318067 0.9369927814943734
Ni 7.626011283406225 2.8830718050583295 3.5081312441630828 -0.3226377084074379 -0.8101535776799207 0.023808929494139642
Ni 3.97003538212416 2.0843846922692104 12.013142340767363 -1.0962865062931053 0.5650603406168656 0.32872145270767256
Ni 6.84180733804517 7.743849907853068 10.37745473873193 -1.5179078297553084 0.1717707742198203 -0.9701047335569937
Ni 6.761852062847826 8.34422187589776 12.812642968230783 0.47132409000396885 0.12675075786570428 0.7450974686105362
Ni 2.5714044669084015 0.17816716003055277 6.573074772642949 -0.35158678734162035 0.4076610046273689 1.4224060026015566
Ni 0.6459492672916448 2.8013666355958975 6.4812416247239115 -0.5128016404224652 0.004291428286502287 -0.17937841136374913
Ni 2.3919658411511953 4.5468396252794845 5.021292739028811 0.16284827491920983 -1.4082497657058326 0.21908241482159044
Ni 7.2614375675820595 8.495429494708107 3.8610793326622797 0.058440146414763874 -0.8185379450888741 0.33847081878495255
Ni 2.3016228957419487 0.20736340120767852 12.942893741627065 0.7664152562517059 -0.2805965721759877 1.455517440443545
Ni 4.265236959875473 8.407674158903617 11.04441576833213 -0.9892136864723029 -2.706590527693648 0.1600303458544405
Ni 6.920450192543699 0.3529406421406222 8.680177374129174 -0.028450799141525193 -1.1122671979920782 -0.5438978476066375
Ni 7.157235087275392 2.0423965378553315 10.06710633684457 1.7769585574397204 1.0274177083458498 -0.9664789638789484
Ni 5.739494954366951 6.275083602810535 12.057840038907663 -0.6868840934945976 0.37122641594941874 -0.9612110306117897
Ni 4.033943754592725 6.199568218913439 9.27434931786549 0.39611366610940174 0.8561254164243448 -0.3069938312225939
Ni 8.52229223326684 6.317639542065746 10.750660645733978 1.2888569908670964 -0.42323237670306463 0.26893970466334977
Ni 0.470510266883949 2.2799912240820386 10.363369020692799 -0.3271785337005849 -1.3669321379039685 0.5100428467304055
Ni 6.497599412923192 8.349052701023188 6.632949080353592 1.8529485398127894 -1.451694467153029 0.18032894820247652
Ni 4.289865790861756 7.285433458089482 6.439582040882147 0.6436908459365753 0.7520980682980853 -0.18229841322402154
Ni 5.658767119467466 4.335400273546903 7.834181683724452 -1.949213727495127 1.4552870696002937 0.38382045056434544
Ni 7.7113744765185475 0.23767473458138658 1.4912552387333715 -0.4371289321794988 1.254673145896536 -0.13793197129350437
P 6.072282027024768 4.3889395917000025 3.7581287713910076 -1.0370025238208076 -0.25745458684188566 0.37977456262974596
Ni 2.8585267456060133 5.693420610685128 6.992817628353282 0.8277103556167617 -0.5999597235972118 0.8471409535375475
P 3.9593219337246097 0.8746055308440783 9.995571031605728 -1.1922992116450046 1.0914147800231009 -1.0561973515817036
Ni 0.09373755412455138 0.5904301485524597 8.067544976691007 1.353320974878437 1.0404765984123372 0.7081478879693803
P 6.052847031144436 6.89798080554412 8.254005518584288 -0.326466852345541 0.0007739020515470543 0.19215190897933357
P 5.576242850561802 0.8921742831065914 0.5764123785353233 1.3194551753689274 2.1130493060282705 0.6098417585976142
P 7.862907873516541 0.061027562494923006 11.227905213154049 0.9029071526645741 0.6327952820699941 -0.3494995657952884
Ni 5.057566744031322 3.446211980228823 10.228390740396318 0.02982891043597443 -0.5711571975432228 0.084889341745228
Ni 2.269147464407428 3.13361384725704 2.795928001451799 -0.5778022136635661 0.25863703718576103 -0.27289046178098164
Ni 8.048927218664263 6.4201293599002005 7.26000786673569 -2.2981527928012553 2.3946259827293406 -0.5176024042452183
Ni 3.467406178322461 6.450194032646116 4.340136157600502 -0.5416581596428414 0.10042034750129157 -0.4213714122349259
Ni 2.191063086802012 1.4891414036929387 8.862373014148716 0.643794461393975 1.318678445103903 -0.17207879237854234
Ni 5.675465578571544 0.8050909811634814 11.205645254989388 1.508499906177847 -1.091366443283669 0.5394210427822065
Ni 5.7348502882058945 6.697152514780685 3.501946112571856 -1.4064160549312037 -0.5826148045608611 -0.45877350703246794
Ni 5.64539159787741 6.303007447466185 0.8017196423187225 -0.6700335975961622 1.3744371880317618 -0.5120989579284858
Ni 5.787412271796046 2.9965356938424543 6.016761046695939 0.08881284516935027 -2.1862730385101123 -1.152488250295654
Ni 7.564262354924365 5.818044729383294 4.465359708163942 0.8426420372259295 -0.07569919060552768 0.2413404548888424
Ni 0.3014164947768388 3.759927066986831 12.903931601179034 0.19764558510405317 -0.24139136273143588 -0.9726763509389119
Ni 7.6542702141977434 4.458767819235565 6.343579862956023 0.8190678494504151 -1.6482373061112066 -0.4225677465358722
Ni 3.317464440469839 6.712538553185948 13.077626292090574 1.9207364459910405 0.1525209248512728 -0.7259383791835821
Ni 5.452717069753426 1.993883511740249 2.4438381057783523 -0.25611992719086213 -0.5183480241619912 1.0045312906659798
Ni 2.053230989581724 8.455842790934613 4.533421287127623 -1.6452075181459473 0.426070360372492 0.38162961356061376
Ni 0.9313439907998934 1.939031772888334 0.7322916565565583 -0.7698222250507257 -0.7578365134437594 0.9639441132722365
Ni 8.23234033831079 1.6389807541151564 12.733233138799047 1.6474297226082466 -1.3194325496611081 -0.2487431751108168
Ni 2.457866114538529 4.779650026121857 0.802795641132787 -1.6261571863827153 -0.6212854816581815 0.6273993078654033
Ni 8.301135383594094 6.208150147170943 13.20549236915326 -1.096073618951351 -1.2131449447457623 0.5053572683292781
Ni 8.01293338290313 3.920731180410501 11.110010741017897 0.2451235760803585 1.3582070993261448 0.20909625014315605
Ni 3.644378197801752 6.972332695913897 1.8091914800084927 0.23539889259342686 -0.07709735650463496 1.1924084835293594
Ni 8.98243065345086 8.502829313541854 6.1520520740525635 0.7167615977803204 -1.6445220620431482 0.3357536769641056
Ni 8.953054768873116 3.951968654631955 1.4408768997952917 2.4890384334736555 0.0890054207961306 1.2726089044393505
Ni 6.413893034593772 2.7375978823506117 12.119238988536507 -2.1771322525511088 0.9864464081398107 1.9740235874499554
Ni 4.524286466745938 8.623674405263287 8.345307182660044 0.35972947105341274 0.3007995294864239 1.298965282945692
P 1.8202158138785434 2.2441090836995286 12.534390233390628 0.5992498420143808 0.7547396196859906 -2.053336720658986
Ni 0.2242340573538004 4.023090686969896 4.351375505074401 -0.20769037093456488 -1.300570936869915 -0.19171662121412789
P 0.20139979878405356 6.205236759378537 2.020704364532001 -2.8218260858309017 0.9639466843753979 -1.9673903984041534
Ni 0.2793082561681388 8.281560768490483 2.761025988016702 -0.05998769340754184 0.42347046085579976 0.8735803786759987
P 1.564200698127326 7.7127892846477675 7.183636151602487 -0.7459719007956895 -1.0073798158583682 0.2715056656183131
P 2.3119081785234465 7.346996227606971 11.219323284896547 -0.4818604707589185 -0.835421093997458 -0.3856739588333164
P 6.7219395808866835 0.9628234716750296 4.766703600944676 -2.3797359529913855 1.6168618771237186 0.5131993900815162
Ni 8.78119281296581 0.8046004522923638 4.611468432940165 3.0089203777816698 1.366321243792847 -2.0397610388570806
Ni 4.833943288080659 0.29002915092626474 6.210209996111708 -0.5268339501458152 2.9764524870609517 -1.9850998998687748
Ni 0.6596086813023669 5.661531580088376 6.541864291471328 0.14347501259892065 -1.6068901106229874 1.0621096033010804
Ni 0.7855498746734576 8.967370393233246 11.433205973036499 -1.5150536481359649 -0.17750896225517818 -1.513342578982129
Ni 2.114244590154319 8.573513872313523 9.226478540177489 0.17053561626113856 -1.0555656315349757 0.3897324451734062
Ni 4.7949988327342465 1.8823742920820201 8.25092644931359 0.5664762471277857 0.009911345576440996 0.017537237552814958
Ni 4.527134698900815 8.686428592152753 13.47412720109919 -1.2027548597606896 -1.140797701331603 -0.40216835694391384
Ni 1.3431927756260749 5.8166019974094185 12.85377106822927 -1.9481487765657224 1.0633627589818913 -2.233871871334998
Ni 5.423955509758106 8.560920218373823 2.1423452858261216 0.41249622123248314 0.881824363852346 -0.34348241306693106
Ni 1.324967813014154 6.196468672156663 8.912710398114633 0.4669210758402669 -0.1344283290156201 0.4288224691963324
Ni 3.2412788843010074 4.010255026376515 8.842346963556505 -0.09876609972732023 0.9820014849945796 1.4961760945051714
Ni 2.998015657609203 2.846035479096719 7.005991167466996 0.2172196505812388 -0.5100176499194249 -2.837242934606604
Ni 7.824233348668466 1.2762313961418263 6.638574804256884 -1.525193307673128 1.636843205341652 0.8108626879318035
Ni 3.5429494860642126 4.919008626849988 11.286348889223504 -0.5822149980192812 0.23849064414487314 0.041443868967083464
Ni 4.174782319087604 2.9814475097801845 4.115340830969123 0.48657304574323945 0.24963149125304102 1.4154714802652526
Ni 2.095731081147623 0.5661875974172462 2.3898231514712847 0.8658994650919732 -0.5623030895867026 0.1712169585988793
Ni 7.033895465431386 2.646919850805498 0.9550364421953906 0.13860097233607097 -0.49472061455103833 -1.0151473756189293
Ni 1.6798333388463724 7.676851296575946 0.9536290804247458 0.4605663372668326 -0.5278832173459361 0.32971235586603215
Ni 3.5443177544523397 2.4731776893580437 0.9108748818724802 -0.2209503212682646 -1.3614379475586165 -0.2078333242703324
Ni 7.6214317728826995 7.2572210670390565 1.9524519726298393 -0.32394022926894533 -1.292859170047954 -1.0889382934581504
Ni 0.5451925894154849 6.2548946631245 4.526337007738484 -0.061971813717106174 2.79986886483352 -1.2786738796865074
Ni 8.904104269191762 7.872634679404927 8.750444936820651 -0.2975442557739198 -0.24944122961910592 1.1120959625215363
Ni 4.324528590027637 4.3353351179093735 13.52311586336824 2.7165833772403016 0.15385224206818665 -1.6082612799389011
Ni 7.012840886561026 4.832993877362367 1.7592766768916965 -0.9371745584878763 0.4409110249297504 1.1847607371761144
Ni 4.227372226522412 4.6172170217599415 2.431986295311672 0.6153048385947144 0.4438605944763775 -0.020863216602254393
P 6.520571429126573 4.635572295646922 13.084928377468028 1.058371476414887 -0.16120251178567077 0.8566684334120084
Ni 4.940891613111798 5.184843627971776 5.533875862655428 0.6230130058722496 -0.7636698322960849 -0.042942050779164756
P 7.273119042596339 3.07070142524786 8.089642045761844 0.12953192015526724 -1.9384760293626484 -0.5958413305534641
Ni 6.3923916742089215 5.334329276361688 9.816277609840729 -0.42005115076160565 0.9959456058794977 1.1150573591427053
P 0.47083697586642015 1.942196475282641 2.858362925717367 -0.9667077920603028 0.22632829775072633 1.2309768307208604
P 3.8924443257743273 8.429910847197732 3.6541571282001604 0.9117586895179329 0.2063863074111607 -0.7930552274367375
P 1.204792893564455 3.5926539295512696 8.378193094511003 -0.3358912309832344 0.03227042999793152 0.8634003528192034
Ni 8.357262311351949 4.817700918439289 8.785892396021355 1.831204977488111 -1.141891191506098 0.15572657627276407
