# total energy = -340863.21961766464 ev
CRYSTAL
PRIMVEC
9.31534869750118 0.00000000000000 0.00000000000000
0.00000000000000 9.31534869750118 0.00000000000000
0.00000000000000 0.00000000000000 13.63395442866905
PRIMCOORD
 96 1
Ni 8.079537333672208 5.93349523197298 9.517850470867396 1.052139379462246 0.2075661866518748 0.18094601296118515
Ni 6.940326072195562 5.817956961280266 5.146858742712283 -0.32896956416273665 0.023806615501294485 -0.47303798737128216
Ni 6.109452854734787 2.2347428526091724 11.50913016284256 0.6708185553913028 -2.406791414447281 1.5413740311980488
Ni 9.0114355084548 0.7911367342475274 1.7802944947992059 -1.0179334230044983 0.32796991925362873 -0.7037752128229815
Ni 1.078596287083557 8.700125868183912 6.145873073788831 -0.9826743426918882 0.42181441330961544 0.26792437602495794
Ni 0.4074915477714409 0.787112503582426 11.303966127107854 -1.0235458840952694 -0.939069461517744 -1.3275623778570944
Ni 4.320766162236067 4.882034555832572 8.500933902540401 -2.225147604088123 -0.018020604947136705 1.0321140853802548
Ni 5.089627102989482 8.920573596632119 12.468455518984547 -1.1870744729109555 -0.405655801271882 0.8759856456833816
Ni 0.3559655591652478 1.830894537738475 5.865736316614459 0.4002850238782719 0.19308933319193844 0.25310273763109314
Ni 3.038238260058992 7.509736080609888 5.610821797747561 -0.8288542394132177 0.3212040612847049 -2.0133774066572294
Ni 8.346077407793844 3.208774349841426 2.6843351191096083 1.1261300720170992 0.1695719667962886 0.12119588948574612
Ni 5.792861411715952 2.7859599848916856 0.2815396486979001 -1.5378968712827255 -0.6435170393628723 0.11478561508402811
Ni 7.5635415350580955 1.602864115398157 8.964638922414977 0.4463093131271862 0.12987464820666664 0.03451885971247603
Ni 7.893658864479076 7.579088852141554 1.1321427748361865 2.445333793496853 -0.29962222134887107 2.41254477199129
Ni 5.290969051127218 8.52161583986137 3.9801467086210236 -2.3574686569527525 1.0391095428614814 1.3092705215264417
Ni 2.429526795218595 5.620285260554682 1.4569512869978123 0.5617994104774066 -0.975397863635133 0.4063659399650292
Ni 5.875805277091098 9.18756080749432 10.40651145437205 -2.400346944373518 1.889349961259959 -2.90578031735637
Ni 5.896625081573741 3.1307583039612767 3.3561617979507647 1.8853791495376693 0.9836914711024929 -0.45032331938258574
Ni 4.137877919995475 2.267756448621023 8.038838574931868 -0.11773415618939079 0.3644973247557013 0.1498050685820065
Ni 1.5451648451675133 7.928321277221767 8.865110941639184 -1.265420357110711 0.30336574755170337 -0.6195713271805523
Ni 8.502379644668235 2.5729272740578795 12.39875901108357 -0.3228516241904569 -0.7907931708754381 0.03610214503919589
Ni 2.558581636964694 6.24326783969817 9.950073338066561 -0.002345360303724993 -1.178275386562087 1.4902599861310528
Ni 1.8109410606906806 0.8197460333647947 13.094377090662384 0.7494626875577672 -0.6460050958920488 0.30136080130653264
Ni 7.7216136881972295 3.511867852504399 10.50016238161402 0.4077905882266977 1.4423647051116708 -1.9520622526875155
P 0.1313054300069523 0.3142588796888774 8.421952786528529 -0.7348374814454248 -0.2671754136740753 -0.6057385350625181
P 0.5194825336556588 2.8299284310474233 9.360609246837814 -0.7737963792071254 0.62448933330746 1.445886345111684
P 5.999615577484299 0.9533700536785612 2.6980640801147624 -1.112117045567459 1.6784706510744511 -0.03999016723969241
P 5.0719931477833775 2.973273017794137 9.968465562661876 -1.893166763902888 -0.3382527892368755 -1.9794383307076233
P 0.4539155198607913 8.323711255416741 0.20844862770811964 0.3935042535110126 0.5045388861930408 0.8620178706493798
P 1.3523743871931182 3.465374946834211 2.3584423003521082 0.38885441344382704 1.3532533548652952 -2.4195397152518843
P 2.2229589364254845 8.590791619766563 10.96919857558498 -0.9282502594150529 -1.082677657260419 0.48618506627620134
P 5.166376261438025 4.4212880907247465 4.891508265523331 -0.5396447287572383 0.8474854813611599 0.05728443554376585
Ni 8.265685947979435 7.131626074368068 7.21845630324664 1.7144979770116537 -0.5630291691194497 -0.481993396792357
Ni 5.291723594376924 2.271752733239839 5.928670812849239 0.5934612603570618 -0.25188480606359204 -1.0784816169012006
Ni 7.3890184760056075 4.7715358888199955 0.9489750721327398 0.5181171390981076 0.21033397920499902 -0.5340811186265318
Ni 1.306626709423875 4.792299801210068 8.318334436111424 0.1668136873248611 1.111401250447357 -1.0854981574283498
Ni 1.6957195118558674 6.025083740999085 4.207479411339082 -0.3889744839614591 1.1082539630676267 -0.04145621026225763
Ni 0.879018666001308 4.196592563241156 5.674465192023115 0.06261561794869216 -0.14347629815050128 -0.2547747260168774
Ni 4.718941429710823 4.868098794084906 13.497274308424503 -0.11191189308065888 1.311048182252155 0.7339759047760779
Ni 1.5143403561146878 2.911512255503345 11.843911687388578 -0.12733285562141938 -0.8969180249606746 -0.49471495812408356
Ni 7.36205054134017 8.86450451243479 3.2638597332095056 2.5142149327392826 -1.291969054133517 -0.8475191628125727
Ni 6.4395794995045295 8.033240050326018 8.094915111408202 -2.9122335291808814 -0.0932261437456975 -0.7377502842168455
Ni 3.9518783512684386 6.714531333558078 12.276898413186213 0.5705547880725336 0.2436498197483094 -2.4178661842042035
Ni 0.26890989884663974 7.2557344659216465 10.927914812942396 0.3061651646737114 1.037265033453575 -0.6769385522461115
Ni 1.646096649001712 6.46862475694385 12.747461392819234 0.28878142197962525 0.9402218299546324 1.090067007745955
Ni 2.6541943766558997 3.659106255033549 9.636806543020818 0.7622374707249324 -1.5051489874277433 2.152041885241384
Ni 2.347123220071634 0.5975246625123407 7.956993920710614 0.1283535835764499 1.0659850270960867 -0.26376073156557156
Ni 8.609766985194366 4.478428440029682 7.386140033238209 -2.6293918697244587 -0.2052514224757691 0.20656962706656035
Ni 3.9363776109287882 3.064153560314344 12.271036264210409 -1.240805129665192 -1.355682276021762 -0.15365606689698053
Ni 3.0372880944852874 4.542797499973781 6.184716215055821 2.0524553464952975 0.7274807839700375 1.4533104054898969
Ni 0.41700624499675243 3.858687602255303 0.24758147632160227 0.6415617154087144 0.4284123782421074 1.1815771972418103
Ni 5.787151102924964 4.310109403252558 6.949989815001062 1.0258889304061494 0.882732477488912 -0.39606275826680826
Ni 4.782807460821785 7.042003103930705 9.813038968571098 0.8448413588700935 -0.26517715229712396 0.4802208782729665
Ni 2.0020547558879502 1.3201619111747833 1.77718596291739 1.0007314573039152 -0.2658045014684777 0.06542660503492603
Ni 6.254325158678437 6.83700953907834 2.6987599366672694 1.0381703188766638 -1.2609260687847832 -0.9181800196632445
Ni 3.5225898189292413 3.389221970706424 1.1434609235817843 -1.2227742403054103 -0.2545932061336906 -0.48556157375958964
P 3.0174464016226343 0.11657786361453258 3.9838691219862423 -0.008432189927753221 0.2928082837508312 -0.6505081259687249
P 7.459312097762217 4.807940271781145 12.324577162753782 -0.41389104469748067 0.3819476590216648 -0.8126501188495294
P 7.1175040056451655 2.655451948738744 7.081475962773994 1.2330974766082892 -0.9165070028361958 -0.33276528375974307
P 7.728721299302489 2.4522003541048374 0.7298231086973018 2.443648178264314 -0.9507327567882853 1.1002670882074082
P 7.281761550362141 0.05707327879385024 11.883545701765446 2.066232602785048 0.9202474437152345 0.21406850654676682
P 6.218153659436334 5.538095938429243 8.825135985497633 0.5878241166759425 1.1807567582230438 -0.15600039875944102
P 4.200486379023592 9.074845087476433 8.949300269143784 0.09571445738519 0.06539780867951964 -1.219880463697383
P 8.980107990568838 5.253204627246845 4.210505968151794 -0.5600873128823064 0.20139091107909832 -1.1136159987104886
Ni 6.711615629395632 7.291058268426426 11.361037542831951 0.7349590946249536 -1.7523890956304724 0.44922931498745855
Ni 7.930836421387456 3.667778844730793 5.057406243157261 -0.8066373369965463 -0.612502593259229 0.9909291265015128
Ni 8.721513908941025 6.494726364174437 12.962073055268165 -1.1633362487537513 -0.46167988204598553 0.3163930130493067
Ni 0.23030150436844693 4.878494723303085 11.378066931903415 0.31469274252874835 -0.09825496441885659 -0.49805662090280683
Ni 8.650335329052044 7.294905507465052 4.723947498135419 0.5950324614989236 1.5104338899757663 0.19018732905379504
Ni 4.644698100079207 9.128603965180831 6.632223706503364 0.6685261598127001 0.2835235160147956 0.399039581506945
Ni 4.9954302963100705 8.668155591233385 1.4591199001895616 -1.271134890996985 -1.2605229198090937 0.8940201345875893
Ni 1.6954586820905369 2.315879540324527 3.9746795304327183 -0.16196612942457267 -1.0989203443715267 1.1112930070042666
Ni 3.6796093376582903 7.170014626615482 7.70818840756171 -2.7433115372637658 0.5833000035533439 3.3313194878157404
Ni 3.186780811414795 4.3204028636343565 3.9022014593914642 -0.07201634243730178 -0.7585960173176033 -1.4616155829214827
Ni 3.190646681150946 1.333818212459595 5.673443298263945 -1.3502521061451263 0.5108334609525008 0.39075548712128183
Ni 4.340347025333389 6.414288327616218 3.7924750347912424 -0.1200355506290578 -1.9183589468977993 1.0552295883517955
Ni 6.209015302300999 6.806427249093322 13.579309927295371 -1.3900532973024642 -0.4678818970916393 -0.0011436266861399658
Ni 3.9627027865296602 2.2672627351366472 2.97032098377152 -1.008494646189102 -2.8290827673933143 1.3187589206328514
Ni 5.060358277179879 6.609491460919922 6.256267408895275 1.715935995009761 -1.0279509551415005 -1.1459288519105812
Ni 3.1927146885760673 1.1198073900057992 10.486583397723932 0.6718164005281978 0.35939059965675524 -0.04354291758795727
Ni 0.2053522057796944 5.681719985638812 2.08546345716631 -0.8804313401595611 -0.3447787632808514 0.42628196216266584
Ni 0.6250086674991815 8.151451826113373 2.690715201476571 -0.5692113866707617 -0.5170452461901676 -0.3669175041614197
Ni 7.9250236437600865 0.5121951363192958 6.607246461868326 -0.5733079253376384 -1.4059596841200754 1.1118337099990854
Ni 5.276548891243937 4.672942237525011 11.255961340333625 1.3257937159924458 1.6901977097033922 -1.1470166856581214
Ni 7.2777466350458 1.5586627855233743 4.547169193147697 0.24383802449971553 -1.0537566033506949 -0.2798771775114599
Ni 7.863039313099011 8.535700647189225 9.637515441061591 3.624694956923951 0.08335310760635968 0.7645563486660962
Ni 6.822561433148776 9.264663949195812 0.3775864836414061 1.0004740898774707 3.072514043372915 -0.4695857671566235
Ni 2.85045945971845 7.706522823203098 2.7090804115604774 0.5679320057377057 0.759263475698273 -0.6103757767242134
P 3.9964988718375025 0.7773798271960882 0.25161781694009405 -1.6724817804808683 2.6737801660318468 -0.23794865559847403
P 3.4531438939099566 7.224835454078727 0.5465510740877229 0.17201760012330375 0.1903325963824077 1.17579401490113
P 5.467653271092445 4.8644658080678 1.8816082279326385 -1.0415801158891609 0.06461439354627581 1.0116460473338902
P 2.5200067777420436 4.801801456947113 11.83450411667403 1.1653985305994186 -0.5364370204532181 -1.0348790497199014
P 6.500576403196853 8.180879012851927 5.742035005801771 1.2916661781811174 -0.552480447069326 0.6657431977509244
P 1.3426305323882661 6.596077358702917 6.86124714502169 0.09019198490506403 -0.3776796277739302 0.00497431328613982
P 1.9954874350108749 2.8488665350801807 7.114497011064853 0.5637902156551903 -0.43715515743174393 0.008832253579649304
P 9.229246993203414 0.1756641892758097 4.321786192925486 0.08961502935567146 1.0066303392868534 0.26742866733546206
