# total energy = -340851.3851568853 ev
CRYSTAL
PRIMVEC
9.46688325046891 0.00000000000000 0.00000000000000

0.00000000000000 9.46688325046891 0.00000000000000

0.00000000000000 0.00000000000000 13.85574056428033

PRIMCOORD
 96 1
Ni 9.169310871537238 7.862625353998781 9.349922913451167 -1.146772173747483 -1.5594062061094112 1.3519989136329038
Ni 4.327596416877529 3.5970748910429275 8.003241706848279 -0.4996298789271976 2.235449243124447 1.0522648492965168
Ni 5.343667547249739 6.560682745052751 12.242766760599665 -0.13369556461465362 -0.46671435914609943 1.6029799769353037
Ni 2.3439435330001857 0.2969903331482803 10.442309431121027 -0.28502375470940594 0.6536209605660936 -0.7842900796495977
Ni 5.174607943170814 9.16071494139368 9.231996786777971 0.8220099627978747 -1.8336835209355904 0.702464721541674
Ni 5.841540413086603 4.325030891471247 12.731693421606504 0.405573783081037 -0.9700646243476777 0.1083408878999489
Ni 0.640019067046713 5.9595545817755875 12.732317289223753 0.3016649628105127 -1.9957913181443496 1.5970841802761593
Ni 6.142416901877979 3.4778868288101092 10.218594669004872 1.1997536110405207 -2.7083869574724386 -1.2446299027279208
Ni 2.3845469959800556 1.9884431268868592 7.376380661064265 0.036838766094904295 -1.278850514473688 1.0860157204947167
Ni 8.420149052252563 2.6280447043748376 1.5770739082821128 0.9265147647811851 -0.42918525185238987 1.2270389291190351
Ni 8.510396851876507 7.8227413741586815 6.987242524790045 -0.5547072795173157 0.08975592580890994 0.5776561750040051
Ni 8.905667635228918 5.932488762083481 5.095905954563482 0.20416873093455162 0.897526605078951 -0.25648219562628727
Ni 7.911351402951308 0.38866763216834466 8.729338411373298 -0.14284457810377332 0.9857231568205412 -0.1597560091471313
Ni 5.08230582984516 3.3319926884550695 3.7939093843819687 0.8277831178362259 -0.5482198720207591 -0.9354442060603307
Ni 6.021023055808764 6.718372622146639 10.083113153721307 0.6329701170849615 1.204426848146474 -1.2555493778539022
Ni 7.932519354273991 0.36275771894157743 11.37527268534316 -0.12862792028375913 -1.0919143453673388 0.23528859226780768
Ni 9.196868969167081 8.60594610621454 4.875281183194968 -0.5033044995653074 -0.5482530392515397 -2.029994703498936
Ni 3.0463010806661903 1.4609862503686948 13.156856836039642 0.01490648479818723 -1.5316480621595363 -0.33952239997791844
Ni 0.6163916194120292 1.6517723518919658 12.123828624089082 1.2152208534381845 -1.1784170543462738 -0.07518419864232213
Ni 1.9777076810908294 6.753892368731034 1.3795435990118474 -0.5444236382031205 -1.8062814747735538 0.16912716594938615
Ni 6.0029981097808625 7.439559800931076 7.500846510802627 0.2377555657510615 0.43100250756678676 0.5596296565195975
Ni 0.6536901933906696 6.184563466854986 7.536095504521266 -0.3786471338935221 0.6120392804695653 -0.37541268611662443
Ni 5.530297686952501 1.4752149761459725 13.611200971920471 0.2469611435097295 -0.24593090247300226 -1.4866141618483493
Ni 7.134404280834757 9.10474672662637 0.9195685608739829 2.095248273291108 1.2959766326310131 -0.3434050228617763
P 4.856170385639019 2.298369956225858 11.683493582290232 -0.5285797291923284 0.007348727055587344 -0.024951270628698962
P 3.142778089579189 1.9192307422177461 5.052509760975298 -0.6304792323423077 -0.6703151333923231 -0.6236290421896936
P 2.0540770296239623 4.676877080585219 0.23364268275662814 -2.2630901447701675 0.9306565548637004 0.6754992486964237
P 6.0185521992366615 1.996234371939886 8.34214003951143 5.096918397268268 0.44217780745731594 -0.8334297745990421
P 5.005198064405422 5.754719625259981 6.450997540394937 0.5676221878067709 0.34225393997646864 -0.25784847984619463
P 4.491723774695668 5.79962105331163 3.474258172395984 0.44407065360465464 0.3326189879898659 -0.0087458645134301
P 1.3582042970992982 8.417905400882493 2.983861304394326 -0.4774320026739196 0.78818967181432 -0.7407569322536534
P 9.394111485181439 7.387965286302891 11.571621527562858 -4.410062071687811 2.745474349243039 -0.4956009602734626
Ni 1.5761414202654382 0.10081189483010766 5.889313146878937 0.20603020962332258 1.805828446396535 -0.6627175235507232
Ni 2.804734616488683 5.860796053958848 6.539854654844774 1.1265723017608404 -2.3907263905646183 0.6797965905201969
Ni 7.33797067497235 7.726557838631641 13.124365545460671 0.7222370190725949 1.1745745406717318 -2.493258899312906
Ni 2.508989178509872 8.83830129282632 0.7131213941122887 -0.7713456036737877 1.0507460986591453 1.1480422987091583
Ni 7.59083113106755 5.153998537969794 10.830464904896457 0.7308725832604058 0.4051377239848829 0.9871236367124935
Ni 6.4323307396712925 3.0111505425350984 5.916068452794933 1.6589328381518398 2.732235481955262 -0.0753852589095347
Ni 7.612008549273651 0.5502076907483396 2.8356051766264905 0.17929253651816218 1.1085139015972327 1.8803145905305685
Ni 5.212333473591607 0.5151480346980601 1.8486191521794506 -0.6074053812419796 0.9972802655305213 1.4172470841084366
Ni 4.2744682671356244 8.87373583745995 13.263227684812808 -0.5127461045941815 0.6899496197937989 -2.7760033710698324
Ni 8.106766810465988 2.770757971901425 11.696600482382475 -1.3907305258751468 0.06783752846926382 -2.250879718746904
Ni 6.498523188530059 5.239806369270688 4.893639363519184 -0.5537472295968915 -0.5713418027502032 -0.5804975011075422
Ni 1.4073563558056357 8.807912597054488 12.43558256192776 0.06232148374704106 0.8247245335155604 1.7599915905680785
Ni 4.0442241955260645 4.969820321072298 0.7021559030492011 1.4650433776561091 -0.03941449724188051 -0.5434311923828641
Ni 6.752746875837453 7.486004330979862 5.242790330924048 1.2847843634596197 0.8687906705968392 0.4991627094827919
Ni 0.9976012408236612 9.227106194804223 8.19233134286304 1.3415368377593153 -1.0352330906252107 -1.7464930418610114
Ni 5.885760225532155 7.913765458222902 3.2626108465727737 -0.018489574163755254 -0.15307859712695573 -1.9538933923589832
Ni 4.039831561620105 7.749041686749428 5.318428836057309 -0.16505582409348993 -1.564826605794034 -0.1300898495412663
Ni 6.023616981865301 5.474992154024453 1.9028643941646806 0.7031334654739245 0.6506883603003311 0.4131451676703917
Ni 8.827291307411166 3.9681767210291436 13.355561985542083 0.4323214834885264 1.0319397645859196 1.4461966772632513
Ni 8.911281497095802 2.9283910476948045 8.71156149769095 0.8405622718787653 -0.6211839230833108 0.4433641144559332
Ni 3.504015427043833 9.15202434241594 7.280706443865115 0.03539380611826162 -0.5173116124776769 1.2381383814663063
Ni 3.0569134569777865 3.5827230957812155 12.560020957704207 0.4547978102141716 1.5561113374082234 -1.4440971144217452
Ni 4.70420797301303 1.9308655419384875 6.625399306786648 -0.9221834843956828 -4.063175775145654 -0.9587697681601487
Ni 4.010739828876543 3.9263046956712606 5.784425758737373 -0.06432360177873438 0.9089217342897702 -1.0826555457732323
P 4.796159811652217 4.817782173378965 10.795922140680803 -2.5735423668550066 2.671987335797482 0.6437666934798333
P 8.366329820021143 1.570480223981465 13.498691795939061 -0.3964124282967431 -0.9196753732618482 0.5963180130795667
P 1.072616825028018 3.6298113739024256 11.525662648633416 -0.3949641258859907 1.7556484831080343 -0.9922187918472138
P 1.8819312215507642 7.554146957822739 6.229319104901997 -1.6002209261329279 1.5692843844550715 -0.4278382509061922
P 1.2609415368626047 3.9070017203819263 3.636952244064635 -2.1342035715083827 -0.415837112680258 0.24664335515899458
P 0.5634849947421067 1.2562080951535968 9.427640346183026 -0.1556900666078738 1.3316797424595774 1.5898267273827973
P 7.237990919194686 2.929205199668754 3.664081491875643 0.1963446069044425 -0.3154411906589987 0.12085830364066928
P 5.444859064104909 9.20407326744819 6.144259157391126 0.413563743265049 -0.8037178493569062 1.1800774727678323
Ni 3.139919090786948 4.2239813778673465 2.784685650786009 0.3182015270129552 -0.6171418918034532 -1.1322205011855533
Ni 4.403748027092047 0.5240535319293875 4.4158940385173615 1.925952185864025 -1.344863073919071 -0.9783656880142055
Ni 0.8060398015484548 1.4958054475801568 3.7922195456918524 -0.09505265543147501 0.6222807556919154 0.5120146257447956
Ni 2.6812959236011764 2.6111368505902615 9.849824532404513 -4.629632996110046 2.9445294131001094 2.3678854814107027
Ni 6.885500982008288 1.0098608548499917 5.19784251514365 -0.30359071907831586 -1.6954988102013315 -1.3917558818158675
Ni 4.638384732607567 5.722749959957342 8.596433781756119 -1.1403886388186424 0.7187230923820654 0.28421154322075565
Ni 0.1682975199637746 5.1360493270092356 9.59268977844608 -0.15258083155493077 -0.3810999663093888 0.5719899778571633
Ni 1.778202579939566 3.2568919022999503 5.580427674715919 -2.3232480452069857 2.048643943169007 0.19597205405637216
Ni 3.4706446629953276 7.7817213683084185 2.954265933452925 0.3124198873341716 0.7018227170823009 -0.3993830808892928
Ni 6.326699254493073 3.135356052979464 1.0393634503338958 -1.3761392583245333 1.1510553745038692 0.8326250193095597
Ni 1.889750867254045 2.201277599890689 1.2260428178304315 -1.7144905208124859 2.3679487305484703 -1.0778177580649568
Ni 8.859355641547985 3.6452139932235372 5.692839341798122 -0.5024897169734959 -0.9702839394473355 -0.26167171024702673
Ni 7.216747232804658 4.156293161428534 7.977400901870462 -0.8153361503221248 0.9484218492669215 -0.21674733893051057
Ni 2.615236011110263 5.245562234388842 9.971740950438404 0.6229469285210045 -0.5918808032438194 0.39863900363441673
Ni 4.257787618553081 1.696995653979827 9.079971892721424 0.06939304588184177 -3.1604977077727505 1.2699719810371355
Ni 0.30378376868904844 4.673525803855242 1.9051364461850044 0.44317925213863674 0.5133148326134579 -0.7078750939239681
Ni 1.7091605991719774 7.425813886208117 10.74580635324251 1.204300864091571 -1.9299420237497085 -2.2252838725556705
Ni 2.1089944203318716 5.937506210295029 4.104140100678686 -0.05550394660457538 0.6204095068111315 0.44774733112529336
Ni 2.9614683383573515 6.647001788058217 12.83882635449482 -0.06592797015137677 -0.4359469960562557 0.7649206739840504
Ni 3.8075047756585807 8.04994657619106 11.17171765146567 1.1880959721969346 0.4473400683845457 -0.830216152757751
Ni 0.0899903003949739 7.9971308336019495 0.5111425963238977 -0.3654362916302029 -0.46577693493349465 -0.36882706247930674
Ni 3.070716173001253 1.0746995393799812 2.6322716678209814 -0.08321606780786314 -1.0145141129103044 1.2719812981576804
Ni 0.2662229620397292 0.5478665304790643 1.6251950233842287 -0.08293787444581201 -0.6053412996240994 0.03603221103320891
Ni 1.6954146844490183 4.135996163380308 7.843513609754491 -0.01691914435284183 -0.04369949777047958 0.5951949552187169
P 7.739622137748503 6.273353366432556 8.626514803816862 0.40537529391698573 -0.0005576722756829105 -0.05732377342213353
P 8.817758155809225 1.137720582293712 5.878977203563147 2.0132460232856872 0.09377944514600624 0.3234154671137269
P 3.1187606063476827 7.6694062634370805 9.155222255634547 1.0820001715774203 0.34230330515716534 -1.1655746511659668
P 7.526143916672248 5.768143665946727 13.381583607993182 -0.18727555472363874 -3.109895569345167 0.3408246637291098
P 5.9549347426675965 8.499822343098584 11.395474067868864 0.6183798779756124 1.3309636902291593 -0.397178102818174
P 5.306718301269224 8.129241191700357 0.8518746643051197 1.0235237726080826 -2.923001566330663 3.011818525265071
P 8.246810416868694 6.776499286333255 3.101732523143698 -0.7432748135795005 -0.07741720173789893 0.9073034819600567
P 4.023501187724028 2.6330242850527137 1.2137850971807846 1.1850849532847527 -0.40627235180995835 0.231766180936846
