# total energy = -340878.20223228814 ev
CRYSTAL
PRIMVEC
9.16522704187005 0.00000000000000 0.00000000000000

0.00000000000000 9.16522704187005 0.00000000000000

0.00000000000000 0.00000000000000 13.41423621112375

PRIMCOORD
 96 1
Ni 8.06044137988669 6.342520394593934 5.449037241373705 -0.5631497538577139 0.6498964605266548 -1.6350040952503844
Ni 4.853143509991325 6.098257929583786 9.310821222395678 -0.5089092473465945 1.023644871566979 -0.2618709707420264
Ni 3.532131845539419 2.501566224994744 4.153181375492711 -1.556050659373617 -0.6466069911421057 -0.21913075156102263
Ni 2.3693578253935517 6.931762004213365 8.56670652330512 -0.12877730137742985 -0.5588686099838568 0.5497962153689435
Ni 8.529554359102457 2.305357045191463 12.035279352584272 1.5029378387090373 0.9233240257580292 -0.18286225614729154
Ni 7.680240267882788 0.5064484479586049 7.872104213561222 -1.2933021711226436 0.10479045154452919 0.21963623044253142
Ni 4.285495175204504 4.544843603871052 5.16277695664137 0.07699194127502225 0.8521096103967324 1.565578396358394
Ni 6.72284065454895 7.915062549073925 3.776697679563557 -0.9340802358332687 0.40678117312557677 0.3251676739181432
Ni 5.036860485381682 7.759876925361801 1.7952140942256314 -0.09882472087939755 0.19334490084617026 0.33614499886525334
Ni 5.009603100257665 2.8842327830639998 0.5649739215456675 1.0365086149035245 0.2324938031314899 -0.5638308390851385
Ni 5.987716126631274 2.0768404401823437 7.128821717083059 -0.03935536186917093 1.0640811252051545 -1.0620083018365258
Ni 7.001509381749939 1.4462911524344846 10.439266884780277 -0.7463609087039921 -0.21703864491868427 0.23967592270222593
Ni 1.4553463967191278 4.841641150095345 12.01742549037123 0.3141078165595558 0.8671163682182099 0.3496510037714881
Ni 8.037390833959687 0.3706885228915221 13.479027154523829 -0.00786886122511548 0.23516569353669822 -1.8292514533061657
Ni 3.609092256731878 8.621554907816272 3.6032650053997153 0.4718545085861422 -0.2485590841244687 1.7489762132941813
Ni 6.808352222540571 4.163423516674986 5.863201935103925 0.2451623997380939 -0.5145039678255526 -0.21368695483763198
Ni 7.400920809564178 0.4505634762727627 2.255241583907628 -0.8797011468617559 1.0881016564894679 0.8464655247370776
Ni 1.8215338766266538 3.9195276607451883 2.752923492232365 -0.10487015574252906 -0.8849603383781662 -0.02501426265615047
Ni 6.811349251772431 7.868301560875293 12.480417930990557 0.014131040084743404 -1.0917978743941326 -1.1945391567191168
Ni 0.7929048685489275 3.9552353851712714 9.729386141612798 -0.48883227409106134 1.5688706939564205 0.1414726374569112
Ni 1.9348435781358078 0.4122794065345206 9.250537858268336 1.0202227332593077 -0.7149926788053557 -0.6613846636719125
Ni 0.8129391382673503 1.4688742717840402 0.9062668118520315 0.5167002041459231 1.0033699233680267 -0.7249870710139062
Ni 3.91643897924324 4.10299717500631 11.889681472845998 1.182808755656066 0.7313158414454114 -1.5176581756383476
Ni 7.050891624873075 3.2884376246038127 3.061370041984777 -1.7104171220740607 -3.306891693790679 1.746232074890141
P 2.810397714281524 5.168326501595167 10.250891224501373 -0.6406196632104193 -1.1562294625056408 -0.9489260425968497
P 7.387897021984746 8.518299460335715 5.84255726126672 -0.06213919253290589 0.0695136306201061 0.409506799586856
P 2.789400179204482 6.637961487220933 0.3664276088551551 0.5725425079265237 0.4382342494285356 -0.5997697190735929
P 3.7579538738079665 8.594499157686448 8.6248305599492 0.26003597441581666 0.29492687275573076 0.7834220752223476
P 5.533881580839089 2.564036412286372 4.801907141444319 0.7903260014310324 0.793176326395634 -0.2950114620497371
P 9.124157626522006 1.8103614649029898 2.922600256368021 -1.6923263260106207 0.9128735198486666 0.35821560551204756
P 0.37254264831539186 5.907254598721473 8.43375848988432 -0.5961426638439669 -0.7296623650023886 0.2659451408114
P 5.924860999805278 0.29033422813772397 0.6300360350353692 -0.739512518323591 -0.019720361247062813 -0.3740446021245042
Ni 1.0653293265888566 6.033551426902024 4.633491512545066 0.8499624821467426 0.8166157883654969 -1.8701358502253533
Ni 1.5128032048369704 2.4837398584627293 7.738927965987906 0.09887614294262326 0.5910968738899434 -1.1435618943403014
Ni 7.688983894449133 3.833081239598675 8.29128595255603 0.4644492172610065 0.42810950228970784 -0.009098362756842395
Ni 7.65591575540157 1.692560802159549 4.999271139850704 -0.34736966393647917 -0.06116011644908822 -0.46986987405594566
Ni 3.5254503950500418 7.5543925358256665 6.632118655002856 0.27991445850729857 1.188528688858979 -1.1378177927676727
Ni 6.28595261349594 4.485379611038294 12.220141064828022 1.4258805914137187 -1.4670115571260733 -0.508420223525318
Ni 9.039507589869208 9.06043180313018 11.165433319819604 -0.37313391738477675 0.3258405316154517 0.08814847211247401
Ni 0.2759374895523823 8.166648030464064 8.654583636387699 -0.18636975507991774 0.17233975934941287 0.39187108878296384
Ni 2.3309555242268964 2.803312993803762 12.71754068416089 -0.5650302587098786 -2.3332516933869174 -0.11617735322523219
Ni 5.297702846050656 8.363691245925141 10.238563077651907 1.5909898944529632 -0.131742811763657 0.28448279460427134
Ni 5.095655416642803 1.317428060691485 2.7094207422353414 1.106034843929121 -0.7326828969962672 0.1812162359034363
Ni 5.076261796292291 1.4277682286498046 9.096716936857815 -1.428550682046714 -0.6722912832820873 0.5958122770877416
Ni 1.0668140933642738 2.1640109142625477 4.8758732729730205 -0.392439302581608 0.06792237487358625 0.025194239877440478
Ni 4.577435151114161 4.2476702833394 2.921137486137425 -0.3910707043688555 -0.2462934280187436 -1.9939007859898568
Ni 5.451018763452996 0.4810580195762698 5.3202740506051 -0.43197746988554636 -0.9492867683703778 -0.33387085811909595
Ni 2.7018630960439274 8.445646705837367 1.483131698918849 -0.4616616272135404 -0.4962118543845841 -1.2823271601683788
Ni 3.1875926318265564 7.21998089795747 10.760873783994551 0.62788036126688 0.6311202083604163 0.8393970479260705
Ni 1.8581122976185678 0.775665993068173 2.926368997714018 0.18205621530622837 1.030028920716452 0.9957160063671949
Ni 5.611822671321484 8.504404976190454 7.630379599909796 -0.3264964200318958 0.4514918857693902 -0.29325874102468846
Ni 6.366533289356855 5.480677438053306 3.7657516489470093 1.3614572308323263 0.255527802132818 -0.3139818325046528
Ni 0.4228148349810767 0.5593794669795276 6.590105254394754 0.9494636602678743 -0.9929775243901092 -0.7488453656887426
Ni 2.5097507727135566 5.531617769767927 6.6785588602561825 -0.5958521291867416 -1.6221557785328065 -0.8584556072194183
Ni 4.967003125121003 5.812632795083157 0.1740898209403687 0.9736968217836262 0.7970507217493757 0.5744752061728622
Ni 0.12762761914222054 8.44489515722265 1.610740987607052 1.6620119912977958 -1.3662232847624018 -0.15221367802349914
P 3.4030671188022272 2.2928098494164866 1.891796339921119 -1.4386690014276384 0.538418312549305 -0.19625358985253297
P 7.626504541930497 8.459596181344683 9.695796501148436 -2.1272554223253235 -0.002444861996066757 0.1616912784966312
P 4.661599430735496 6.760225615517634 3.988333769467964 -0.40085118079438703 -0.310333180008472 -0.23342685646872055
P 7.688131528337321 3.746845618673363 10.56285263881164 1.3844557486100286 -0.39707654424330324 0.32226335578715465
P 6.309342272822266 4.671131266824594 1.5813105271592607 0.06544743097053245 0.11844686598569922 -1.4772494328039978
P 3.692431665922425 2.3696236169768055 7.640466848755625 -0.44370118608037773 -2.8787469673876616 -0.9672556941439728
P 1.5249562958505705 1.3965697959120258 11.193763953026346 -1.103823695210415 0.17625966322910935 0.3173237523936922
P 0.7367330252577114 3.6856219022549257 0.4258164468264417 -0.9640657264517654 0.8115879961336021 0.6251220817954524
Ni 7.45090795766989 7.04828870040259 7.657221800250317 0.6800053640968934 -0.7362091649819708 0.8142498592364816
Ni 7.2527557497407535 6.96175062698599 1.3067945643159353 -0.15466316800525623 -0.8577315845692003 -0.2685787217795052
Ni 5.732409563075584 6.693429441077877 5.883953842097133 -0.6539107238923706 -0.012168259931417753 0.1356722287250502
Ni 2.8809882927029027 0.8397336794274256 5.748000530740166 0.6074791719027086 -0.10147167158394137 1.2102863922510447
Ni 3.642105404417389 0.8700549999404673 0.0855033192873129 0.25629141977171993 1.4149138079895696 0.9864451225882302
Ni 0.9942071650009705 5.863618952932823 1.4500791407572002 0.4329331489305963 1.4129296876800053 -1.1416510504708337
Ni 5.737743725194675 3.8989242304295226 9.681953342274422 -0.2789454097258099 -0.8596943647225258 1.0428592397119008
Ni 3.559462552479506 0.6595269859814183 11.13738405908203 0.43654426332062235 -0.3923099760925953 -0.0900675435120578
Ni 8.875000930289186 4.07158794204733 4.37635465315573 -0.25745844349662755 -0.27999827647035647 -0.7839396382887144
Ni 8.448918691879491 5.2610969293777154 13.10553407216763 -0.12950929444744794 0.25135181637825743 -0.4493545277114132
Ni 3.20836103622838 4.54126916533764 0.743552870674921 -1.6912292362917003 -0.9570792678316032 0.831350009251878
Ni 2.8425768263092386 2.601668834384292 9.794820363319054 0.9787744934168499 1.4006806951093234 0.26495706586651785
Ni 0.8113847157666665 6.729677913897476 10.604959524735232 -0.6483787383305479 -0.41657476217723094 0.1854423581696419
Ni 0.12085359986005473 4.699121870109311 6.503650584543934 0.6684012041990618 -0.9396559301488333 2.2806662059807175
Ni 1.8730516176428273 8.541588302164945 12.401756453665275 0.09773277336679942 -0.3066117652928268 1.0150697283034582
Ni 2.911343524555877 6.235809656531079 2.603689766939721 1.4815622012467387 0.13723031724078946 1.3919880524313317
Ni 0.01973639984063839 1.7142732249432735 9.377463421021686 -0.7007863053979866 0.4428730337521276 0.5405235318177659
Ni 4.087489610907508 4.2625362815475905 8.01241742340625 -1.0412579566630518 1.8552501913627726 -0.125234578331494
Ni 7.600695262673861 2.5952165145701334 0.7825179167799131 0.06426138108223127 0.8740290361776432 0.21320950098058117
Ni 8.965205094509287 9.035658194525535 4.0174966052871 0.6369512132198966 -1.0421534718941277 1.1213640180870237
Ni 0.7745395866687979 7.2500978339082165 6.617082183572304 0.40037424115796855 0.1599994926165051 -0.12653555653110465
Ni 7.423852207540065 6.198378869427351 10.094131931311846 -0.3310686127836105 -0.10370570312078269 0.2342663216508804
Ni 4.428711012443204 8.020151041956233 12.791681871525459 -0.30044728835332773 -0.8013100112463618 -0.5031587180160625
Ni 8.459926129516997 4.6940809952545 2.1638101957910565 -0.12707086020928438 0.9240657890200601 -0.8249790727285277
P 5.395495818233999 6.2303288507798475 11.39682872263217 0.04492257154430328 1.4146572118940732 0.5754280570044348
P 5.968826593766244 5.240374351110937 7.598091421680677 0.6613671801704158 -0.06749685730039343 -0.040659939613207394
P 9.121875484996828 7.405072657399141 12.701510702122588 -0.748372282707066 -0.514830497927036 0.48368878221690886
P 5.009089847545176 2.240073133208149 11.354412968558384 0.3954179255939577 0.4528273167513621 -0.14375654839508145
P 8.504844907086872 6.953465261770081 3.0355213522520046 1.140503824240268 -1.335016005921662 0.8091477621232258
P 2.0091460734957294 4.090459144458342 4.953192961064222 0.8157403277390789 0.47565562749978724 0.932819109732658
P 1.8023143955893086 8.301880954978143 4.996561898746917 0.13812171870680728 0.12624913563893742 -0.2669545559125209
P 8.441815640947711 2.3793020966980434 6.861341899014349 0.8683654101339625 1.2775107126163419 0.821938486129991
