# total energy = -340862.92588764685 ev
CRYSTAL
PRIMVEC
9.30038175670813 0.00000000000000 0.00000000000000

0.00000000000000 9.30038175670813 0.00000000000000

0.00000000000000 0.00000000000000 13.61204879793864

PRIMCOORD
 96 1
Ni 1.0797835941160165 4.209668886048433 8.285953560504431 0.26269475219490235 -0.5557948561545396 -2.3845295177252868
Ni 3.407250569813933 0.5586822878681822 1.4363844023412065 -0.5111728465697906 -0.8119116980216083 -1.0010045084596437
Ni 4.404893194401413 4.828999891805263 4.62201153087567 0.8267263944369375 -0.13570591017646305 -1.5307998552266282
Ni 7.525050287270553 1.7932530615539894 4.325446545397379 2.1863527427081118 -1.1408630073518997 -2.112930263951903
Ni 1.6690092649131694 8.607642596603691 8.177710140219691 -0.24837422180717228 0.7002497161682263 -0.8338218678311382
Ni 3.7997731715974354 4.173434599671261 8.385906620707907 -0.5368692228946302 -2.449192505121311 2.3362771104768023
Ni 2.4761149734305476 2.9003797773201305 11.97669649954107 0.4517590233878478 3.6162439979431205 -0.3932198895013744
Ni 0.15736431528722253 2.587366137096802 -0.012857777442618006 1.5921438055517483 1.2882723220082202 1.8167425222058775
Ni 0.315378727242249 1.1584741221029902 6.660988112325444 1.004320203096438 -0.5643453168277119 -0.15598702902300232
Ni 8.325999143225896 3.0040604304342757 2.366999177359827 -0.17161650803014314 -1.1271119763143942 -1.484989738871049
Ni 5.774485976864206 6.003963590331951 1.0253847326045396 -0.9544112340811368 -0.7523538930626333 -1.0743064024775886
Ni 0.0492585406488839 4.583376816029825 3.6271208891780784 -0.14787262744598403 0.5944711896788148 1.4500001101697415
Ni 1.6595228757692488 3.700724108477087 1.9843368400570933 -0.04827580428725234 -0.6576899884291447 -1.8168754482393163
Ni 8.248378159112992 0.5531727418594973 12.822563408092881 -1.9697434720173626 0.8630601958709653 -2.4173380796148756
Ni 6.094391199789147 8.617956719702326 12.772498524366764 -1.5002950017695518 0.8666126891089139 0.9101306669962067
Ni 6.791045577450445 4.364966656563323 5.370824308141807 -0.9030398215876964 0.798944853448295 -0.34215443828412684
Ni 7.758582867078247 0.714239539027303 1.3853253078312804 -0.7045653128244447 0.5632806230086235 1.536372207108083
Ni 6.267675908151432 4.18080050183007 2.8279707270074748 0.8527534146283184 0.17355563403438498 0.8749669746108802
Ni 5.54337149625006 5.228376874764324 7.5263467604535546 0.7180006123937441 1.844933897038429 -1.9770392343478276
Ni 0.3387226848415049 7.7093931492525645 5.9834888004296545 -0.6107012783844321 1.193147418577913 0.49941236359975283
Ni 8.417533498083218 5.4255077613276015 1.5945429702096945 -1.6679957196850563 -0.47871421182045293 0.10629249001135242
Ni 3.3598372248573565 0.9248299377171315 12.32980687458419 0.9567895045053264 -1.4477370251671775 1.5976701346866162
Ni 0.624668494707513 8.473772905096245 11.71266424859752 0.13492969413207084 -1.4629420150423902 -0.4866339808881619
Ni 7.616742748613605 8.13774082062664 7.468536519002872 0.2409303639346173 -1.2138381141580452 2.554445241014239
P 3.826130452807113 9.201183644423176 8.531610117653319 0.6193916070695784 0.7710856651441818 0.13734910220684088
P 2.196694311234515 1.9539264525837678 0.3458579375387754 0.28355385503209873 0.3794377481156175 0.7459348769101669
P 7.484965642946731 2.8793888162438277 8.304887277189916 -0.04778909445882092 0.03828835405723729 0.5454261113257057
P 0.7512829585961619 2.2044043275093292 3.4936818053347154 -0.1023155076414754 1.8650460944072718 -0.3517888760500974
P 4.948509794255636 3.3795168321402347 6.634322058449513 0.08016751078952646 0.39064312991313366 -1.439437504162547
P 2.1023419407785586 8.110007082952942 3.537526593904505 0.3998469078995888 0.10040492088232386 0.2015968564423173
P 6.380126821032947 6.633087897822652 8.923392409068335 0.37474034263994815 2.204407286216978 0.6533710493388167
P 4.902361301184916 8.28962535112602 1.470958570618192 2.3805895592409323 0.7812201824750223 -0.4142797954954672
Ni 5.47139584371594 2.400019251885882 4.775718936151727 -2.3890801132104467 -0.2857133245772628 0.06807586973231503
Ni 7.358954773818318 2.744198470561444 13.275789600015962 -2.450480370694799 1.2402672548838511 -0.40001197272254335
Ni 3.8348449102854008 2.2262881252109423 2.870453939723666 0.7610241671431217 3.0100413787599902 -0.26442896127718973
Ni 5.086090337987028 1.7337399202481576 0.17056062661693733 1.0494044970295862 -0.15988970651151818 0.7284572889506938
Ni 7.962856446644007 5.118251057261221 7.965607499495743 1.6090824902886158 0.33486716059409427 -1.9203890899539509
Ni 1.221633012962172 5.013314852642734 10.371959381154268 1.1949176231044583 -0.7498750925048376 0.3062631237041564
Ni 2.036830053396424 7.281445394283577 10.126670189075172 -0.5786727891939776 -2.4111990565966734 -0.049073874708515486
Ni 5.2004571294603545 8.545599751526147 10.314747154234913 -0.8879536166785353 0.5065836845372114 -0.8949603870136715
Ni 7.553630359661993 2.42846911893613 10.516301302246081 1.4690309015489473 -0.7064072511291898 -0.2518889198286501
Ni 8.64739242719302 3.3127028913461896 5.912420865131267 2.9221888406213803 1.6261684992366252 0.46111835311556065
Ni 9.334699921433103 7.222294967856778 3.2210866931315483 0.3280959033085317 0.31856585233090945 -0.6040575478156693
Ni 8.498307311529247 4.546668210195459 11.406311541614267 -0.9463621385244153 -1.8797036964194465 1.5034538591135074
Ni 2.6437543502140484 0.05529262817493856 10.340678477971265 0.047547410761660046 2.9135908145397242 -1.282709997429094
Ni 3.082276638964053 7.476911512555912 0.7040928227959133 0.4023293080018103 1.5553752305731472 -0.8212118923766114
Ni 0.9222537320378511 0.6161567855462224 1.8562343151262608 0.040172715564143716 -0.3226690758660056 -1.3645739220844368
Ni 5.327760751619164 1.7061828898232194 7.830806839798782 -0.6743489371420645 -0.3613518371481841 1.2505953762827364
Ni 1.4310776046495193 6.074032664655772 4.880286845662273 0.896238739505463 -0.4955971036187207 0.8176246892459855
Ni 4.359228321169402 4.164236522354264 13.345510840071173 2.7079953784609754 -2.0498194515343475 -0.8567213981371311
Ni 4.344087300065183 6.363600043083195 12.301548595393124 -2.532366663947645 0.3211094446883696 0.7048903002640312
Ni 4.031250367090614 9.46285917869117 3.6557874551175953 0.29892210995805296 -1.923383139585268 1.051833161075737
Ni 4.543468878954763 1.7895143081855032 10.345170562242357 0.8255542285057073 0.1060793455592818 -0.18468645384022386
Ni 2.481630099668141 2.2832157604559797 9.284029582870447 0.301007788842488 -0.1369904333158415 -1.2465466601346595
Ni 7.318274905077622 0.6271172851600564 8.858421803890293 -0.5630332828845077 0.19275123312622933 0.6340880327394887
Ni 5.449586449066436 8.587730479782971 6.018158762636231 0.9041698214270816 1.1481312588785388 0.13415939162494958
P 7.531076934491397 6.155234295651431 3.608894001487632 -0.8648152308888589 -0.7095193143956103 -0.5798141018872723
P 6.1655112172240125 2.0085847947394755 2.4860496409634263 -0.09910728511682287 -0.441810139705252 -0.41433687398564767
P 0.0656439527996285 8.511086035728999 0.19645195871278126 0.5770478519960449 -1.3079098937334894 2.377098001147906
P 4.613147337255012 6.7501704006979635 5.641350085458188 0.8505780042435546 -1.785012280982132 -0.8466143916101162
P 2.92531410015822 8.142753726262494 11.99949731485993 0.41336345432878485 -2.0861679082563946 1.8044061121277117
P 2.0525755992990296 2.690935185632783 6.630986941638719 -0.6893950328419095 0.3691080840548353 0.5835149477776272
P 9.217543015505683 8.117642696175645 9.273765681831986 -0.485398565819164 1.4498119054183354 -0.3834759227407331
P 6.140567594004408 1.4139556022828936 11.846307010796034 -0.41070827609412497 -0.659520099659348 0.48887264041069356
Ni 8.657762352580738 6.44231847221471 10.371632007724989 -0.14558588829433636 0.46870902097862505 -0.7761512525925471
Ni 2.206710822124714 3.731192158315797 4.20591897222213 0.28668854400633853 0.1776470304949392 1.5261618422339844
Ni 0.2781148886315166 1.1219701246619227 9.226954071559343 0.028735677371795672 -0.9264510014227851 -0.1996569591071271
Ni 2.539952792140226 1.4458466104931917 4.915991010293167 -2.144077636088985 0.831098298252388 -2.0785466442657103
Ni 7.180805965924394 6.811794728607393 5.628105412144602 -0.20247128862747066 -1.0801530910663528 0.08532900038580789
Ni 3.639025377515548 0.6299408809875998 6.468758526819859 0.46482716942571556 0.19096765886324532 2.066449089671228
Ni 1.6359743097766926 6.0894619975869135 12.350511383909872 -0.28619592064063615 0.8081900261956468 -0.44557372051274236
Ni 4.346272889720891 6.068071120105524 9.73140304470699 0.7484486444709562 0.14745533740290734 1.0892511967128788
Ni 2.8652429359615694 5.30388667227363 0.501271962822586 -1.6696509959002923 -0.5625781976249602 1.8915911918856516
Ni 5.860644711206639 3.7637062920875097 11.41513202344181 -1.6062349935374918 -1.3186439923215418 0.7999054175893514
Ni 7.14397645513035 7.606242617884697 1.5116728507704877 1.1044358748731173 1.9111590867152506 0.7419848911234835
Ni 0.4401917072317045 0.27063273170378704 4.104345785558977 -0.6795736758761135 -1.39895085690241 1.8567357747693636
Ni 7.267094905608018 1.6890980889826483 6.521859055072031 -1.7320254443724559 -0.17863099167476332 1.6944235748592817
Ni 0.8203699126321429 1.4158342793486505 11.82058029545298 0.11948070656685228 -0.9703744422786128 -0.7892157990859893
Ni 7.77730453506522 6.996491005086924 12.846343553585125 2.5123706804416925 -1.0214882302352923 1.312703715577707
Ni 4.588343219758114 7.087383633619803 3.15557201563496 -0.4007701910448066 -1.4576085186446186 0.8014851033716455
Ni 3.020903421355492 4.851032495611094 6.415262732353357 -1.4370623190621508 0.577717881479876 -0.46738670262277565
Ni 7.5840054056855655 8.429214777264358 10.861747232883802 0.5795785888376986 1.9535974583851194 -0.8293751449136941
Ni 6.468368840834437 8.308579528650833 3.7804200077056858 1.1883865068541597 0.7682366257311608 -0.03999942321107305
Ni 2.4714926838182647 5.994951520645226 2.8400454123266434 -0.17303112898948264 -0.5399470904890056 -0.4143618136863122
Ni 0.975507716584998 6.599941338108011 0.98862032448109 -1.199953642866469 1.0857858638720979 0.021446599909550165
Ni 6.707091033526747 4.660067761991366 9.588435720002895 -0.9389463056763185 -1.2376084771047653 1.6088852866761452
Ni 2.9859153861011487 7.707402867608644 6.4819762290270555 -0.6375032290686247 -0.6590123067849941 0.20793745394836444
Ni 6.20688861457823 6.672335507810246 11.319643146364887 1.0820719053556203 -1.3474578312294407 -2.825096786162373
P 2.6200662784987876 5.974323274447955 8.509721669760948 -1.5228150372489389 0.10367330722095049 -1.4310775622336256
P 6.510397264894611 5.103761062862958 12.826837863436552 0.35433221129724135 0.06627224086467295 1.0290380175580922
P 4.437212020161338 4.9377027509367775 2.216163729895185 -2.776925625773785 -0.08800166212196457 0.19033671014746575
P 0.07957127411631598 5.510503947980829 6.50616466126775 0.6634834551824702 0.08853465180729912 -1.215411629292752
P 3.810115195840612 3.9930909017401173 10.625932339452659 0.4328842979705319 -0.16526485478050248 0.0433948220458672
P 0.07308425801054669 4.880896020651417 -0.27484394445316673 0.8664455674034304 -0.4281452406236497 0.6276854716472544
P 0.7310453284224645 2.8491811770874995 10.319348052969714 -1.0945900924272889 2.2414743662726044 0.3019791516168218
P 7.742846621557155 9.174175336507544 5.689141955942369 0.9476417765677873 -0.8952198113226453 -2.6826707836532573
