# total energy = -381165.3466169809 ev
CRYSTAL
PRIMVEC
9.26347121862273 0.00000000000000 0.00000000000000

0.00000000000000 9.26347121862273 0.00000000000000

0.00000000000000 0.00000000000000 13.55802649448331

PRIMCOORD
 96 1
Ni 1.8810590301101204 0.07412444547544672 2.279781997989462 1.3600462094174126 0.6431665980019892 2.6184286858447354
Ni 0.3525547527521103 3.693688796963583 0.8667561551458011 1.346602168097365 -1.7984344679253093 0.8410788065038676
Ni 5.355185027871144 1.6841732089029988 6.068220359508085 1.6517021247313555 1.0423265071368824 -0.5409115112848039
Ni 4.266004587206285 1.0153691005228467 4.260596572601 -0.8747504877246999 -0.95614904270785 -1.583601829519008
Ni 4.852474961753328 6.587773269331499 3.141720221658373 0.39608178443020176 0.7311734023302763 -0.5011319173940209
Ni 4.99496567887989 5.834495565224061 8.062403049701818 -1.7700752000563258 1.5010095113380728 -0.4384574211829352
Ni 9.029670648615552 8.809653939314227 4.220613577329796 0.8818043092476877 -0.5749521458092808 -0.6363758003324008
Ni 1.8025511099666014 7.228703592258925 10.687832956165042 2.322516823467916 -2.744118349435777 0.6915200496047123
Ni 1.3304753437797134 8.301969389052804 6.197644950220199 -0.2219124280712178 -0.4126746557918764 -0.300285823074799
Ni 3.65481000748366 1.9348056911924445 2.18689624388078 -2.2066839980662962 0.5277415495617492 -0.12415831454817972
Ni 5.03094500181056 1.7117320363280102 8.293688771965336 -0.8212843974857598 -3.7909555999588194 0.5273818522294853
Ni 7.863344018103468 0.3793289641492565 8.428835408963309 0.046944487070338506 -1.6148199069930256 0.15896539492503592
Ni 4.399824695099297 6.227387177854983 0.7629098616726574 -1.0480436121263177 -0.6496918007150166 0.7286107838094227
Ni 3.3827325888954243 8.145583464821195 4.975213178806494 0.6092156949778411 0.1799643657742062 -0.775707223076593
Ni 3.0655142741585903 8.585459404409985 8.916422858015133 -0.695768283358105 -0.11595186747798741 -0.7557472350148984
Ni 1.7523245680175559 5.946250084234257 0.9800975068073938 -1.5020322961756325 3.2909768223326354 -1.5699775538673542
Ni 4.165180964452059 1.477736748679008 12.729942994705507 -0.2848234657731417 1.1750679353683828 2.468344138349097
Ni 2.1754521513090626 5.858812177657894 8.666629646234831 -0.028435115412241353 -0.9035298738502375 -0.04436644193051714
Ni -0.11343676541704746 6.349090665152395 2.635978221350235 -0.7529922979775806 0.6008809498599006 -0.6561326712443539
Ni 5.9387096185119175 8.784586985696722 4.578613398572804 0.5113546235632936 1.2427689382597824 -0.2133509116544519
Ni 7.341782787679803 9.66633977469743 11.028031164412203 2.1518747635359006 -0.3408768571232839 -0.37925674245306296
Ni 0.9969070020159402 3.77059413655432 4.781929921628142 -0.6183045446529868 -0.8436643078428567 1.1736903382945658
Ni 2.1894029392425307 2.727434621821378 12.233326440076823 -0.07728684680762174 0.5512584017367668 -1.1336127535473897
Ni 1.4316417149758633 0.6854579772691219 8.121189965574713 -0.7895826955071047 0.47608628727930274 0.029830453097871207
P 5.761230769894846 8.231465108201792 9.792881573108819 2.4465805214197607 -1.3900023894598705 -2.3351998182522236
Ni 7.959924970954951 4.407022412379711 2.7641698440185625 0.04385607795300189 -1.1779624833073583 1.335889409665551
P 1.616855562214745 8.892404529360487 12.326524373171798 -0.7576665635247984 1.1317044807810832 0.6063856817282137
Ni 5.051750758582517 0.5295880283946801 1.2963144402855238 1.4928519152279451 -3.132302219175141 -0.38880016316712396
P 7.421578330348391 3.7050921302611255 13.46443530515406 0.5402070290186116 0.28060505681641995 1.0385241026716567
P 3.6585617134020225 0.2912250139789915 7.172047274808804 -0.1820230480754478 0.3391051099348418 -1.6217742268236717
P 6.775729104105777 0.1997889931449361 13.37413961764976 -1.2510908278619164 -0.14909415855791097 0.28664817768670636
Ni 3.2062356682471087 3.011045062306803 4.132378085865603 0.6207915727408986 1.7149391783141303 -0.552230535842049
Ni 4.923155248561003 7.830940395134497 12.884586459966142 1.6310710787445653 0.867526716282751 -1.5132237940160778
Ni 8.113846811793266 1.8470250361741571 1.2253979349570625 -0.9620690077367108 -0.3212853081446015 -0.8653608189796839
Ni 9.026345062381743 5.94741728163108 7.150204935586809 1.037513659129271 0.4869214302215937 -0.5374523490916099
Ni 5.33639870786512 2.7221914970070733 0.9793953356750188 1.6491431057549275 1.9733959811682855 -1.8969419146746043
Ni 5.5928486501958785 8.480495009938455 6.840810548797258 -0.7993500593065136 0.6686238617328291 1.6451321848233214
Ni 7.860407497668601 4.330960048686681 11.300533776337854 0.25138086984398 0.7868156742849287 -0.8084093412953044
Ni 2.787860245785528 4.1578072412149805 0.8692267229690784 1.6711188386950704 -3.581719738914005 -1.7302151306365945
Ni 7.853756325200985 7.412490864901689 5.682914603609376 0.11309434342453427 3.0800157510665986 2.655715852330968
Ni 5.418260004656657 3.68016412871467 8.685651258414502 0.5896560276783588 3.215916036642055 1.4363933180195843
Ni 0.4123319337180252 1.1377580847041062 5.784017056852843 -1.1433700900444697 0.2304700878332418 -0.5885882485354766
Ni 4.119104457691721 7.00444421305486 9.87249369904362 0.642408379679726 -0.5177373871611858 1.6070680309617487
Ni 8.82257648192192 6.57481367283819 9.811103747706378 -0.3404724225960136 0.043323859598615705 0.031458475619597435
Ni 8.57016541312303 5.5367490673771 0.4973733802423377 -1.8628439445496305 2.2214678412436903 -0.6321607338097888
Ni 0.9492649685884335 5.066396306871238 12.497680902556073 1.3186632755952516 -0.7802115387048498 -0.5497540492770984
Ni 8.602217024178673 4.378250070200859 8.602825634249873 -0.9024422972130135 -0.248761687053578 1.2345617198586414
Ni 7.053577665378309 7.089436563180734 3.64746129561937 0.5280349124324518 -2.037307692220582 -2.2907194764516614
Ni 6.972568607955881 7.469942914545358 0.9975999096769118 -0.2760678310676987 -0.07333300436619629 -0.5199004562507756
Ni 6.460400537535229 2.4517073955002164 12.071768719760714 -1.5027920571597926 -0.5868257573184151 1.4503037574530893
Ni 5.410358263549587 6.660510046790721 5.445974458401245 0.17027670617279708 -1.2004629784027196 1.0804302559871393
Ni 7.094512945509779 7.155661120243392 8.050905228995962 0.35898950756359466 0.6535739093782421 -0.024656879316731727
Ni 4.3267081153125355 4.06644162276359 12.511102746272408 -1.1276961309526385 -1.2605373179867967 0.7047789714971475
Ni 8.852006530570414 0.14972548829258983 12.997795343986667 0.03572830663954492 1.4095484299125982 -0.3383129530508496
Ni 3.5909198452146507 4.969472605577829 10.505749235913356 -0.7648615386113409 -0.9259162119652377 0.17736652314004295
Ni 4.471950083445897 4.412599022164537 2.5103766652862887 -0.46579621820720424 -1.25759237642586 0.6577174992329705
P 0.9843549982643803 7.524180539612062 8.12838953554941 -0.6217287398431872 1.0879916132741652 1.2585226015496132
Ni 5.989927351901123 5.444586790385021 12.49942984595703 0.7110295803925496 1.1683925802307362 0.04711315143771886
P 2.086847047335876 4.311784662881715 6.73637324584858 -0.21809511120765665 0.7041109988958454 -0.6302730298687725
Ni 9.748877304901413 8.873868323082354 10.337913661027189 -1.0868492721396055 2.4583644014285664 -0.7468964694924879
P 3.837856202414154 8.335586526775616 2.6199802062366238 -0.7012102803092827 1.1998214881639786 0.05993061491736131
P 1.4958375718011836 2.690751275064052 2.6803539547609154 -0.8456000914129888 -1.2199995057737505 -0.40428077530122625
P 7.647162385963136 6.594711609412619 11.884857804560736 0.3368127143562393 -0.40836317290071605 -0.8678427048612731
Ni 2.9271458018065255 3.379193942819338 8.496069684408933 -0.19558176059648896 -0.6447781654634831 0.7739511596174349
Ni 0.6075438456425586 2.757179628497583 7.3103935148295 -0.008838167116920261 1.4539156431740639 0.48704072940827736
Ni 4.221021170071544 2.4916978015485434 10.455055815005581 -0.5713968243578547 0.41911784031405885 0.8491078474559312
Ni 0.6534434200990923 6.196465710310551 4.7786756641241395 0.2812766289621479 0.10369259049466013 0.8287364828884308
Ni 3.5676314781065908 5.3999739121064145 4.629808899630642 -1.27323188273533 0.12077037191255331 -0.5143221908320498
Ni 4.285569038810192 4.247950081441126 6.46001980886055 -0.031066125277185205 -1.2597292202632047 0.07317256752893203
Ni 2.0207521788728657 6.928807969046384 2.980908210790236 1.855121121984076 3.0587198178023 1.202929180555025
Ni 2.0814927608647307 4.7485480760789756 2.921022647208902 -0.7526886506942327 -0.6400961866067815 0.4551500513472677
Ni 6.2847743831988305 5.0060262637355075 1.3231145894025995 0.7371586733794337 0.17935758542814273 -0.01986819967883675
Ni 0.19749721031974354 8.389861205727932 1.370431474983848 -1.2188126845545009 -1.3220851567926069 0.23715289917005614
Ni 3.019984312211051 8.498669940831858 0.2883088731812121 -0.42499152548601643 0.09908208830584225 1.1169424919805602
Ni 3.1874956655981013 0.19000306195442124 11.113432959974107 -5.17801459051965 -0.3129647040940481 -1.282112215944095
Ni 0.3014982037653233 7.296947586087516 12.574297221839025 -0.795925864116313 -1.4275672350875221 0.486502340406304
Ni 6.129509339007028 2.1947109083566585 3.0945923108937534 0.2735934013852772 0.0887735072909826 0.7214836858463382
Ni 0.930247061797325 4.605668293153472 10.307354395214627 0.7355131673562108 -1.2353957857241626 -0.3910421651237652
Ni 7.3936489640672445 2.5651756567200352 7.908858232149621 -0.5431303733129936 0.1111953266296085 -0.9135011261303364
Ni 2.960475771915833 2.0019380684526316 6.015316674323466 -1.4198660097885223 -0.7662278228312482 2.3032713449747426
Ni 5.140605976283595 0.29906654252194004 11.136007113436968 3.889366887449882 0.8214204088429917 0.4006575767263423
Ni 3.1097288231668516 6.529052124105568 6.631366239408595 -0.41290631218670826 -0.05055740123257744 0.3663739729531239
Ni -0.2536245835527326 2.42652928022587 12.217870338040308 0.3270571776313722 0.3185861640458836 0.3513564164983691
Ni 1.4502427655538206 1.4597007698566562 0.5621769207917184 -0.35221722183676757 0.30423272353768893 -0.6105760656604774
Ni 7.973171735061764 3.1186588095996957 5.556906381150823 -0.4851028889556161 0.34895860569015386 -0.013440184665305886
Ni 6.371489739005731 5.983081646534036 9.819333415701129 0.6341921624175206 -0.6073223346098702 2.474865227297067
Ni 8.681780980062175 1.929340243064459 3.5605004578202806 0.8984830554549494 -0.11303675071372145 -0.3077422793528442
Ni 6.575888235520981 4.838783551019154 6.912668222820301 2.0068280355744856 -0.4814159270223322 -0.5285172513855092
P 7.772219249908566 5.502011049614481 5.1415425132424755 0.14491688725176977 -3.2390623928515314 -1.2373181995578562
Ni 5.893855889976824 4.391691367207142 4.510999320799643 0.3578091141022483 -0.17733001347515268 -0.290400445640287
P 7.276271517915204 0.6204311870589201 6.342255149603851 0.9418452244906683 0.33744803394739303 -0.46783176057999426
Ni 8.988281458385316 2.1417701692864273 9.694287667921383 0.7150703261208265 0.19220384526319156 0.5730780687150194
P 1.9964911472674527 1.7992625776184066 10.155775286294224 -0.45872825561682934 0.8403061900039012 -0.6499481397001967
P 6.604669841171236 2.2706065295644287 10.041671550936135 0.38435164047746706 0.16590145992323685 -2.2480695029916187
P 3.0669223218119015 6.282541886590619 12.55555999823144 0.0863507567821029 -0.9017334440714471 -0.4402777622211256
Ni 7.362273586424047 -0.1390882440801057 2.6563430368833933 -0.10978481943532704 1.5457986426283055 -0.8425271089146199
