# total energy = -340865.1289463191 ev
CRYSTAL
PRIMVEC
9.25677991392434 0.00000000000000 0.00000000000000

0.00000000000000 9.25677991392434 0.00000000000000

0.00000000000000 0.00000000000000 13.54823309367846

PRIMCOORD
 96 1
Ni 7.7762690847123475 4.340596689902015 11.678414689212293 -0.026454851757418955 -0.02943553165229769 0.6820910429813285
Ni 6.850572575395888 7.640694285453844 9.416292789794218 -1.5150024831830553 -0.78989714142373 0.14506806811765338
Ni 1.1245876834847115 7.829217866069622 12.065365679320447 -0.12643476928718222 0.38239811629552206 0.23300776665343098
Ni 0.7516098027225013 8.721738076018168 1.3128548512956648 1.3843960990166868 -1.394051876938896 0.1820058216842672
Ni 6.014833453707048 5.8031216392975695 5.620037342584856 0.9574798457041317 -1.8205930063002194 -1.2630230605231278
Ni 7.478737663316279 2.9758325936383105 9.102014927776919 -1.1900870344850343 -0.7194738545051609 -0.7992855246171653
Ni 6.155305089563104 6.161553416034462 11.410945586406413 -0.03237481678627972 -0.38111205049424685 0.3310328744496686
Ni 8.973337355264796 9.442470963514213 3.6881945750187306 2.3575385909587396 -0.11895080220531126 -0.3735977443950727
Ni 7.2723114702625695 2.000538257309215 5.603684315111821 2.536747309513844 -2.410822647093861 -0.9255657706043544
Ni 0.9186122956149353 5.422306968623284 7.998863169639941 0.7955620530189912 -0.31565253533885634 0.8510202339872955
Ni 9.057009389301232 7.909899960179763 9.857599591813198 0.48254541264108514 0.8743722784496747 0.9425700184718347
Ni 1.3578029977356154 5.467137553957774 12.960307462905893 0.8865595645444861 -0.9944319974484488 -1.164857313383968
Ni 2.443641800317958 8.526799546891796 9.955458566812599 1.0246751126037064 0.12658620726338202 1.1924637622473269
Ni 5.91299961739387 5.101865016832241 0.123999195921568 0.33036001675236004 0.4794724301427162 -1.864756588191311
Ni 4.9867384444999985 0.7519661887508676 6.228786334544255 0.09946441134592549 -0.3494743689843078 -0.13298465459055805
Ni -0.09303156425152853 2.770794917578236 13.040012041052515 0.8765847127199613 -0.8430377300024513 -0.1987565587800448
Ni 5.105993540693314 4.101077508500009 1.958112583407701 -0.8075043129825318 -1.7969694533440086 1.9655170926408407
Ni 2.837147516314065 -0.020490808114066884 7.387376947847091 0.11324501006978561 -0.1129123093207152 1.6777278593711555
Ni 7.4058312643704935 3.0160440457739752 3.0722104838444992 -0.030264712421812397 -1.1397566616615984 -0.08851973940896367
Ni 5.82068175087707 4.239864410403788 9.949903573160062 0.6581206482086601 0.8099507176404954 1.070078737549486
Ni 0.3988866821854401 3.116035782875597 8.514183481487631 -0.23603549773616125 -0.6419589508471332 0.910547185708335
Ni 1.0471084352398887 6.650764980011837 5.997274267805543 -0.9299664707752112 0.3713837674628894 0.30589211351798284
Ni 6.840686334401208 0.21065931852830425 4.0623156681056996 -3.175931268719001 1.0629074166120274 0.6243553788327569
Ni 5.444912025279658 8.504129692775718 2.3032405159895797 1.37154572541658 -0.2840832451730075 -1.0822349132960458
P 3.372235681761136 5.201893781053693 3.1186545259255927 0.028052021041209754 -0.37733458572968565 -1.0256729577406012
P 4.8380375312616675 6.488956466353594 9.683653588274593 -0.45250078664987875 0.7006312678773611 -0.12419456710275385
P 6.9352721120076115 7.448181032676355 0.6743240211787915 -0.07820215953303951 0.8276787310478777 0.24745145288258671
P 1.828973097575697 1.9850424076602504 0.5547106876011181 0.9712912976659273 -0.6943459490892816 0.18428639018832776
P 5.239485564461366 7.672250648329185 5.025594704049876 0.4862966521534012 2.0928805443898795 -0.8712550729769318
P 9.027906073114645 5.3859093098301365 4.508012035180557 -0.023513252630591765 0.8168176199636579 -0.7510513722011259
P 8.370258141029407 8.903633802184329 5.83521026702047 0.5023632186979605 0.33273340208054303 -0.7566018697057099
P 5.996236582772299 1.7817912901319857 7.831204371048516 0.65820035240666 0.3519354289302906 1.1151715161230666
Ni 3.3699492571116174 5.297257128176533 0.6904733994927602 0.3895406408775743 0.17712818187699172 0.10033935775171106
Ni 6.056683355895202 3.409818208388852 6.477843702014535 0.08972892922571644 2.4512182773020883 2.186080462883332
Ni 4.864946990598311 7.372025503965465 13.316680531780223 2.0262681465769683 -0.8107302761189973 1.4732248850256369
Ni 3.5817906664405026 0.6970521930086021 1.5369790819502438 -0.6966506859630582 1.1804896206045863 1.6756933454396303
Ni 4.761243284733705 5.042649395443695 8.17310724149318 0.20905305561004642 -0.30610371530815667 -2.1078309950521246
Ni 7.010529733062619 2.9355470872629863 0.3224895515176567 -0.5490014873817899 -0.056917539122650365 0.7208848759200746
Ni 8.999117487446616 6.7024918664147135 0.14943312453297483 -2.0070928592000983 1.9257256716755156 0.1323159106583076
Ni 7.499565418220801 8.194518173535027 12.020290714995078 -0.6057431630482083 0.7717351258027224 0.6802953845334865
Ni 5.508635698507539 0.8341895367239428 0.04403727929212612 1.2439552452583995 -0.9019152210649499 -0.08121626376901497
Ni 3.665786687775452 2.4927119908730124 4.239485808103524 1.9312255184478222 1.9871354422415648 -0.1016292802077282
Ni 7.499593188560675 0.11131833305769907 7.820351722226266 -0.4583240781998752 2.743204579372256 0.09615077359166022
Ni 3.958587894613205 2.9197087367555916 10.429376078944083 -1.345959135196727 -0.7320871723937973 -0.3127320192579517
Ni 6.982009594013359 0.7496297774895782 10.163830535013387 -0.0970923115693231 -0.588524999397709 0.06799256598988936
Ni 1.6126976906471377 6.411977084226479 3.736725095302259 -0.0037108731926839317 1.4346141146319744 0.012751643238713525
Ni 3.488908136346291 7.435647352613812 2.4735411995808945 -1.3075198573839224 -0.7985815565716053 -0.635796530790163
Ni 0.9389707317756091 5.187434690759976 1.9421529690828623 -0.4084613890414772 -0.7050803047876503 -1.4243764960643663
Ni 8.658014402790288 6.741277774436913 2.429753853347622 0.7139218143386801 -0.008758977139552657 -2.1754378955678213
Ni 5.870094442290555 2.4708752469531157 11.49983474162693 1.819803163409072 -1.068067106436096 1.654814445108092
Ni 2.260376070718077 3.3821496930956885 12.471649454369977 1.3902343029650186 -0.45311065231973574 0.4004714288574652
Ni 9.694255378359994 1.6040981420665594 6.607039654204281 -2.598303632960086 -1.553997890609646 0.7833865939987217
Ni 1.4863611577862843 3.4359871253288894 6.547969364261069 2.010030087451551 0.7268770889477676 0.00017123547054164056
Ni 3.8109052271702053 2.7342028664059796 7.960237403911007 1.2358045911268072 -0.16131923986919314 -1.352609293523393
Ni 7.754228691633385 7.413162634096885 4.10090070400282 -1.9857385618940384 -0.5986700582515109 3.668367201000921
Ni 1.6098095753003774 9.298805738572797 5.582061402808944 -1.41009556066532 -0.7707501361816339 -2.5937995744421456
P 1.8414142098386648 8.528206577445347 3.468483051369923 0.2240834675806076 0.9661989707446843 -0.30022385948861197
P 4.513318947130229 4.147453976087412 12.122186571733971 0.2000883902175909 1.6674277629967282 0.2333049861788756
P 1.3182487769769384 7.541387550069082 8.461778998791862 0.9358658669787817 -0.7719672964181866 -1.817192722369419
P 9.173404140487659 2.3370129519867615 4.33851021169958 -0.6555534017021162 0.7289121170999253 0.4061651368081327
P 2.570644821335756 7.328842625463421 0.11371398771071702 -0.9544729405570078 -1.3902497295839862 1.6099607791285113
P 7.1170752703741975 5.584115482281527 7.657501820822796 -0.7660794701788419 -0.1940046459173562 -0.1577441209234251
P 6.14516891550957 4.610191149386152 3.741994980132101 0.4293675430665251 0.24214675284022164 1.8931261404729398
P 2.5822343098426277 5.216824967125246 6.505969502237603 -0.26680877436327594 2.8611773339350144 0.791478884088553
Ni 2.277204896680931 1.4938313792120397 9.21214839300005 -1.1288703537663978 -0.16926754818199236 0.7549615058888094
Ni 4.1785289864049595 4.263950551853373 5.823111655615932 -0.5873975706614851 -0.3363288327412853 -1.5329264146513277
Ni 5.9702713149913285 7.461464511915462 7.107294556671032 -0.5984139763766468 1.3682927656969208 1.2255993684590312
Ni 1.6884459210398959 6.256009598721459 10.34333060652653 -2.331787707246881 -1.455488129867506 -2.0859020561895174
Ni 8.509137610732761 4.443124784712011 6.436751930104907 -0.38393692153755166 -0.24772527536926364 -0.1259848262339572
Ni 0.8669835310796098 4.022237513601425 10.851674083320201 -0.12879427065829432 0.8361083498724696 -0.7695918542074746
Ni 3.152433441668745 7.604879803798024 5.531824857979236 0.9273025507898031 -0.5115523413963964 -0.9490003474782107
Ni 8.189334376758792 5.371431705976503 9.536438388219453 -0.04564582286357301 0.09991461150946665 -0.39540558429878353
Ni 4.183981229799966 0.321476859790299 4.008380114004949 -0.34721025554047946 -1.6737724742678333 -0.3848722888676275
Ni 4.328590646297053 2.7636949673507836 0.16631378846359118 -0.6998604511496076 0.21925982093971916 0.5962663339060248
Ni 3.453537980128434 9.05922175971109 13.048642137006953 -1.227348232829338 1.974105091420168 -2.2308901629988545
Ni 8.436851416044133 7.444756024092056 7.477107544365752 1.2751710087395718 -2.6085623345736173 -0.28883232982221874
Ni 4.902335124846918 9.374433630826108 8.634302235250987 0.07424368910592376 -0.42544223987018986 1.0075901320969614
Ni 3.2608951324315387 6.558539681294613 11.724288513647998 2.3636860986173747 -0.651024146373195 0.594443421764673
Ni 0.018050720917252627 1.5721622512129585 1.665552052848845 0.6042917753136625 2.4935936569445056 0.6373849583232055
Ni 6.245669775508858 6.125609339459234 2.2363936052040168 -0.1168574100113923 1.026611924615103 0.4591257481655641
Ni 7.416967170659445 0.3508967578514336 1.687797946442866 -0.5765302889296781 -0.4387692959963992 -0.7378682978519486
Ni 2.3141764758314474 3.427304265728693 2.146948117508049 1.3681333573009213 -1.1944651089480718 -0.7773807541242741
Ni 1.7720346440567116 1.5988310342707048 3.642455899570404 -0.8014596494503486 -1.270382843322309 -0.976861592664853
Ni 3.54427293727249 7.029978227753464 7.800570909134945 -0.8281988652174059 -0.17117479250703424 0.8099309201461536
Ni 8.815435202748645 2.1378996150995286 10.821868177534837 0.02044978321391962 -1.41621015820349 -0.4200154124276637
Ni 1.8503655160576304 4.208058114469593 4.392229157149324 -0.49096526127366413 -0.4972729486592468 -0.06413462569637987
Ni 4.989145207288966 8.211078552879112 10.945793319216746 -0.22357104672056335 1.0202034499855979 0.3328046216381107
Ni 1.226375235898101 0.9248633991202794 12.311238714485327 0.6256920953663095 -0.10379157796636962 -0.4188512169162335
P 8.700151265157125 4.610357771425388 0.29657334467046065 -1.056496113769045 -0.23872821407697595 1.1070897675561966
P 0.16783097469863617 0.6664520555028779 9.03680739272184 -0.33301005278069745 2.0780149401319568 0.3217015697464137
P 8.592726333749578 6.467240060573144 11.448405923538688 0.4604313543508651 -1.130650585595272 -0.14001430774382986
P 7.565038622860662 1.0469418132006525 12.760498016165851 0.3641453407329212 0.9025777943496134 -0.6946853347065713
P 5.490575720810329 1.813977114044441 2.609972250985473 -0.38714308717967516 -1.4198696093329481 -0.5367563514658498
P 2.9936611518365823 1.7645459090710416 6.123720030669896 -0.5428483232962006 -0.16675660883468055 -0.40694083863189273
P 3.8645667805842123 0.7985962921091078 11.112179310564006 -0.3419469502590111 0.6124226319509131 -0.9607999112163
P 2.385324086585296 3.7153012037684694 9.25315870524605 -1.5343718888486026 1.4875215041539671 0.286499567923984
