# total energy = -340874.1279738247 ev
CRYSTAL
PRIMVEC
9.21611329865544 0.00000000000000 0.00000000000000
0.00000000000000 9.21611329865544 0.00000000000000
0.00000000000000 0.00000000000000 13.48871339159043
PRIMCOORD
 96 1
Ni 6.5143911961152705 0.7114268005493161 4.788438985105144 0.11441203379469327 -1.0714558204026707 -1.023697064961153
Ni 7.4338551635634795 8.00950281129051 9.597893473181934 0.3420875896019335 0.7618173524683782 1.1927062172754364
Ni 5.368754594177234 8.599324841147256 1.5841282095279696 -0.35437334894782196 0.5531216801977505 -2.7407679449063056
Ni 1.318171457497469 3.5754832841641773 9.720047524222315 0.06556595882626771 -0.3498872881520103 0.8785526350796096
Ni 8.58541772630087 3.455378896703543 1.1554056819494138 0.24941886102160268 -0.15327502940847795 -0.6491341284393336
Ni 6.186481887808843 1.6474723988998563 9.133396758923979 0.4816853786336349 0.7869642840476511 0.32860575306541473
Ni 7.658691461636656 6.6260720560943955 4.9764043790259445 0.09080776411219199 -0.706521408109551 0.5137658041079475
Ni 7.774814488186992 8.001659898941753 1.072495684215117 -0.2606643520284349 0.3338677727953024 0.6221794542273608
Ni 3.8030199034103087 0.6459794941410175 2.5110857986339634 -1.4467731185920116 -0.8043747662146147 0.1241662849679797
Ni 3.8530173176194817 4.225615558921351 0.9116910975599118 -1.221354220029432 -1.0355686195877585 -0.6931663269588837
Ni 4.072720240630075 3.0720254512759397 8.96250790118533 -0.5765917382952328 -0.2203962485370075 1.0681396115452442
Ni 7.307502251340852 3.6251673505239284 8.356675639445786 -0.14763788572735864 -1.702179821765933 1.1995805757977662
Ni 5.969626743782698 7.070592844951728 11.164675114410455 -1.843909826649289 0.6906906117248814 0.1326771506524683
Ni 0.7080960972322293 7.90148996437226 8.962871937657454 1.0282633441755968 0.3823268967379545 -0.9770325710250787
Ni 9.225145009234605 8.32507174399766 5.439162012719612 0.18479932526900433 1.874215676721682 -1.3222725902130648
Ni 8.681200790978462 4.936546532579524 3.187908858882601 1.6098887882399953 2.5978719447393064 -2.1561178550829707
Ni 0.43019526247083706 2.47321771103137 12.594128374184699 0.9367171592354835 -1.465395361678889 0.24597975343306672
Ni 1.9033946468582927 0.10839900206209567 3.983729451394357 -0.4801799977327021 0.6772871938347819 0.0931379549072654
Ni 5.607839003285871 0.17357627635309855 12.687240609251631 -0.3051567780138551 0.2023131657830516 -0.14148035076639506
Ni 8.627701253746343 0.9087815706169006 9.239741489349719 -0.9321909892303558 0.9177503883249937 -2.081845112511324
Ni 2.0920392683232802 0.9558399663207636 6.446512679039989 -1.2695780880328265 -2.6379497865967987 -0.7257000379205308
Ni 0.5303439999799279 -0.012546816535367333 10.843023546979243 1.4360259073778365 -0.3936045265343027 2.51646053424035
Ni 2.069441358712056 2.189619475078436 1.0801570391334738 -0.4648760203857801 0.09268981162625327 -0.7206861296457072
Ni 6.3246129927244334 4.083696631473048 1.1790874064751078 -0.860502462446118 -1.850535816606239 0.011112822083709893
P 4.20767178648536 5.330074567000111 9.773772856228282 0.46848996298928347 0.16360160814546665 -1.376266527931017
P 4.431466663764869 8.140933801896411 3.859228977928603 0.7691059157099915 0.18580719770822837 1.1139738962705394
P 1.9207117235954425 9.116026228730163 1.7585505250745062 0.8473705530498503 -0.5050862740560785 -1.1193117635436851
P 2.9560314503106584 8.157532021802535 7.690225314624325 -1.467674130410737 -0.5458871101225243 -0.1241570289965991
P 4.185562330874704 5.119606189434235 2.9307875945944657 0.0976129599594835 0.2246766210799163 0.4116477571892588
P 8.029907285955783 8.81404184690676 3.556514679938312 0.039445350479815934 0.05398725284973283 -0.2928442791950892
P 1.6656926547323974 4.597752994562308 7.8215521631508595 -0.5295757745570105 0.6218482961401871 -0.6614147455788997
P 8.242707340165884 0.826712082408111 13.46281524424547 -0.20805521047315137 0.7406101222631438 -0.17914624074828503
Ni 1.078746052199755 4.421808177112111 5.462025346391521 -2.2808240717148203 -1.5771077371542324 0.8429346287656838
Ni 0.3536646583062342 2.6536323433924327 7.6450516140736005 0.20753764740678451 0.10228928238923028 -0.6417370646443141
Ni -0.1713450553429528 4.504246309849632 11.633664683862325 0.3996191081594988 -0.24477159205757845 -0.958498002556001
Ni 4.280976751023564 0.4228232935075344 8.239486308596096 0.34895860569015386 1.8212728059760632 0.09991846816420857
Ni 5.331208148925959 3.3693188314712383 4.903052412310327 0.028346926573809245 -0.6662839007457428 -0.03103784314241106
Ni 6.870418865850671 5.357861148353226 12.771046413190746 -0.9463425981403896 -0.4246624242813718 -1.0895620430850783
Ni 0.677372340596447 8.35744794973348 -0.09871563190364814 0.1331900857331448 3.3265806875791744 2.5432030924415168
Ni 9.313988340658833 5.758015568177756 9.233401725066864 -0.6008264424728813 -0.9573988559545513 0.250937097438342
Ni 4.521111797039086 5.356653837521632 11.855297460980825 -0.7815716522771701 -0.29537835847085253 1.6584618120526924
Ni 6.0615943375879215 3.770182892013575 10.565371547274744 0.17417501278593875 0.7918013004249783 -1.0067439820465822
Ni 6.482024206492668 1.7879443965728907 1.4037974437971932 1.3009663725361207 -2.022355184675807 -2.4040097379370855
Ni 3.1267875960189633 8.346904716211766 10.35123884309328 -0.20107440827994405 0.30805492549725655 0.0019149576345257346
Ni 2.6575031109441105 7.358531870230472 5.230558976469115 0.775171148067465 0.6918782042750795 0.11920868385238825
Ni 6.399669018774112 4.9656233697831995 3.483946082846248 -1.460106345365808 0.4744212408720539 -0.7401851189105834
Ni 4.872365520127418 8.361632065134579 6.0657259211436765 -0.20422606653504827 -1.063248344891214 0.442915714064605
Ni 3.2888805953020843 7.249302496367409 2.2151978757044524 -0.5297534377854554 0.13597639022903033 0.5450964959004289
Ni 4.9032855799747495 7.4107227193855945 8.87445346905259 0.13803892918501387 -0.137259370706512 -0.041420729038631886
Ni 2.5738484512617767 6.274781468553191 13.59689310256766 0.2882499749561874 -0.6418255105930624 -0.21651439698409805
Ni 0.7844377710758574 6.620920248805377 6.629486626041769 1.6332140932294967 -1.1601179989267698 1.1186509900312347
Ni 4.983548709992756 6.065363727894198 5.198347739159902 1.56488265584295 1.0336994275895035 -0.5241026672575813
Ni 6.5640107496824935 0.1814837014943834 7.424404039458133 0.6046249902833651 0.4710122151905049 -0.47194141187299365
Ni 2.954667465554353 2.918779920682368 6.8415963933718205 0.18813173207634695 2.1340053394546477 -0.20036144137331943
Ni 5.14535600976611 6.048839236893821 0.9787936179022134 0.9729398890129438 0.253908264251524 2.8835798699999304
Ni 0.5224273587254248 7.566825245076833 2.550769460540558 -0.10470483380925837 -0.23922263721489123 0.7533514810892123
P 5.23079859541279 2.065727265085089 2.9900435161427237 1.8181121488598946 0.6197037389933586 1.7121736997538515
P 5.574762372945463 9.203044769737168 10.36557727203828 -0.09076559802034691 -1.5586258762999607 -0.4262392818501885
P 1.3169088499865644 6.082164702291124 4.179612408180982 -0.8424877710362523 1.7250096751762551 1.444286604724732
P 8.143772364767642 2.808794825535406 10.261025997244817 0.37582251996053345 0.08573703445750394 -0.01384024831720197
P 7.946418516311378 6.288624070607049 11.0175269643221 0.5392834887630776 0.08303094838025055 -0.9486661040672436
P 5.000801273937377 2.0702155122223918 6.8079428343439465 1.0909473534683791 -0.17701633888947577 0.488429639336004
P 2.612251995042352 1.9691608307839439 10.565992713305656 -0.7212479156864482 -0.369471380931525 0.3074460882686641
P 1.1731006193285127 4.465428040974234 0.38117752109676756 0.21829745702644987 -0.7944060850376771 -1.4914293238488057
Ni 7.33549158718477 2.3124426159384632 6.215760557891999 -0.2332293957459338 1.2343665731287 0.8415482899411184
Ni 9.392417464146401 0.985008964656622 1.9499415482785414 -2.331377873402972 -0.20521079904582076 0.40478162619704483
Ni 3.426311275613086 6.084422650029603 7.343539097246972 -0.6838486491023836 -0.7159714977788574 -0.1080081871508785
Ni 4.133343833379925 1.065189149655664 4.933240712768128 -0.7394564682746748 1.2097801420385874 -0.26966398442388395
Ni 4.278847828870141 1.8040818108181003 0.434955384948079 0.7401717491741446 0.8067517510872235 -0.6530062098002303
Ni 1.7204640155886395 5.275846956823747 2.3726643861519965 1.9292318850565615 -0.3518822070948521 -1.8240796792972391
Ni 7.680303247133524 8.306298521372021 12.241168748539662 0.6795682765594748 0.3181076817475683 -1.2028494763570252
Ni 2.6859071718828513 0.6741918599248183 12.488093305163092 -0.36317937727522615 0.029423447467439644 -0.6111031418085411
Ni 7.65083933317468 2.353555697005213 3.2771908772960168 -0.09772197473352202 0.3275315461646295 1.1110749774561897
Ni 6.458956275107312 7.344246894742137 2.919321828139603 0.6342487266870689 -0.9243357548519952 2.1796457630015817
Ni 3.3647384232017523 3.024488739296048 2.930166428563554 -0.8903714820914084 0.6519376593263998 1.316190902795359
Ni 4.704862662385166 1.8650371836438087 11.054161935976087 -0.8119260961993113 -0.3959185193794601 1.1016660254374642
Ni 2.6663690118600964 3.703200181143111 12.300830179069525 -0.33243592544478234 -0.7339859320784069 -0.26277137106910875
Ni 8.427895919174016 4.908299145565494 7.018325502056893 -0.2055820663423105 0.45516290686307415 -1.6016304048859449
Ni 2.1431057516657734 5.801285219737584 10.967740599105625 0.27919737783561593 -0.261452138037053 -0.5534356118937437
Ni 3.2286440793074016 4.804516494614435 5.048811694136688 -0.030331303993689704 -0.8940437887366732 -1.2131056068673947
Ni 5.129237027747338 4.3555904036387645 7.325207326444491 0.49752877342379476 0.04666217994322931 -0.6916426912255056
Ni 1.9208868297465898 0.7693270318431645 8.791187729348067 -0.4200295534950508 0.8024451532920696 0.8840406547773743
Ni 8.919732233294003 6.424727630614617 -0.46326820636595917 1.3983903564132498 -1.5890587388685213 0.6714896133163984
Ni 9.40817701774966 1.9610137866989839 5.02265728643453 -1.947644583235794 -1.0407427075895304 0.4539532028256892
Ni 7.942262049249934 7.535287705643878 7.495624319186363 0.10999924943897829 -0.7883269687231327 -1.2047698333081895
Ni 6.563660537380199 5.64387400596935 9.113676119859502 0.1137530600544557 0.9169564316687887 -0.3239903657805904
Ni 7.282268533349199 2.553794188898798 12.327955965104891 0.48293879142476187 -0.826337386528635 0.4808600545188622
Ni 0.8266918069590308 3.148519190987669 2.9578995564600037 1.1037858999939443 -1.399060900117713 0.7775761579645317
P 4.867554709027475 7.401266987223639 13.117396242435632 -0.5812032689253152 2.0140482074720087 -2.1271770036789044
P 6.405152606138989 6.100937924916761 6.81777550553653 0.2914525410538852 0.4141311857327448 0.49376647816788505
P 1.9495765901950974 7.621891521556061 12.084416486866536 1.198744453049716 0.5282495995464194 -2.7378736540776463
P 5.366809994288176 3.3887648303618105 12.540497046533558 -1.7360006269701198 0.534249525883596 2.2274785662141445
P 7.6720179613502895 5.708644849667426 1.298456348100923 -0.04942354473845036 1.1170849310956954 0.7665949763626798
P 2.109430073966176 2.456499681653409 4.729101961760566 2.341162977814194 0.260786479428596 -0.33028108388530864
P 8.807968428295911 0.6456560085670559 6.910106214202553 -0.18429513193907615 0.1602638020214853 0.349290792218592
P 7.836267531126488 4.050279004943562 4.729466919844009 -0.5912997339293687 -1.8501712341779684 4.181564277089592
