# total energy = -340893.37686458614 ev
CRYSTAL
PRIMVEC
9.03097764374949 0.00000000000000 0.00000000000000
0.00000000000000 9.03097764374949 0.00000000000000
0.00000000000000 0.00000000000000 13.21774864683931
PRIMCOORD
 96 1
Ni 6.459551078753161 2.025467610571115 11.312489472406789 0.11766885016909412 0.26248983527294795 1.1700044048025462
Ni 4.6119756609456894 0.3007721867142219 6.0581963812812445 0.8089968383676583 1.1496047581002715 -0.5741224508191337
Ni 3.0985464068225905 1.951567122532487 4.944931541809154 0.10878800273969652 -1.446819912669547 0.6091743002169444
Ni 3.7007139176914188 4.3179721917904255 5.088211610601534 -0.4740707995111706 1.001150804229521 -0.22888474562399294
Ni 4.955342452552272 4.538300947341983 2.5134077069333096 0.3662132790055435 -1.4136341699461978 -0.32121717391082744
Ni 7.210151734117026 6.058349907896991 2.5838321717718804 0.35771578305749363 -1.0723564778400694 0.9964860517640001
Ni 4.942075946756262 4.3440897784221875 11.671192669828745 1.436472765107268 0.7115165473312972 -0.9104456271334643
Ni 5.471670523263803 7.683058865504383 12.394494486717337 0.3619838143052282 0.5541696618462908 0.029772603276742273
Ni 1.8101058925878377 6.2131950463438095 0.37397367710233154 0.468075244049368 0.7605577690296643 0.05875844898613106
Ni 2.6220268844764836 1.6791838132653414 0.32210425842338025 0.39467153434623636 -1.63094123803492 0.9966901973550061
Ni 0.4724944157203198 8.764933833740415 4.7461497952288 1.169746266045153 0.9503038967809827 0.057453099911146215
Ni 8.706738215394953 2.2200309876093884 1.3164654432927352 -0.1772215129217464 0.6789463267047596 0.4903006311064717
Ni 7.122695749005689 0.6981595758156915 4.929321497378656 -1.2974149077394364 -0.47298656530805633 -0.8982166891674401
Ni 0.9962974264232449 7.369413020510916 2.523267728055218 -0.9670723744885732 -0.21805088823328253 0.22834892772518092
Ni 7.634986972820817 3.709221098399275 3.6065686876222167 0.9868811816843841 -0.03385860042065782 0.5406513156448818
Ni 7.677703495908037 3.913005103359758 12.605078817657665 -0.19635566264803603 0.2693973610260586 -0.02153941673367258
Ni 8.008101803972707 9.122190268583392 7.220036138877905 0.09428415269656665 -0.25266307899051327 -1.6198024478092812
Ni 6.8475489606551 0.3258015405696608 0.3688278261815922 -0.28646228692814535 1.6388802903763389 -1.12230864138848
Ni 1.8621785082582187 6.408408653754658 9.110610749365119 -0.12083387816063708 1.0287451689080218 0.1462957698771674
Ni 9.029911741542124 4.85813301185231 1.404953669120535 -0.480937701834333 -1.316970718384177 0.3003166763127344
Ni 6.300000801082571 1.8144497927157346 6.9609681026847126 0.35372388828928114 1.446433990085038 0.45050201105229515
Ni 3.377540391544249 4.122496686035067 0.38761045297161273 0.20159788488358182 0.299060178197814 0.5587220571036635
Ni 5.8765834258300895 5.530146101908569 4.766822605587986 0.23704105618254015 0.24569821763690586 0.16801130717738808
Ni 5.305383136455145 2.909248089606695 9.437775967521707 -0.5397809972247866 0.5097106602019673 -0.5651726978250138
P 0.1954520252141265 5.679554591962469 12.437372664299957 -0.33293934744376213 -1.358175988977893 -1.7327229846601127
P 4.013122518781514 6.043223020757226 12.660329434274008 -0.38076829400158296 0.2918790870683425 -0.4111299370125758
P 2.3289806989252884 8.452290427238001 1.2597229092104303 1.2792541776700097 0.03735710049221953 -0.7070682817519565
P 6.372627921308239 7.8704606774669355 6.024054771232358 0.2867188830236417 -0.5802126228772717 -0.3901875304329538
P 4.919507534241472 1.013907832347151 12.489569004360675 -0.8930084054936234 -1.5417044179542738 0.36739367246688986
P 3.9749305153701298 6.286707202354372 7.958736675325909 0.08603631086547764 -0.5233812157105243 0.3185103165026256
P 4.902773133125063 0.9621061459986764 3.847131348031473 0.24007830034696717 -0.1645755420229617 -0.10119013578778056
P 0.18866795499359404 5.479265575254575 3.66435610578934 -0.0958278430346027 0.3236512372736168 -1.2789782983008038
Ni 1.4678679731558644 0.9096722912324203 2.5429886733967733 -0.16561041104537932 0.9499102608869899 0.4230608841222068
Ni 1.8187936928436312 6.6010664945621915 4.657405992740668 0.4559679192628728 -0.06308587271689135 0.47447703381065387
Ni 5.7213228624230155 5.651432128348599 9.201800140532322 1.6745525469669675 -0.6268874012259914 0.10723557065091209
Ni 8.555541591816471 2.2708934523085884 10.163033894114461 0.7903853939140582 1.8574986210773168 1.1777614230401459
Ni 2.207360526321573 5.499422716804401 6.867413498537266 0.6587935059059686 -0.12871199535713318 -0.4951170786585086
Ni 0.41620072121463947 9.28483817150111 9.102970542487363 0.8545578148269088 -0.3221062613840001 0.47183162576800675
Ni 1.3988261509567554 0.9194076848662516 11.348467983258198 -0.45692256986665825 0.9082043965077714 1.008774896433682
Ni 3.703143250611178 6.643105694344644 1.6343215299486256 1.4628684814919775 1.2479440547028184 -0.5051824333143106
Ni 5.598889901853581 8.002267792574324 8.167457915629264 0.1756204869832137 -0.2896044321015529 -0.5944938153866343
Ni 5.49708369365861 2.898121925453745 4.6490785284830105 -0.4558241945961569 -0.6545121049217953 -0.641842736984243
Ni 1.006908824864573 7.681469413482533 6.9716219467198055 -0.7394834648578684 0.22130256240136081 0.34089408351446454
Ni 5.2114158166406614 4.382588835065065 7.179946727115437 0.637064084648677 0.3664094541767496 -0.5619593330940387
Ni 8.081523650209299 7.4138454293035405 8.858362907302046 -0.3367723480366071 -1.1656235021260313 0.5911752925363625
Ni 4.53900536357894 0.20895333642245456 10.472421633265302 -0.14677939438180526 0.9110632061128052 -0.5393925035371162
Ni 7.992234376686397 7.129414796188964 4.693912815769796 -0.528744794015283 -0.68043859497957 0.20136494293716933
Ni 7.095575723882873 5.948813183050294 6.939449992841179 0.1104579342429517 0.9913343323597313 -0.2579641794884525
Ni 2.1772422167029952 5.123291539201955 2.591431739251351 0.29731157093782346 -0.18039579688466995 0.7039099386286329
Ni 2.402592195687216 5.189488603521049 11.400731152551653 -0.7911484973323278 0.481597446905519 0.2450551847362683
Ni 1.3751288662673553 3.1745962674816743 3.833015027262418 -1.1882080722947665 -0.027947634252861543 -0.13087994954272944
Ni 3.593732959448038 2.157617902819586 2.611853488438904 0.05024886885322314 1.2392249296622657 -0.4762117571135734
Ni 1.1424367026594755 3.7485871288722525 8.179274949553074 -0.22668542397982896 -0.8007533674119435 -0.09897975840002309
Ni 3.4866075055663077 2.9464647474592165 7.4929567913001645 -0.05411683644906164 -0.6625102926359235 -0.6832169290556556
Ni 3.9534458201429645 7.142699363939768 5.846157159882278 0.4732557598090431 -1.8242725120343355 -0.35293070296402446
Ni 0.5761844858002793 7.431085565154175 11.085870641098307 0.1748779523902343 -0.7326155340934415 0.44629440072885074
P 0.17341282797479288 5.779635883474636 7.80059974561793 -0.7585322539592033 -0.0010598087230820458 0.6800120489651128
P 8.682047523191896 2.0629551977455427 8.102321088056563 -0.5029985382891143 -1.1403804112885263 -1.4233783938171551
P 1.8483159579540158 3.3317352741872988 10.343614608849155 -0.596668968661082 -0.48130125582133887 0.1881276183112889
P 4.023273337375601 6.0274007483579 3.66652444346233 -0.5882565762276708 1.1755415325706915 1.6199042634944683
P 6.941615621220949 4.1979866260955445 10.539250866002178 -0.7392903750104558 -0.2874051104573889 -1.2048937604805636
P 6.315877259346277 7.8897779381188515 10.250681335946613 -0.4321780159321266 -0.8119695478427371 -0.3233478471005851
P 2.433315580791384 8.783673111838931 5.757770081001322 0.012495818474165575 0.08848785772976374 -0.545100609665487
P 6.883031670847421 3.749517319544131 1.555160497576318 0.1820482448864284 0.6896207756994703 0.09854344219355286
Ni 5.3836726795086545 2.7062497796797396 0.40162652989156267 -0.3952317777250806 0.6194515137732364 0.38384024805868733
Ni 1.5973812200044482 1.3718777144044805 7.109364220172423 0.019994955064688145 -0.1376756323083242 -0.42639226248828505
Ni 6.882462719271418 0.8073937629195925 9.204746948456924 -0.6068623642543161 0.09873318960685576 0.35713445663272686
Ni 2.6639938364397615 1.5533190812850954 9.337043542539224 0.35285896918582454 -0.1360409249183786 -0.05480512076533787
Ni 6.474506377322386 1.642816067288126 2.425522750395621 -0.07380557312724063 0.7498228991106635 0.9052180601859379
Ni 4.109474016628773 6.846808420508556 10.255585156673115 -1.0263185617444002 0.6208239686407308 0.8418349679436018
Ni 8.363533981381513 7.030435283919214 0.5830742184563552 -0.96022012745343 0.3321885853206666 -0.4990459813992696
Ni 7.582164786026496 4.053247151355829 8.2476367391542 0.05449735971693195 -0.980336438587331 0.20951662551002626
Ni 3.066242600673969 8.145959673936002 12.33504085322049 -0.5881264784077097 0.20269086083744448 0.3029384302062976
Ni 0.10852615847598601 4.857699524937259 10.064125726566147 -0.23854360886999562 0.3550642043672595 1.1549361976155141
Ni 8.685090962574643 2.1847921138067825 5.8258022399274605 0.5585662482520897 1.4809361376269656 0.22058805283283944
Ni 3.495918443262485 2.597074293928918 11.612809207153427 -0.23028265441278406 -0.6909412942831068 -1.1421680993165684
Ni 1.0250701204096886 3.2633436823607647 12.604801566651583 0.3340876021155924 0.9160377765092611 -0.8826262909283508
Ni 3.2512873275359366 8.471968926985792 7.945783544445571 -1.182278337073893 -0.1239053179971092 0.8736647108596889
Ni 5.814369022543017 7.991186783308359 3.6197864261402826 -0.6344271612464623 -0.47579986638713534 0.44809134472827344
Ni 3.2034502402646896 8.449535979131955 3.5120748618254947 0.1439619795376682 -0.3711060883214706 0.9282713424609755
Ni 3.326063820382061 4.532719803310715 9.275832480840945 1.3693821421063577 -0.27565131235557044 -0.17908119183830448
Ni 7.379518684218019 6.283031594553843 11.285564516395745 -0.3308145877912754 -0.7015062142831466 0.37111868672696086
Ni 0.38677960305110026 0.02564526651390581 0.44956115171869554 0.7506464234532233 0.8410029589606096 -1.4769247024747274
Ni 4.580231775395673 0.13422561085427306 1.612313941130181 0.22084516314896802 -0.2943568591848737 -1.2086565699571055
Ni 5.938246939495951 5.608462737894269 0.4777567662494788 0.27934855870149955 -0.13914553198563132 -0.18807208248300514
Ni 7.798637314229588 8.85768197160632 11.437568509353506 0.6093064549194346 0.4880874255052368 0.12090921148326274
Ni -0.019206179629933966 4.949228480854587 5.710476658569368 -0.11875694102695032 -1.2349566413042152 0.38483372232020824
Ni 7.986517767994175 -0.24365847946090533 2.3375718677229353 1.1081212941445044 0.05978869002285832 2.1557959529671775
P 8.80737039652833 1.5103858147403517 3.735097557934541 -1.0752487117861997 0.2083622001906089 -1.203803098519546
P 1.7064844579360943 3.3064124135664614 1.52405961761696 0.24306078001405879 -0.9567990175870232 0.5187092641561518
P 4.6695571728281635 1.151711516446066 8.251483032427528 -0.0013806823976105253 0.09118520205626877 0.179466085981549
P 8.482020404828512 1.781468663262347 12.358832963172555 -0.43820313908028397 -1.5931059123547016 0.5355502469728906
P 6.385713807556312 7.614974326909342 1.4626498744159502 -1.6438520325593173 -0.27449097349888213 -0.6355900712063118
P 1.9132396544601498 3.4944102700372075 5.997778239398412 -0.5618001818083551 -0.6055068786676863 0.08301217932717317
P 6.996885202889824 3.6742892778281626 5.879703628520709 -0.058020799489158136 1.714218498098022 0.8063457738980564
P 2.2022128692053546 8.400687422392258 10.12887964069722 1.7039559398297495 -0.16684814010722232 -0.43254542657387435
