# total energy = -340897.93958834285 ev
CRYSTAL
PRIMVEC
8.99738631751969 0.00000000000000 0.00000000000000
0.00000000000000 8.99738631751969 0.00000000000000
0.00000000000000 0.00000000000000 13.16858434544325
PRIMCOORD
 96 1
Ni 6.17868511035151 1.894966517862393 11.358483094442402 0.46680846152180244 0.4655889872924046 -0.015837995473521112
Ni 4.834187682855519 0.474423181476766 6.036478720884713 -1.292009420453149 -1.357637857086236 -0.22718730331691198
Ni 2.7880830701601744 1.3977439595367938 4.713049573116121 -0.3001135591629928 1.468954025564425 1.2751825787037974
Ni 3.297209170542208 4.251579928675371 4.455010832602805 0.4935484486198081 0.23866162250509865 1.2290114794643738
Ni 5.117110494620144 4.4826328085009575 2.7393424291714217 -0.29394008336242927 -0.5098512995448897 -0.3796856024603654
Ni 7.123068769707165 6.032063703434152 2.6200343878026042 0.936668051165103 -0.20030384866250664 -0.9786001726225148
Ni 5.044168683999192 4.691111246134862 11.45338932446484 -0.5561751223120938 -0.5336982813658164 0.09338735191391014
Ni 5.548202263743327 7.670694686007177 12.306160696917376 -0.043865333924382514 0.9599043959852243 0.367180013794187
Ni 1.7273991956711265 6.346252432542776 0.38381140392865465 1.1978427671710532 -0.1388313431793222 -0.4517446252101446
Ni 2.5920930046912978 1.4406165051897892 0.38769107689519644 0.2883744163491937 0.290226639066584 0.20325470376071447
Ni 0.4916243845784232 9.063337127519786 4.704726990801531 0.3197035654797784 -0.08976543889060669 0.547859917578179
Ni 8.556811271774416 2.364828024492135 1.364317769745515 0.3724548890398811 -0.8619286533696834 -0.22104570919554836
Ni 6.873499268904901 0.9223850498862792 4.868267982629793 -0.3639355387149603 -1.0602738356439223 -1.1609590067708262
Ni 0.6889685566833492 7.309296671055684 2.30891376741752 -0.17274059433225736 -0.1269171082402395 1.3075674227924061
Ni 7.582115418021083 3.9027692571380523 3.9625586884860655 0.564329375988112 -0.1737320117112492 -0.3398209050549438
Ni 7.426883512427981 3.730991158164918 12.534767187411788 0.4580605401258434 -0.12325817133141352 -0.2937634485752489
Ni 8.010166070579583 8.887618173353363 6.871249022594762 -0.8204174214997741 -0.09512438920967488 0.27690421092606504
Ni 6.772989466703514 0.7817541027581686 0.49988848388215373 -0.1423537545102839 -0.23636794137491549 -1.2340235879669843
Ni 1.8367984155231243 6.5946972600592835 9.18146651128513 -0.2749473443100104 -0.2548711423854256 -0.5800467867233688
Ni 0.006745340498646503 4.676085611037169 1.4165314018406803 0.37168844318750177 0.9825563290567851 0.295881009138884
Ni 6.2697926438839815 2.0820221787492286 6.892476556059423 1.3754373471615022 0.5415051790047448 1.5171534680877872
Ni 3.2546785255680826 4.183010847789436 0.5009870647476796 0.22129587753314145 0.6503744286043379 -0.9908748762248097
Ni 5.9659958959357375 5.701274796627777 4.7445359264241285 -0.18916145889244199 -0.18591029894499594 0.5649857786251883
Ni 5.2256279706161095 3.0044342207943666 9.007904230611473 0.3578209411767902 -0.35029326534117733 0.5593859159399076
P 0.09888217502224214 5.417866126003706 12.424032755434942 0.6140154303593296 -0.509897836512109 -0.6496200669368167
P 3.9117306538789514 6.219848152610156 12.645014860790559 -0.8070224882501069 -1.7798186525963349 -0.7216670055017378
P 2.356172538884962 8.345417680983834 1.4502563048566557 0.284306159817091 0.8896101784453517 0.4422737096052318
P 6.247758044869463 7.7001341339351095 5.637865716776888 1.176156283336555 0.7013198093039534 1.203498937015566
P 4.662139662293803 0.9353592809107534 12.611619262112653 -0.23579304270805193 0.3677191741271087 -0.14419183616028716
P 4.041652911849414 6.101676481129267 8.097059228375672 -0.538488246555292 0.8538330208457424 1.1521902594392608
P 4.81012867192664 1.1613196400984396 3.7965551120313137 0.07770105152690489 -0.08260825902053515 0.42386024009505063
P 0.30967833936343125 5.5538706171035335 3.568950030630539 -0.5028069911035986 -0.6863125372618438 0.19962482031761106
Ni 1.4001012747437371 1.0085440209614278 2.695174259893236 0.2072003186720238 0.0019152147448418628 -1.213908048164032
Ni 1.9294624968830822 6.52962816243862 4.7138395436320355 0.8376798081246477 -0.21778117951166362 -0.6361834818159365
Ni 6.050256418504531 5.5423539626573985 9.129806218446555 -0.7010477865894894 0.7220596129544662 -0.1901629035737628
Ni 8.380318542387396 2.342622475138181 10.187835863981222 0.6954587225374861 0.36390391414607653 0.40268977666502265
Ni 2.456898278357214 5.0931774470992695 6.897915476069336 -0.3683241547009592 0.7925466632314351 -0.039211637202455046
Ni 0.6224724735977192 0.21982234226334754 9.095554068594218 -0.40711310254369887 -1.1951487652786579 0.5202534687148201
Ni 1.419913519345604 1.1182761441060094 11.312235629193513 -0.12285887901046584 0.03379792238605147 0.2519012611238242
Ni 4.1156564140521175 6.903991411028302 1.5775963129630235 -0.218659725461875 0.5928148850223145 0.09449601159705662
Ni 5.693492057490349 7.776782867705911 7.937403307945723 -0.018098252262607542 0.35264839583691526 0.1843133867715213
Ni 5.269436244442853 3.014637256842739 4.9764210644811735 0.00701036987956212 -0.09793923295065068 -0.8926062849591982
Ni 0.63754399536547 7.247673572382575 6.520226793508335 0.23981013428724504 -0.0414415549742383 1.4388651765988445
Ni 4.881010081088087 4.53983819050762 6.963389456072871 1.0554345052737502 -0.46864140096548323 -0.45380305040107005
Ni 8.023851095120653 7.092099766110604 9.049240022686813 1.2411979942282365 0.6044990062284622 0.3000328265237285
Ni 4.549015524519382 0.2637052943962655 10.40357699182522 -0.10351672703842817 -0.3675145143154703 -0.022889245893347676
Ni 8.070394574378355 7.2256389733680555 4.4458856834315 0.0027037720844082466 -0.07843510147945201 0.8262499690211512
Ni 7.383678063482402 6.104744589852808 6.985394363712647 -0.5083358913416277 0.03182768603355808 -0.7169960823886297
Ni 2.3511789894962076 5.174414847875952 2.495117375823068 -0.726896115111161 0.2633712094366367 0.27862350761001686
Ni 2.341002945606693 5.109597677071298 11.244416930323833 0.37243791975901663 0.6643689431112171 2.0345838655315154
Ni 1.173538090674886 3.204239178048525 3.851139555412851 -0.8774889697017856 0.5796747480959307 -0.5028779535508501
Ni 3.554651384344759 2.564192109818278 2.570060205154035 -0.10338637210815098 0.4910359666105994 0.008306977203798596
Ni 1.2146831381609613 3.394641866633769 8.1165493665485 -0.6854836136026453 -0.3633092179848711 0.18613295647876332
Ni 3.5904879739220688 2.474479171160142 6.995810637816 0.841043582390558 -0.01996821559181077 0.335872461930157
Ni 4.193060928270946 6.904423285570031 6.085479386337132 -0.6499455685970356 0.3609710567699977 -1.1335839571919832
Ni 0.8749499296476315 7.322387868101877 11.430173368630964 0.284254223533233 -0.7463915048316113 0.10069082755385883
P 0.3225832905135029 5.476736024473286 8.00898831271474 0.10462204428746497 0.7532494082937092 -0.004607159754708195
P 8.485102103074652 1.723746256838993 8.007618910522003 -0.47840439388951805 -0.08097972227817667 -0.12344431920029064
P 1.8249398603981197 3.146754877066996 10.308551996303803 -1.22085028380982 0.16220961289394642 0.4333573809522085
P 4.0765807654118325 6.202510189236952 3.6781827988362448 -0.7540199679111466 0.10592533647992079 0.6358003874449051
P 6.761814712936248 3.9214208389090195 10.319073539826702 0.49229940670405536 -0.33831449571274635 0.6898154082087797
P 6.246498410789417 7.613336348433653 10.189719016930889 0.21715357322999376 0.31330537526291846 -0.12686542906669765
P 2.4115514514755567 8.458955698527411 5.856885492183521 0.12656281022461427 -0.11797995365160972 -0.10674397572647422
P 6.901157234348197 3.9581391723423613 1.5265289478807 -0.20128241052569204 -0.28840552669744524 0.7134772706020938
Ni 5.169394306328341 2.845918269206859 0.4895882760618916 0.19332150380740254 -0.11646146012455426 -0.1761514197860192
Ni 1.4070742491154205 1.0693573548687931 7.009966225659831 0.5389759848249879 0.2692166124738202 -0.7704629439585182
Ni 6.899393746636133 0.6494187457857896 9.294386408390857 -0.9263039343219596 -0.2601853555094874 -1.0931255920666207
Ni 2.8696353794568683 1.6595319109155036 9.21102922340518 0.06352141759241317 -0.8518075057752813 -0.31728415740500837
Ni 6.425978272423404 2.0356046628995323 2.5339914830105457 -0.24095581785591408 0.2734095675092452 0.8760298686577558
Ni 4.021282829297812 6.815889004515367 10.287956079356421 0.39379787349203144 -0.01398602986644688 0.06963524379963491
Ni 8.239779368599402 7.0363699554548536 0.34846157294942 -1.0710945804085104 0.33647255740800114 0.41690334916124333
Ni 7.67739773879028 3.8271282306312884 8.209058692864337 0.27022937000905073 -0.1869503101737361 -0.068863655740933
Ni 3.029590912850143 8.257009363337174 12.477721059142388 0.4180037813142736 0.17711301236834012 -0.3769188383485057
Ni 0.19554019615457444 4.767804966837093 10.279212419363647 -0.9019890117256788 -0.08118103965570535 -0.6720783959403329
Ni 8.573915303104185 2.329792202294283 5.8311277747238375 0.6307602539178363 0.9991283744828535 0.1516693754842549
Ni 3.5609945416764197 2.646950068877302 11.497266878165988 0.7487157820894138 0.102788590623152 0.2643150614071448
Ni 0.9620185364762991 3.2326979108712792 12.42038521503458 -0.18705855361682625 0.5854407040454304 0.5363004948753537
Ni 3.2022417582930234 8.379589754098227 7.993172707101134 -0.016305936248875143 0.06723100523351647 0.21145883683806163
Ni 5.7750083772419005 7.961499208158376 3.430113162327865 -0.8430868380728318 0.021545073160627412 0.5190198534180351
Ni 3.2596810723431227 8.409065191571303 3.7243654829038753 0.3480165534918587 -1.4900733240415436 -0.9535766539949835
Ni 3.312792643589635 4.348121883524613 9.297468013193827 0.8820457358345326 0.3294171932231165 -1.1212413764662301
Ni 7.205025961386731 6.061197240228359 11.477039854056333 0.21247493680740184 -0.5115729102216867 -0.6794212094586491
Ni 0.47433680656842 0.05986141043830187 0.4183109819038583 0.1136468734938946 -0.04637138817568788 -0.11192114905203951
Ni 4.531065738878727 0.4781912868533609 1.7185394693952598 -0.07524307690471559 -0.7585474234678549 -0.7064859268859253
Ni 5.87635493636789 5.568302424706347 0.5784554604091392 -0.18830091066435956 0.36246589614796926 -1.4030445673558094
Ni 8.105799289413934 8.63740985812479 11.147232562093768 -1.1630369723457776 0.7317333885988042 0.4246503400965138
Ni 9.258580409926918 4.87750110043653 5.781838293171636 -0.34146512552658614 -0.6903928779788046 -0.3128371773772483
Ni 7.856814618720264 8.817987400885675 2.5162270435273824 0.5319651007247935 0.5914817680331879 0.13119593812125147
P 8.453602253687217 1.7119236912591322 3.5940356433346556 -0.05891271517580821 0.1169502268355147 0.059930872027677426
P 1.6681783991363908 3.1160557950590166 1.5497970885550363 0.25901267535762484 -0.09954128733044793 0.03203363139677709
P 4.868539703695631 0.9969913769701486 8.235987870018464 -0.07207573492032747 -0.23867962022722763 0.18116455672989445
P 8.424423729961578 1.4976959237884464 12.311217228010133 -0.5549037117988378 0.43914236306510174 0.0899911817481676
P 6.311018667846632 7.788947333964641 1.2561565902464766 0.16989875400808804 -0.9501478308190926 0.593153756418972
P 1.9653890603232522 3.1723974279822187 5.911087546647902 -1.2523362702332432 -0.07162502053615406 -0.35932863607056825
P 6.940016945717618 4.144906916868044 6.124537040204846 -0.3145562169508841 -0.5674416963648486 -0.9832746952800486
P 2.348326818043532 8.486172792042693 10.281912534988088 0.8116389039761958 -0.2892982137150437 -0.9931479885297025
