# total energy = -381171.6026622976 ev
CRYSTAL
PRIMVEC
9.23198529061479 0.00000000000000 0.00000000000000
0.00000000000000 9.23198529061479 0.00000000000000
0.00000000000000 0.00000000000000 13.51194365619254
PRIMCOORD
 96 1
Ni 2.045835651614198 2.7585726173212097 9.141005990147562 -1.0753027049525867 -1.0838194841743463 0.0159125574651984
Ni 2.3720570862763606 7.17315107246772 6.305591865885356 -0.2486837826277911 1.7526282082244717 0.17851683469440222
Ni 8.44508785536843 1.716835389358835 12.737236336670353 -0.3112999147971155 -1.0300618308369163 0.14685832724885675
Ni 1.0859030459220698 1.0735875774525394 7.220715184238235 0.09218253297253157 -0.1593286918017256 -0.9705788449799349
Ni 1.8762440805607699 1.8757917132781559 2.826793296333535 -0.07307897937386125 -1.2925475523448062 -0.5450479020506807
Ni 3.351321469311215 0.5934772556348675 6.159838204228611 -1.7153132738240975 1.375393124187128 0.11407856171467451
Ni 9.08410741798009 0.03366812740744402 11.033164167070984 -0.9458859702189452 -0.6101335788064202 -0.7461287380885279
Ni 1.1454401195052792 4.528039555214372 0.7972779484378044 0.6378487853335014 1.3356472117477578 1.5165508015067817
Ni 5.620294207063756 0.880015924427893 1.826760639034021 -0.6892456517482388 -0.07316151178533851 0.1867551634437945
Ni 6.404726771072396 2.897024701757152 0.6028209480171851 0.01581048466969535 -0.781145620483345 -0.8630933631017458
Ni 3.2674581143058075 8.505548127487586 8.258648834232508 -0.4475028192146551 2.186234471962693 -0.5319794989024967
Ni 8.735359939040825 3.9282190024390142 8.089843828331707 0.4108867106535182 0.08897816710262095 1.077004775245358
Ni 4.819502564998137 4.67178156726129 3.9194772355021334 0.1948651941454386 -1.9349770150704548 -1.6440281531258656
Ni 4.694575339113816 6.521391370059994 2.294422551792986 0.2557252628556047 0.10349050178618305 -1.2372989162841466
Ni 3.572593694406945 6.805487255526905 4.268490595619752 -1.6152749922525729 0.9040546360054559 -0.9178568319958709
Ni 6.453748613331172 7.102655632262821 7.453458151143104 0.0975823638318642 -0.1651247296582124 0.9358419557193818
Ni 4.295153492536431 1.1616145578550672 11.583194776405659 -1.3296444571971036 2.0287605739815184 0.5240653862617426
Ni 5.685324311935848 6.354670946453361 5.091030025596669 1.2149894541536688 0.012445424852204371 1.1833641139389037
Ni 6.602420505560045 0.12187790112008934 13.340044359908035 -1.071667936413477 0.9894679685749539 -1.1845835881683018
Ni 8.88778001732564 1.0072557626447614 4.790497513395761 0.540046077960715 -0.5255090606868047 0.4132346420604044
Ni 2.1111981079592317 3.1583914392690517 6.851947221848428 -0.7076897173860393 1.0786312551051875 0.6354761713362669
Ni 7.920692622979925 3.7419821617824653 10.629022006379302 -0.8306792084370984 -1.0988352408568882 -1.2229565315195454
Ni 3.60027118651463 3.590669921740784 10.5543684799685 0.7432717282557071 -0.2081498270694867 -0.2343668517844867
Ni 3.8752920303731835 5.8833503978964385 10.851401146519631 0.8765731427557355 0.2901474490892164 -0.22621619765289427
P 3.971618565613873 1.2898652984687973 9.482155545135985 -0.5476094921302698 -0.6437456104339107 -1.0059767648632545
Ni 0.020640872866698662 4.240361659427988 3.0144066260071805 0.3592023949053491 1.5473765286383867 -0.3725078537650036
P 8.545134880708984 6.169615799922823 5.139119437334137 0.8216250686546301 0.9274886986586801 -0.2301744109696939
Ni 3.251569867502163 2.9821436067714475 5.028010647135868 1.0903426300048447 -0.6156187702907076 -1.046830822765139
P 3.3804668470910557 4.746782216321608 0.8519636137146134 -0.6374433223649667 0.18139595601441016 0.7957723692575844
P 0.6850206992608168 1.338480933371756 0.8907831889526406 0.5648556808052271 0.8954126440597417 -0.5504006817221618
P 4.670682961003513 8.258749462872927 0.5300895209582239 -0.5101415770917989 0.26969149522770974 0.09474720837591423
Ni 0.6853770538956921 4.982234770929481 9.915091344965312 0.4056609434782046 -0.6378220458606242 -0.2841979163740009
Ni 7.098593558704655 7.41142861459559 2.9913146610275425 -1.378294099884007 1.0376674110983162 0.5805018719829164
Ni 6.214547872667355 0.16499127274880512 10.90528732186431 1.6703930162726393 0.39344331836609014 -1.6873108750739005
Ni 2.2282596823172867 6.509112829531902 9.027667675484981 -1.1905326066628852 0.6114764659875598 1.3319170552813642
Ni 5.401985449268415 3.6337648293987805 6.086955372609754 -0.19747434963351151 0.6442518606463679 -0.6271992760394554
Ni 0.08932961353674879 8.20281286357991 3.4523553938866973 0.5404996205583659 -0.19754659763234367 0.9930703412142315
Ni 6.137774682418018 7.35069138291565 11.823734154946598 0.5704128631780305 0.008483097770346679 -1.0189801191014578
Ni 0.640397898025828 8.346637963495063 8.490027313701248 0.6990958050694412 0.0316065711616875 0.778852196463478
Ni 4.4604798863537845 3.7915579231628085 12.766544197392522 0.1751638590617693 -1.0449338628527423 -0.1484632098421314
Ni 3.6688371417793997 5.2442200514604655 5.819526913510828 -0.730419040662755 -1.4466461060958442 1.7836064017735411
Ni 0.09572368659671635 8.137976630400365 6.078496104424874 2.842491327489737 -2.0814851580687446 -1.3663994053289499
Ni 6.053089680715618 4.839092837930929 8.361717488381217 -0.244828670547759 -0.6231011947106818 1.024568668932829
Ni 1.9792453412163549 5.083925089664022 11.883457714634067 -0.09786955605497982 -0.24256224311108548 1.1533053468803105
Ni 3.7405050441249497 8.212543376148789 11.572655541919291 0.3319265899085316 -1.4402661707114293 1.7535162672563802
Ni 1.4843555340367107 5.336447585201551 4.759663605493674 -1.3520320808636843 1.267119856300321 0.47468992115240827
Ni 4.792342064070582 8.154003356984402 6.310780241657378 -0.40767720257728507 -0.7314729358485661 -0.056477623371754354
Ni 8.157622295245314 6.272783236314879 10.675733082702603 -0.12338029873157462 0.4522711871375759 0.4268010678909295
Ni 0.8768373518686281 2.979041659690666 4.606221546429563 -0.01071430109371058 0.1160084317475357 1.7781052694496537
Ni 4.21793716698984 1.0539696085636698 3.9931577106560483 -0.2655283649889556 -0.019689508009127377 -0.8581223922497156
Ni 8.778233279050193 6.406296208583505 1.7792389943961593 0.43915933234596627 -0.6104760497475035 -0.7569224862699222
Ni 8.291624562737992 2.5226676954307226 1.9289790273311231 0.5302036379489966 0.5357705905138128 0.00881708407099772
Ni 2.5746991649166846 4.230344955312965 3.172860729922946 -0.7095221426090876 0.995166304511312 -1.5765521217610783
Ni 6.665899636891748 7.154105486671137 0.6235910686789163 0.3500832062129003 -0.15184472471985463 0.6999429835610849
Ni 4.068092812620314 6.42966236352832 7.810903083489524 2.4707758877190416 -0.6658408996710533 -1.171737071222937
Ni 1.4288159101141507 7.304282192513604 11.297525760633496 -0.7167297161011205 -0.48664169419764575 0.6791985519248819
P 5.106857341296941 8.326946138723317 4.162286759242967 0.9387622146899703 0.14494979737223423 -1.0850898662463377
Ni 7.197505049845995 8.242704272318171 5.39268422401875 -0.5024966589520313 -0.788515687695171 -0.6501335162381254
P 1.7875339332416413 0.30717584886558036 4.621949156687953 -0.1261768876401053 -0.0665234376435306 -0.06297197284684639
Ni 8.801156298697753 1.4944460940346092 9.054217942180275 0.1738968194238876 0.5169362314161291 0.7051728645014566
P 3.217291505862458 4.650695712700264 8.4515179331713 -0.6985949541736227 -2.0919171520353457 0.11094695806422829
P 7.876785300610296 8.048887971681498 9.42301360052616 -0.9397590313856009 1.1002856001501695 -0.21769838998987023
P 6.396648783882862 3.099648316426757 3.0158929756500545 -0.9777118564802905 -0.23787717893059032 -1.0751304410407807
Ni 1.2151046810278252 5.371316793904262 7.122631802183638 0.08221230913369712 -0.386101019068406 0.3142998779657039
Ni 1.8691169878632605 6.596678210666456 2.444756201386564 -0.40390822245315594 -1.3764153948040554 1.3586287602445957
Ni 5.917121000341372 2.3727125572368832 9.605924156857695 -0.20384991414255216 0.21657893167344636 1.6797394904845457
Ni 5.892240799797606 0.16401914469045314 8.04864609366508 -1.4422214946655871 0.3856240794319875 1.9277169910739318
Ni 8.67087452130494 8.105046138623143 13.281402788904694 1.1026620708021462 0.264863477711447 -0.7665489536160927
Ni 4.423164201530815 2.4929591665439546 7.660974718053226 -0.9659544588340462 -0.6712836679531794 0.9407563623018637
Ni 4.919752694016601 7.664532725210766 9.612653350986209 1.249172527793281 -0.11765599465328769 0.28952215680039173
Ni 3.265103958039143 8.487176476622244 2.3844390250404794 1.5877952987750654 0.9587103756771229 0.43235619338120385
Ni 7.167261065808379 5.1904622007122825 3.7074877716853485 1.3497551119040496 -0.6426559769141578 1.5582327546266002
Ni 6.791833149180252 0.6560608843867014 3.8184756228754093 -0.1126505710188963 0.24836830826990128 -1.3530692638789472
Ni 8.038363508371706 0.3004595795165673 1.6669688204396682 0.3515831877971945 -1.5108784337123529 0.25128908146112205
Ni 1.2517464309195536 8.635497553407458 1.4503993686860512 -1.0899801044591033 0.11988385554254193 -0.805499109627045
Ni 7.032797199047726 2.327078853605032 7.602238057600683 -1.028633325920506 0.32971852651361927 -0.7754231161772711
Ni 1.9025921667766916 2.857244076843204 12.81959210846656 0.6727114015386414 -1.7232124740665162 -0.5229654683293445
Ni 5.829010932070609 0.9905735651002027 5.884735195700359 -0.5896251744404233 0.8441954977559784 0.5415920822915963
Ni 3.6628178873250268 1.1388207860025406 0.3658728117810782 -0.11697542364649531 -0.5653084520719296 0.4864172368916655
Ni 6.426551184462179 4.94078315666547 1.659739252704669 -0.3664775884105237 0.341942836493953 -1.0725925051102752
Ni 1.751252230778932 0.32448766781165483 12.47945530227207 -0.37346147592752454 0.09274380479264027 1.3649670437577976
Ni 6.858866594875348 5.15926732218264 12.501182779815581 0.8781381732500102 -1.1745449729853772 2.412292546771168
Ni 8.568205612122295 6.422129063474993 8.045740787872456 0.25272735656954537 -0.5949923522896076 0.4342315560270457
Ni 9.030885022382755 3.870583717839855 12.612358963506974 -0.09161740449768092 1.2186157380523464 -0.5056773706728581
Ni 2.591039779002943 6.923989019601036 0.3197747392856464 0.31719159769120214 0.21014963110833484 -1.0767201541254037
Ni 4.799783044270314 6.123197377535418 13.165659542055973 -1.5885388618093093 -0.3973053724246577 0.9108932561938441
Ni 8.00877499529461 9.292270223865374 7.274992795762155 -0.7961567491801966 1.2686578902114023 1.4219776568148865
Ni 7.400017880691287 4.852710016336144 6.374583415675197 0.23643710404995408 0.38086676725266017 -0.30759212692822513
P 0.7228506056683089 2.1699319988161676 10.882546172328333 -0.3707273648258131 0.05442716860062884 0.7840026303161659
Ni 7.181626035027711 2.7502453665269693 4.998959435606694 0.5351087885600978 0.4278032839031987 -0.6675244580210633
P 6.054548334402414 5.1303619760221455 10.657991976437312 -1.1885302315208757 0.34619209868861023 -2.296690606433432
Ni 2.196418564812481 9.192961757353578 10.266888148668807 0.07707190258333824 1.850672342184103 -1.7081902896260708
P 6.132909426133578 2.228231986361208 12.042546979142568 0.8270423830154595 -0.16822342318819417 -0.10614619424147526
P 8.894436278769819 5.986240874727709 13.071927194701292 0.5733176955296513 -0.01440537679205261 0.08623094337478697
P 8.768115023096216 2.582103217174978 6.445467522463729 2.077807709217157 -0.42853733385574583 -0.3317764374839125
Ni 4.023797746865587 2.804021681245871 2.2327002672751908 1.930447245520901 0.17614627757969664 -0.8265101646610733
