# total energy = -381167.5494870783 ev
CRYSTAL
PRIMVEC
9.23173720229177 0.00000000000000 0.00000000000000
0.00000000000000 9.23173720229177 0.00000000000000
0.00000000000000 0.00000000000000 13.51158055384971
PRIMCOORD
 96 1
Ni 8.299313257171889 1.5714170702521493 7.863618651659747 1.2442951450963218 0.21384919144710912 -1.1091489640780705
Ni 6.5537948555296754 6.593232836742803 12.174771597696521 -0.019715733261372496 -0.65998418377996 0.5142591988045981
Ni 8.207974449558902 3.819871281470654 7.3967521624012935 -0.7099191209371902 0.13817699742477493 -1.1533135744104266
Ni 5.637184903125622 6.846828656949868 5.88174008311686 -0.8528079220153377 -2.0635283164800073 -0.8725156848569102
Ni 7.288096462194773 6.966324262947693 7.419803810128161 -0.6734341386372789 1.5888923884939863 1.5127062309497108
Ni 8.969832791692442 2.9203123476294857 9.922053247076718 -1.8367775864798817 -0.6243137269615441 -3.55577473691347
Ni 1.2163090680648543 4.747956283183678 0.21285154818362628 0.25484003203717404 0.29592111834820006 -0.6607498583013911
Ni 2.360979855648935 7.506168557751064 7.403183913691365 -1.0784013984825684 -0.5777592762407727 0.9086443122586674
Ni 5.0249545571302745 6.940050738946626 8.000044340463461 -1.238337899071622 0.9636080700890567 1.8462320470245623
Ni 0.254993505215415 5.738170876086855 3.538331916007499 0.0073584972476002306 -1.1109844746249125 -0.5388438301224978
Ni 4.160208504177377 3.8734061253505514 10.501862655285928 -0.9253744805291546 -0.705471883799114 -0.43155272364330194
Ni 1.4718804800274465 5.876185346858447 11.486789309135062 1.207757455181604 0.35921602175210393 -1.57826679045934
Ni 1.326342143457938 7.248769261827751 5.175381098534134 -0.03474717367319822 -1.1228092351739825 0.36202418062486036
Ni 7.581471837890453 1.9255926669847332 5.427912499444881 -1.2110551520962691 0.09278777065669827 1.1245601564268182
Ni 8.708593093104179 5.121232344132075 11.136488272494976 -1.5822571425656555 0.6726057291987126 -1.3127888190923456
Ni 4.2461836724914805 3.9446382093956083 3.2416035733697286 0.061849172096312834 -1.0360378459146933 -2.790965648806619
Ni 4.89233142086909 1.3506031487547774 4.968640960360595 0.7335416454521367 -0.4501243159979022 -0.5495686727391697
Ni 7.960970089695042 0.8467118543808358 -0.17977146436316835 0.36626392973782085 0.7651407604146564 0.7363192081972738
Ni 3.393531195238302 5.492385105530142 6.773868391705584 0.05232811997975504 -0.047510129765821404 -0.9822858490042179
Ni 4.686777560922585 8.113819962107433 10.672108813231565 -1.0302135259234322 -0.152425279813673 -0.20655959976423136
Ni 5.086973367474325 5.885463242719681 10.189649919883932 0.637465948072786 0.6277430643580673 -0.34870663758034787
Ni 0.4865356284842696 -0.03965954290533509 6.1454049590610875 -0.24612167832756968 0.3831051696648757 -1.4431103250284438
Ni 6.655528599202113 2.6863801276059305 8.90319903593443 0.4698328501704231 0.8699229844290697 1.3240039710818747
Ni 1.6506807656397673 3.7556737811532197 10.358828889012095 2.237317149571121 0.2547135337616388 0.27949048359600254
P 9.295805431354308 7.0166003036046884 7.096512066942017 1.668499141684036 -0.41704167451132046 -0.2679647423445901
Ni 2.957977835304943 7.925224803352059 1.6999191590382532 0.16292386535215167 -0.8243026154867934 -0.5958040495576254
P 1.4735606561933616 3.9224451132260496 4.548484291688297 -0.4634657703018147 0.5864838005979641 0.28258583469187465
Ni 3.6963229428528472 3.0727283283946347 1.0172165009673806 0.25980740334477836 -0.9853547177375289 -0.3419580060026046
P 5.332075989480062 8.407647692924707 4.637039730542912 -1.52931607159225 1.7408394431196599 -0.8785042983401773
P 5.634406150235839 2.1856045445286725 2.6851559992564784 -0.7050509942116115 0.4899442762083176 -0.10118422225050962
P 7.518169816079028 4.550563278900187 12.784657082449328 -1.090567087310825 -0.7088066045993018 0.4721473572362126
Ni 7.131101539790646 0.4533364552542496 3.2562229523606248 -1.9671006350778766 0.909441611348982 -0.006483550841814641
Ni 0.05320711721017197 2.560339219950777 1.1025648343272765 0.24784971676226994 -1.7414073998079882 0.0611248923357786
Ni 7.592448373391953 2.898857790433955 3.257155357815336 0.3007429652168756 -0.20162770968025273 -1.4789103654461886
Ni 4.002548896696625 9.315192079422559 8.013421127630552 -0.37682370753153815 0.10710007351431232 0.4575067245049024
Ni 0.5738244729984258 7.71923705175831 1.7537623429398073 0.3538491010132358 -3.092121533191197 0.5234146400516211
Ni 7.020966915288633 8.877247699560783 5.7093724719683285 1.1267106271109177 0.19540898246405056 1.1682596541972976
Ni 6.560829439257298 4.129328343325807 10.729437901090533 -0.29568354841609723 -0.2347201213588474 1.062758549738989
Ni 3.907415845104568 5.776057925454522 4.474765177648198 -1.1383677517338717 2.082653724455549 -0.5122110580263178
Ni 9.030254511505156 8.729013695736072 8.283085709565047 0.3597757509103159 -0.27229962227451815 1.8177326540332888
Ni 0.8578942576213463 4.948183430780002 8.455844746369813 -0.9646000016886807 -0.1707580166845898 1.4074257271426407
Ni 5.828826535148864 0.42144357283454265 12.388309063952278 0.7001085626046717 -1.1278627384374897 -0.3044150147518241
Ni 3.5864837339404456 6.059869221436532 12.088648721587614 1.0534249310428891 -1.0475849273223443 0.04247976643076555
Ni 6.623614483786903 0.11897678236857019 8.382814319922996 -0.7564972258070456 -0.650716385324789 -0.74870806877993
Ni 5.218248670107905 4.416499991639648 13.109840408582702 0.6231045371447914 1.146873732322354 -1.273170176259459
Ni 5.316880550089423 7.58020708989743 2.676819740587131 -0.6523914590343668 0.8632897953832681 1.4451196421489885
Ni 3.2249135157304005 8.51499433279976 5.6791339168504456 2.278235742162354 0.4271034296226967 -1.2241726633148335
Ni 3.714583318985704 5.403455781319924 1.1696417134697055 -0.3766617280323771 1.4883437429449462 0.5607498861669697
Ni 2.559434509707592 2.259800016207019 3.8433688221030913 1.9969449721328187 -0.6861726692498699 0.08437229289949341
Ni 7.510073582576239 5.315181910449158 8.878162564714861 -0.7653510766532496 -0.6127679311054737 1.350385546399197
Ni 7.342831431907467 7.952135317218225 0.9881651472502485 0.7694440157757007 1.7248852337832488 -1.440797617734867
Ni 4.48513795753843 2.1825026808377523 12.108416640401208 -0.12981885526806675 1.2737252774319805 -0.33836411800375915
Ni 9.196887367520356 6.833008746398358 12.85429576865792 -3.7733404579802174 0.6635909272946119 0.13453837223092313
Ni 5.328974125789141 0.9552724676944504 10.078733367243165 -0.9419922915914938 1.262033700026665 -0.2861825509041974
Ni 6.822789213345237 7.517772851380487 9.910271704093528 0.2660011908603161 0.5322574351542317 0.055549198020214005
Ni 0.9410002020213479 2.897906921504893 6.545806633351839 0.15359538886237417 1.0599804727732198 2.3481818323341885
P 3.806614506886841 0.833595402202088 0.08490890267034905 -0.7400794465706544 -1.0196516912471858 0.3496759434721526
Ni 2.2513529766915674 1.143193709636024 1.7498979377582027 -1.829331671724798 0.8643020386978664 -0.8874707635048457
P 8.958293120223246 0.2606950260949156 2.1552995209031267 -0.13862822602958058 2.8501920385681045 -0.9185536009525794
Ni 6.331494624347071 4.636898484964129 1.8999173595526295 -1.011718038222406 -1.7874126628935088 -1.2299846420109204
P 8.66751186267384 4.492098687368649 1.5989331860770193 -0.34493868589748333 1.0450040539690455 0.9744154451172057
P 1.5096290533374828 1.0502485797545267 7.670700270385152 0.04850129003449712 -0.13603706826363668 2.235789657183001
P 7.7577149323052 8.456372801736244 11.996134713832205 0.3154566172779664 -0.2686738525964728 -0.9245219027208722
Ni 4.964791325958471 4.510589856930889 8.158535727463713 0.7362212491668289 -0.5326811529552117 0.2683025852999831
Ni -0.18206278153009203 6.844354551386872 9.794666352141398 1.5629167903658308 1.1248604612760564 -0.7355959568780042
Ni 0.9789611052864172 9.299036539365684 0.11325587484100126 -0.44406499717769976 -0.5890075954610824 -0.5879714408870841
Ni 6.350650478985938 2.56234250691783 0.42458697934275186 0.4295858297249182 -0.07799852816266567 -0.027575852735739603
Ni 2.9614674319572285 2.9809833243459343 8.072034350130613 -0.35746021540326184 0.0029140883230014325 0.5154794443649445
Ni 2.028434219118214 8.354722143698384 9.516976621080367 -0.15085844954718536 0.07489212132320006 0.25088104738942596
Ni -0.047717926285704496 3.2112690081852224 12.006349631016738 0.28842686685368396 -2.2443524591513473 3.711703144784395
Ni 4.348332844336809 3.681016722616105 5.396741538872287 -0.09368791387346445 -0.8897721579445128 2.5535294140681892
Ni 7.562694484475776 6.37733019942272 2.510654010473004 0.5344660127697763 0.16991212374452672 1.4127785068141216
Ni 1.0136447418542347 5.281430679336052 6.270157116206562 0.2806315391789812 -0.9596884233196764 -0.9335428752725601
Ni 0.37646101027389656 0.7971808149138913 11.389437871099766 -0.35937491592747145 -0.2899510168076942 -0.4593512339128089
Ni 2.9212539848213717 5.754298720932205 8.964866117092098 0.4308145599256968 0.08130470971776321 1.7657140948741525
Ni 5.559906031230705 0.4575156626735339 1.276689245060279 1.2501755151364986 -0.23804352930512548 -0.8064061948223467
Ni 6.196092735196105 4.887614003172483 4.175916304981248 0.6087433833271129 0.39992969742138224 1.5013296136816532
Ni 0.4784043143802149 1.9437884209573624 4.705677696441693 -0.8856437375984361 -1.8912937152498914 -2.660168231675367
Ni 2.7848366045811166 1.491608702371185 6.066119107504249 0.9152795581869978 0.06970183537151223 -0.023104447227947307
Ni 7.954738667101676 6.331254599180512 5.3205095459730565 0.06155992299066817 0.6053302438805059 -0.48633059071513024
Ni 7.261130557905554 1.8406145262855689 11.083063286287466 0.08575348951773618 -0.41082243307448607 0.6586402681575559
Ni 5.269198627578703 2.0705401723750185 7.418790165386307 -1.1703520179499523 -0.36142459936764854 -1.715286020130588
Ni 4.598789873904254 7.762044617040442 13.125797466290308 -0.19898821517487666 1.0645863469763472 1.1836988715705032
Ni 1.7286520178228353 8.92576971015446 3.827601015007581 0.308577630769946 1.8381690675107696 -1.4711044962485245
Ni 2.05339683644038 2.026338614779408 12.84493294081467 -0.7457692978665801 -0.72632635865062 0.020717949273641737
Ni 2.552843049364387 8.38216809832072 11.867585543186506 0.04068436509323961 0.7881143384916943 -0.31739240084809855
Ni 8.476497988778522 4.109387791027036 4.941131306751747 0.253294284816609 -0.3089216443729261 0.9480942907241736
Ni 2.7505499327118397 1.1274628294892153 10.6415185289273 0.5184022744386944 0.624417342418944 -0.8308964666542272
P 6.220695314768433 4.355958259243654 6.404975559568045 0.6383000139383072 -0.31536225779194715 -0.3845280181543313
Ni 3.97295194731243 0.4862900642754051 2.807368505505011 1.200467349278094 -0.1982413097065231 3.2550248297180584
P 2.811036274684781 3.8551549809548704 12.314779200524274 1.0357169722401647 1.800241953447693 -0.33964889825345373
Ni 1.7875135740529136 3.871642863550058 2.3414353448749865 -0.17779744002987444 0.6753141292688112 0.1898710833649569
P 1.8717993344639259 7.101938482053692 13.357413443456565 2.161835474293038 -0.519375436985241 1.8498164219417113
P 2.101004905053698 6.593703655338745 3.263776359717502 2.102725298394443 0.7302382921105166 -0.6985324763668034
P 5.737773911388316 6.5537210016322724 1.0159739091435775 -0.1286140363266882 -2.2842600939795625 -2.3151590975512644
Ni 8.649925403354784 8.252369873635196 3.951151199972823 0.7410942609884139 -1.2152733039426749 0.5580720822244906
