# total energy = -340897.04391122086 ev
CRYSTAL
PRIMVEC
9.01329713943576 0.00000000000000 0.00000000000000
0.00000000000000 9.01329713943576 0.00000000000000
0.00000000000000 0.00000000000000 13.19187144160660
PRIMCOORD
 96 1
Ni 6.401739301337901 1.788391362191836 11.361683664190547 -0.43135500581019903 0.4629597771996737 -0.23357855155523646
Ni 4.5311376566876485 0.4254555623191432 6.06688900635622 -0.17507875554713073 -1.1430235053383284 -1.771207770998872
Ni 2.7534540913997265 1.5984181001179343 4.857563222909996 -0.3021727556848667 0.1771065846104369 -0.07659444872628744
Ni 3.34828663068744 4.390512196001734 4.835242694077628 -0.041184187547793585 -0.9845401922560334 0.31741219834244044
Ni 5.066067823733432 4.631104134348684 2.5394748139437673 0.574438696507972 0.3464538369904291 -0.08048632758152591
Ni 7.201912774181985 6.294670345595819 2.8320969108829175 0.19821559867491026 -0.01621517630728175 -1.294654314275164
Ni 4.990247968888546 4.50940659748282 11.456928976853039 -0.11957506605287146 -0.23216624458874213 -0.7449707132246848
Ni 5.565719946097465 7.686377491004693 12.329993884328136 -0.2552992310617797 1.048346488078717 0.561418115878588
Ni 1.8524128111888907 6.404217958028622 0.40783997455061677 1.139005642428187 0.2938020151226682 -0.22547160617738587
Ni 2.670459652097336 1.618247353643701 0.40034992469611125 -0.1097591084037142 0.8604381848670858 0.5105660662237271
Ni 0.5033079156504202 8.941893717879779 4.645636273193954 0.47426286091731873 0.4646158247458579 -0.31333751405243454
Ni 8.581037356899055 2.373750926272467 1.3676668794979994 0.7548144387879839 0.3667989763056844 0.2871659978633893
Ni 7.019645881091961 0.7078574817251717 4.615387648270103 -1.105281253592548 -0.5752496224450415 0.4778878592644156
Ni 0.9820167409724212 7.2705219913811385 2.5217582772482006 -1.1229089939766401 0.4839559198353665 0.5202236439181492
Ni 7.475168901064107 3.8791608140574985 3.601486368957954 0.826117300098029 -0.24131037298185537 0.5235102850892209
Ni 7.709118039479924 3.7268270804943247 12.464656147681028 0.2393725325291942 0.3416037079869794 -0.10650126358804884
Ni 7.911349385551572 8.833247435152693 6.879811787887666 -0.26436854035289953 -0.4921135159454944 -0.21574615135950584
Ni 6.916542776055032 0.8852373651508 0.3460943830604966 -0.18182584446297717 -1.7106737181695573 -0.0976777517591479
Ni 1.881859252674654 6.319961657138228 9.205947268466533 0.20544888319855587 0.6696726147123175 -0.05808276307534513
Ni 0.12818530808761272 4.896374480038156 1.4618702550206826 -0.6770339401733954 -0.3075612736902897 -0.4422528836696255
Ni 6.3549693029082635 1.8680418682860176 6.877028481756413 -0.21327763521435525 0.24479550331697839 0.4753015865944782
Ni 3.528128946869086 4.265218353610061 0.4496580675770471 -0.275888368067041 -0.2077183959590229 0.3489557774766764
Ni 5.962611468712742 5.596202916744803 4.857352311758858 -0.06736238860505818 0.07054155766398819 -0.6118510757181592
Ni 5.121175121940949 2.7436476242015293 9.407624296769166 0.17357054643272044 -0.281968769933166 -0.5190980149541383
P 0.29561180757301186 5.5521729606205446 12.36342149912405 -0.5859340987420812 -0.47076718905923437 0.039347391449370946
P 4.039363155951579 6.069518185107795 12.58186596394213 -0.7217289690879248 0.8383871186043175 -0.18564213288527384
P 2.53610744616321 8.404719239866761 1.5977997879398127 0.34042999939385243 0.28398605747351086 -0.9744414132591348
P 6.214028376825349 7.814456442187031 5.769689055841735 0.28940491449623706 0.14894632012613704 -0.4403662081698739
P 4.550579338439958 1.1903140359635427 12.513439716673236 0.6848922598755495 -0.7723002542775732 -0.848847394705693
P 4.02742955064789 6.045641961203361 8.116589370180902 0.22626530572327486 0.4272304421188642 1.7527899306133168
P 4.662254088978251 0.9503530284105948 3.6316033997447708 0.031011617890165946 1.2532500402967643 0.8942057682358343
P 0.07084361353962418 5.546728929198015 3.57023456407164 0.8299749832812222 0.23548862409375573 1.644407133731839
Ni 1.6358503227963472 1.2295038515681032 2.5384725353110107 -0.614621953595077 -0.39232000339492434 0.7311957709277794
Ni 1.7348343510781516 6.382631111576708 4.917586373332491 -0.006125139061131386 0.4641447986467103 -0.34732441252084056
Ni 6.04045931539549 5.577112753577724 9.188270390278019 -0.4783856248364406 0.21832445360964334 0.6028198187538263
Ni 8.58099229041377 2.1620466049937366 10.062878374209301 0.06172395937235821 0.8207421518290445 0.4045276012047098
Ni 2.436780912593233 5.152514355808718 6.956535676427386 -1.4434024023475658 -0.19000298095713083 0.48996793035740127
Ni 0.5537391153446791 -0.061476093908110874 9.122693246208897 0.2649282695111115 0.39719892875378043 0.5382540190572987
Ni 1.5881429414727644 1.1678619129941403 11.43594061332572 -1.0634100672800588 -0.19009116979556293 -0.6390368921043318
Ni 4.348194766318337 6.859308339742023 1.4627012810093531 -0.19181200914141158 0.39882849393740344 0.45793738428441777
Ni 5.570821472231822 7.902381154979692 7.905334812425325 -0.4101963694547129 -0.1479929550739322 0.46353261898400816
Ni 5.171433266331711 2.8616136560857264 4.7128619492948305 0.004222779832095954 -0.5898591448281003 -0.06288712644252395
Ni 0.8140413316962406 7.435249008397916 7.153582574031752 -0.017305581157983103 -0.4993444864762948 0.0130401210134098
Ni 5.155894342205155 4.376505532374898 7.181284942536954 -0.1113292811043115 0.12062021948793421 -0.24365007685862558
Ni 8.059654175330193 7.165129508891688 9.052697783922351 -0.3583580446271828 -0.07050273400625277 0.24404217009072163
Ni 4.598899623963427 0.28598290232684076 10.363573681322556 -0.3365520044956849 0.3412383542277607 0.15379284958516096
Ni 8.261588082598955 7.072635054491044 5.153206577022708 -0.18245165097243415 -0.5553135456427468 -1.1754718556750208
Ni 6.987892035559563 6.1589120653207745 6.91823907856119 0.8218050458759201 -0.8452609629060153 1.267936181554029
Ni 2.3570763267167085 5.264829050438071 2.6721847971540775 0.44619541325714124 -0.35593915077304505 -0.2870742094805314
Ni 2.3250610955696525 5.13574060998533 11.34328121558893 0.14564065279167177 0.2551408511070445 0.3768640738511703
Ni 1.0903115051142787 3.3471870084464657 3.8508392320444695 -0.6512514318926526 0.48962854474011164 -0.37263692314370017
Ni 3.6209568932608454 2.8367730093961754 2.720731316433683 0.017535180670285932 -0.8260555936221581 -0.09723192247098095
Ni 0.9686950879219289 3.2991100819435384 8.098714199457131 -0.31036171925356226 0.4751995137989752 0.21306834741702663
Ni 3.4982228272334073 2.7650812446034716 7.049445643822366 0.01568578616637299 -0.7889558605563832 0.0019882340746223822
Ni 4.020182859813928 6.709300036819599 6.076809041097338 0.3892328798291684 1.4758273556454906 -0.7297096733005562
Ni 0.7904949944640984 7.449625217204097 11.391339214168037 -0.21452333469599827 -0.3597618669532449 -0.024779520937525064
P 0.11525933877793001 5.574589030401717 8.0353272865729 -0.12273418050714348 -0.6423302181436228 -0.31302049703264795
P 8.405449316928392 1.6218887256547962 7.87717006178109 -0.10983495594697214 0.5850725220727343 0.8455337569514276
P 1.6576084218923477 3.1242431057374485 10.280042950845264 0.1742277204007451 0.3019477841582542 0.1265288716628853
P 4.088783063716024 6.124391137591826 3.8924328939741764 -0.750319636241424 0.9853374913463483 -1.4452420266594659
P 6.745109866027722 3.797139810837282 10.469847664264197 1.1971801938863897 0.4738537984043581 -1.3460239269963916
P 6.220716243241766 7.760638045458689 10.1984248420035 0.3271919034370236 -0.6776965134580586 -0.20259624424110914
P 2.2193531476832025 8.445053744197581 5.913137481165954 1.2679801474180872 0.03616102330158933 -0.3658970333167053
P 6.914190305523111 3.977757270565845 1.4911562598188282 0.8417249247282987 0.8349675513998073 0.5059344809889867
Ni 5.610056354321668 2.806542411066438 0.4002823249681825 -2.05890187345159 0.7175393564866094 -0.7583121675285972
Ni 1.3968988045138024 1.0630462815163495 7.112529709925475 0.0744807448173943 0.2980366220293061 -1.013931758044273
Ni 6.882833045061228 0.5724146668471284 9.132732256471169 -0.6769807183379567 0.6342492409077012 -0.46509199305132803
Ni 2.7247287136785365 1.462758966110519 9.162678034613899 -0.2694492973099166 0.6225406942215214 0.3394771485622799
Ni 6.398467474506149 1.8887724515175008 2.5215203262058914 -0.022960208340599166 0.2029492567051537 0.555125855111973
Ni 4.118842409401674 6.889881443359933 10.362504704291574 -0.37509464065557335 -0.5072814819351844 -0.2117249460152547
Ni 8.036976719934362 7.394986610443552 0.11168827048388058 0.2757114761695445 -0.4158512537476451 0.7065278358674543
Ni 7.489328790740916 3.8862993453267745 8.054759053698445 0.40647495473906775 -0.35847091605596326 0.3818874952076907
Ni 2.99988664623972 8.502008768301817 12.50326911227393 1.2562322628535396 -1.2208114601520845 -0.27843684552050757
Ni 0.1089635507834991 4.819013351396494 10.118204695535308 -0.8305313700053246 -0.7142565719702796 0.5402013725916567
Ni 8.52611032463268 2.314533564606882 5.704534635404595 0.5275841980482785 0.2591494580458053 -0.07030115951840796
Ni 3.4184371216833678 2.758771936663455 11.570035940293717 0.32975889283325144 0.32198593375605195 -0.774203384837557
Ni 1.0825420430510009 3.333459757028401 12.650437325293641 0.19906431982845074 0.44256604403467004 -0.17487281018391174
Ni 3.1542483716407563 8.30712325933176 8.117828698526264 -0.5728836933160263 -0.8101965151027143 -0.26095951467135053
Ni 5.600114687667614 7.938362236831901 3.595985553763965 -0.6680669607880946 -0.05544172590807226 0.08268616344632211
Ni 3.0329384065483502 8.38639520694954 3.825748015696729 0.5063031771823152 -0.785702386616092 -0.3273371707656363
Ni 3.2500597193584375 4.195356288119962 9.149011172286118 0.3651120755215647 0.13039966747220122 0.257099517495312
Ni 7.348730369946173 6.2133343529519465 11.363293439044957 0.4612762188496637 -0.7830397521822644 -1.083103431943928
Ni 0.7929628351983506 -0.06063695595208866 0.3508984703919664 -0.5271990467947179 0.23389788256786814 0.228486995964942
Ni 4.565478318475453 0.5622882276034016 1.4306977671484715 0.202549964384206 -1.4626067431901586 0.3795012543637013
Ni 6.225403157711494 5.532758318759407 0.09565451634888682 -0.624707362855537 0.16267935344151335 1.8665422193368242
Ni 7.901723184294518 8.904885120163053 11.208974977469797 0.4078548658057298 -0.6248343753517046 0.24078715348853366
Ni -0.023390407193053183 4.738245196467224 5.96614287849974 -0.39157669747099655 0.29232028837081914 -0.4156301388757745
Ni 8.099240576005268 8.842675343874488 2.318366018515589 0.38203430519820014 -0.08306000184597309 0.3689957268466871
P 8.626112855481946 1.6145248619590913 3.486717353539934 -0.17862147859306657 0.41380774095505507 0.35144023446142697
P 1.7978733506959752 3.3141803146231212 1.6168620098860145 0.1535758484783484 0.005998383675279992 -0.35202078955524535
P 4.5842530162455315 1.0039460927125077 8.060866463784382 0.8578848223176129 0.9685312184222868 1.4230711469893815
P 8.620614744277074 1.5675655842912528 12.39567558264312 0.13940624184618575 0.19420699173614941 0.07869144046463221
P 6.371634889166964 7.968250329873466 1.380965097976143 -0.6273648550830422 -0.6020006652866406 -0.09543960645724853
P 1.6770951701299421 3.2844003811462428 5.981853956600087 0.3845236472789571 -0.8809005664864957 -0.2931391847276887
P 6.760017859360276 3.798086207028285 5.817232395158879 1.0676760416452644 0.2943900264156543 0.5620133262604257
P 2.344854295907191 8.414886238947245 10.289185138050346 0.8873429796777298 -0.016372013600120194 -0.6847955863966853
