# total energy = -340888.12902893336 ev
CRYSTAL
PRIMVEC
9.13384615657196 0.00000000000000 0.00000000000000

0.00000000000000 9.13384615657196 0.00000000000000

0.00000000000000 0.00000000000000 13.36830711346628

PRIMCOORD
 96 1
Ni 6.876909392908045 2.117079424104266 11.360574779550761 -0.5129142547409296 0.07966691700402408 0.3711081452039996
Ni 4.8384997867368975 0.4857169368515058 6.017529545259079 -0.7758923425042057 0.02211251562832321 -2.0125621098447857
Ni 2.630593395312658 2.0768539651262725 4.411139907096177 2.5296186688888627 -2.16605388324976 1.5987844507967175
Ni 3.3776415479809345 5.065576338883104 4.961553703855249 0.8294875021218424 -1.4170750773069467 -1.3220478757967682
Ni 3.898362123897237 2.7293302735034177 2.281983711452242 0.5301990099633063 0.3713845387938378 1.0980608245847088
Ni 5.414352258745653 4.766753424277284 2.349640850936277 -0.019006623009489843 -0.4498697767849349 -0.611292889221844
Ni 5.750167250749492 2.9691576750441016 0.6580799230644747 -0.1709909586310023 0.15500795293918465 -1.2826130668399136
Ni 5.914201995932457 8.213538188530563 12.350671841339544 0.5627939131801921 0.2019958916529489 0.8227077601958476
Ni 2.4491312714444033 6.920642248854147 0.36187294203070314 -0.9812075283383747 -1.1232249825551623 -0.7497820185703991
Ni 0.6371241395646541 0.458299870499498 0.11430186562136815 1.242316681213712 0.3995118931576732 0.2843113020234136
Ni 8.013616561348385 9.107230243081602 6.692736343466523 1.563204753919895 -0.3870356150675335 0.35332870973339153
Ni 9.020540908122443 2.762440466236212 1.1365464127459688 -0.05518564403320818 -0.9943636061043586 0.041623846188373476
Ni 7.065852136872342 0.7842649226845643 4.522164548675469 -1.412075052989194 -0.08514465228914368 0.6528414020875918
Ni 1.175032787393942 7.534573725967183 2.654116702999289 -0.5944951009382148 -0.47069622661198296 -0.667655841392605
Ni 7.932882494157995 4.296214199774491 3.853561521322042 0.03988732311324098 -0.38968899352998043 -0.6699816613123042
Ni 7.663845052242284 4.082454795491572 12.616928027065699 1.5883773965307806 -0.8075061127547448 -0.5215814434976243
Ni 8.062592245054107 7.366337411499504 8.823363088360107 1.212758765050937 0.8307360298169627 0.27573950119400253
Ni 7.414637190581165 1.0926272263359365 0.1503275820839024 -1.3201090069028425 -0.6613748934798996 0.772099965341309
Ni 2.0512791955671488 7.0200184962838845 9.425231494702881 0.23324996457122413 -1.0035840962613618 -1.7676758465862137
Ni 0.556037505908198 4.99301706410536 1.0345670191289629 -0.3009805351489784 2.163240325060365 -0.1120928987432134
Ni 6.605232269419981 1.9876710901350996 6.803077773344736 -1.3190368568845863 0.5148729211291971 1.132068034768089
Ni 3.6999110459647073 4.245877572974373 0.22362487164035116 0.4345565434666322 0.7571849959026895 -0.5068191975867853
Ni 5.804531903755171 5.412936512573632 4.48291458447923 0.6335038781012444 1.1154008585250532 1.0667501873968857
Ni 5.587539117892277 3.064807313195224 9.46367859381189 -1.3502708751982035 0.008401850910450046 -0.8703742130338753
P 0.473430086847601 5.787186729686323 12.261518194656437 -0.21988382767696324 1.404387454536949 1.7483285524078536
P 4.242927340628802 6.272056958988497 12.73356633056322 0.46134152486996033 0.6267920132987076 -0.13881463100877384
P 2.3554271425490287 8.799264348358397 1.1935626213241541 0.7529516745476323 1.2065454371513737 0.26460302496120885
P 6.597578106244787 7.927840611016339 5.588942076679521 -1.274170335389199 -0.1619764138372178 0.17833145815647353
P 5.125329961188742 1.323247710835335 12.651231100121501 -0.36836786345470107 0.299765946015587 -0.4686486000543348
P 4.1862883599016145 6.427816439449831 8.274327589003347 0.871463589443312 0.5670004950623719 -0.042225741438430504
P 4.897860653652879 1.310286782976622 3.6593065323664624 0.7000769380357879 -0.11159616161245298 -0.2394807759722843
P 0.5589557697918194 5.585182585554329 3.872624771874487 0.1858082261494929 2.0115516663024002 -1.8772840312343604
Ni 0.8545955389721547 0.12269495695989631 4.483048852019416 -0.7505173540745268 0.25335342018931856 0.5749004666357389
Ni 1.8516315837731034 7.018968103962705 4.9152323158759135 0.870307878572314 -0.7079442565990066 -0.1958481268839982
Ni 6.309067304079057 5.784702323500579 9.351799024221622 -0.6786917874917924 -0.30968243379835053 -0.8453962029322989
Ni -0.17951296107399822 2.581754719301003 9.860476623829458 0.5675890205759903 -1.06322469074213 0.1539046925726769
Ni 2.551832238916828 5.616009316719345 7.032799487371057 -0.13073442510380065 1.022606917220768 0.8417910020795437
Ni 0.692164697194397 9.457093090650416 8.842039063830658 -0.3059437926915247 -0.2433340882801035 1.06541167109112
Ni 1.9173130723086957 1.4077266549968837 11.3967758658617 -0.7269534507116576 -0.09483976808972054 -1.2771648992411488
Ni 4.852301028452554 6.964630852495839 1.4172139811186915 -0.6583754445319436 0.5250904850921473 -0.21409498890932804
Ni 5.950490767167599 8.297797920381607 7.789752382935731 -0.0681799994103471 -0.7503016385192949 0.829027017545656
Ni 5.4019941647408345 3.0151374571728975 4.9673692237760685 -0.46679303490283475 0.04480712901236154 -0.7150214751607622
Ni 1.2261275234345625 7.964257256099277 7.119719908640874 -0.8357838766535154 -0.8564378054584412 0.11891146432694359
Ni 5.391581579991763 4.577344854153159 7.187176103506944 -0.6105945776032389 0.7727026319223144 0.25392291953954327
Ni 1.3997710748947418 7.82117555426225 11.535498896258149 -0.7128411796799917 -0.08422162625424204 0.8714003403055444
Ni 4.7905836291986255 0.7059403641404934 10.356641767430494 0.15985808194263437 -0.10803672639596877 -0.230360558838571
Ni 8.461138493247967 7.336725481888548 4.695978903060918 -0.026411400113993223 -0.4048554168577737 -0.2134460424714195
Ni 7.13918778858313 6.186682897892379 6.953484819891197 0.7828577180784453 0.47893095581694933 -0.916837132482105
Ni 2.6775596328387343 5.423796655789988 2.286488524433156 0.2539607147560143 -0.17747862323787497 1.0183941646910009
Ni 2.444427340614779 5.474809187214168 11.305631040691491 0.8488247689978736 0.12324865824971679 0.947520934719207
Ni 1.2623706254383493 3.568904288898096 3.6548017193855484 -0.9692369862400598 1.349250147243173 -0.8189362089685573
Ni 1.414723181240558 1.296704753571473 2.440384700255183 1.0663652932536407 0.22048160916196224 -1.141067152942906
Ni 1.2633936162207144 3.976264698743582 8.053843847095633 -1.1659978547463143 -0.8514238971836174 -0.5310934967531177
Ni 3.8984077931285923 2.8982972956727857 6.973724509843361 -0.286315476937636 -0.18390355292761232 -0.5885687081514509
Ni 4.393672339487296 7.047876727410787 5.950728247170649 0.3972814611652577 0.7935180260057688 0.18128874101258455
Ni 8.517192907813802 7.7337007085237754 13.549714770426366 0.14443763362250608 -1.9125181718463065 -0.4645098952956129
P 0.2811178669938885 5.975426167487745 7.856005650247895 0.47500770950314325 0.22070375247509733 0.10420269736185926
P 8.583778647130236 1.8119450217251059 7.753484619547012 0.7083378924929994 0.012228166635075715 0.7620664923647069
P 1.9707826083798068 3.528203869914005 9.977114927326978 0.3400366206101757 -0.973467993602272 2.4429488382044444
P 4.110203420463222 6.627235705087099 3.6099371798864555 -0.536078865782851 -0.45865935005210684 -0.6541488080451057
P 7.289521764359422 4.033177694858904 10.261659813441788 -0.13758847191115658 0.9456689691121327 1.1837587782741614
P 6.826490561491487 8.307543734352885 10.297754033751357 -0.9159560154287322 -0.5364010250089601 0.5129186256163037
P 2.5571572712928883 8.906221688193162 5.678308541980743 1.8675169245452676 0.3667606668685813 0.607663777109689
P 7.544904106099816 4.324154635517834 1.5671396739666648 -1.2718092913561903 -0.1152988072750208 -0.03625743967013755
Ni 2.971532475074591 1.7210541174812344 0.3382245006501577 0.3321831860040279 -1.078792206163084 -1.1108291799939707
Ni 1.4755637312524594 1.40286744878065 6.64904824336715 -0.40035238678109764 0.7002905967084907 -0.21306603342418143
Ni 6.994936954423401 1.0861513293297156 9.23823517337896 0.3359611649892214 -0.8775074816445467 -1.0528685443187866
Ni 2.601155008780852 1.8337109773891744 8.629897263722354 0.6924294487928591 -0.374717974042445 2.190219167642054
Ni 6.998964980628963 2.271907252245947 2.5088565788266015 -0.282968414842274 -0.001287608463171976 0.7478670609358733
Ni 4.668591978401604 6.942618282982451 10.633258474981977 -0.8948184621191685 1.1499014634050841 -0.7404993077168925
Ni 7.482044976061998 6.37376233721737 11.449901969313018 0.9445723936138443 0.5155054125068735 -0.6680530768310237
Ni 7.685391795595845 3.9805119372596507 8.080914740673965 1.0579482728345393 -0.2079587941046031 -0.2831033977582415
Ni 3.51391853434598 8.853017033663912 12.200198117715303 0.05592663596429078 -0.36123253796150046 1.0667805264141885
Ni 0.2406494477050836 4.842929702178388 10.423616608598076 -0.5541994866429617 0.6323170568819949 -1.4730986438604177
Ni 8.498559861420727 2.5002534090238377 5.627228420094156 1.0549531947619573 0.5018950208122904 0.02677238299783776
Ni 3.780992199313401 3.0863175211637013 11.383888922157784 -0.026118294353606634 -0.5857201829590623 -0.12926426831617738
Ni 1.418650735137138 3.501094614181333 12.515756978843687 -0.10348510246954436 0.80053045276786 -0.22701632495668647
Ni 3.526112219117919 8.62065198452673 7.9223529961766515 -0.7301069087389749 -0.08435635205989343 0.34248405370940377
Ni 5.97448538132182 7.856587476255365 3.3624638356322216 -0.5652387751762588 1.1962653953816043 1.3724535819428298
Ni 3.3845924049932536 8.803027493022096 3.2413864828469396 0.04931735817788926 -0.15297421033860753 0.6091763570994735
Ni 3.6838720119126283 4.620063853163167 9.384270761100064 0.873459022606786 0.4315794631161793 -0.8456527990277953
Ni 5.414242652590401 4.89746789826322 11.57663317294012 0.48257240922427863 -1.3731560073264932 -0.20246717486241259
Ni 8.299916972716504 -0.006723424240168217 2.6979518580236275 0.4642165324249102 -0.8356357811114253 -1.4667937846883126
Ni 5.0273603260847555 0.37572716005473134 1.3545841106222787 -0.42161283882177064 0.7891728616631957 -0.008176108052889144
Ni 6.589695596912813 5.800056319082325 0.22393816256745044 -0.9372686608635793 0.9983444451289775 0.5776456334810438
Ni 8.555500259074861 0.08861018282997409 11.345455523818183 -0.2677336001703905 0.00541011527197778 -0.6871964825286939
Ni 0.20443922754787278 4.80389164321564 5.8684459930373025 0.12960185416125422 0.8363664886298627 1.0327211228366344
Ni 7.527814679726558 6.379936817296643 2.438914151005534 1.1699866641907335 -0.30274328347635604 -0.09845756734796592
P 8.912779789815822 1.877599108721885 3.665857326912107 -1.0186474183523877 0.13327287525493822 -0.8875859489264714
P 2.0254943475437894 3.3831401234361462 1.3184049455423896 -0.1524345357850536 0.17023762540474552 1.1233008300984202
P 4.898326479812705 1.2686547116728768 8.0836548945553 0.4516952600294479 0.2606980334798478 0.7869270030518125
P 8.941286524027973 2.091577725315311 12.279872658738245 -0.2681840574442478 -0.5379791681293574 -0.41311611420466915
P 6.839323615502404 8.320532063750413 1.3008606536248306 -0.5823672073264293 -0.9902539548113591 -0.035659143964506326
P 2.108877230152804 3.614683126408927 5.964082843803646 -0.35158370201782674 -1.2039985023598039 -0.13613682706629457
P 7.092495566445186 4.251440085353482 5.875063464660727 -0.7105608682862472 -0.5289160294858245 0.16189336720510827
P 2.748931507601232 8.927887171548246 10.053167898303421 -0.7517301434357054 0.5717518937044282 0.21376408793247054
