# total energy = -340861.0854373996 ev
CRYSTAL
PRIMVEC
9.43208318315715 0.00000000000000 0.00000000000000

0.00000000000000 9.43208318315715 0.00000000000000

0.00000000000000 0.00000000000000 13.80480714813158

PRIMCOORD
 96 1
Ni 7.237369440385647 3.5409077626429544 2.0416064641431935 -1.2383006180757834 -0.207382609886159 -0.30766591758895395
Ni 2.614592309815515 3.244938425878786 1.1904505657950324 -0.08125354476485361 2.52141556425278 -0.2642965494643836
Ni 8.022580929479634 2.4489272015926313 6.277515386338727 0.4631340979940088 -2.2354366447189564 0.7251747615446802
Ni 5.511430275430481 0.8100008899953426 13.351774869823377 1.0698100572691316 -0.2799442833039695 0.36622202075629184
Ni 6.220543717773034 4.007720421272364 11.480781584716874 -1.4377657728870785 0.8677362611903958 0.9876640825969958
Ni 2.400625503846709 1.057779827594608 1.0745538442459162 1.817752708637947 -2.3392498199518807 -0.1284883093821013
Ni 1.2588812721641878 7.790014055564147 10.149128961523763 0.34039786060433636 0.11322187014133404 -1.4360493044166043
Ni 6.675783210393021 0.6620001870719249 2.3697882512377424 -1.2601488242991266 -0.7021587602654812 -1.2958244233238652
Ni 0.0823458586215589 6.990833651343872 13.729045933605809 -0.4671072237091439 0.2704805667879083 0.8671071122468292
Ni 1.211324708986109 8.08414413611655 6.338919190770623 0.17193018261582002 -0.7286254390974419 -0.9075317959207789
Ni 7.022497154435664 6.981646802368179 12.63758319391972 0.04939911925841815 -2.2482618215080827 0.2156139966570158
Ni 0.19676551595137987 8.829599394786975 11.842053005873566 -0.9529978986733783 -2.339145690273849 -0.8576814480575551
Ni 7.986144792320389 7.717075756663695 3.6230027278530623 -0.5754378271964476 1.348055869824756 1.1279848658376508
Ni 8.431735263890957 3.9122111474244408 12.776197087704935 -2.2930977468758513 -1.4193862419386265 -1.198368043546904
Ni 3.6371338748093094 8.38489553903131 6.070608494598164 -1.677644041408098 0.8081848839893242 -0.010651566176575204
Ni 7.478132794547416 0.24396648959518397 4.9126335342530405 -0.044140699072956244 0.31576334988510785 1.3599958157954513
Ni 3.38086417596988 3.526089960034315 6.590773731493499 -0.5298202864676489 -0.36523317448046133 -0.887741243557413
Ni 5.057398089452063 8.227879651045297 11.186587365999138 -0.2965975755899344 -1.3106532608065815 -0.3360005028675891
Ni 3.005108847947606 1.5060678749424332 8.88231625064945 -0.7117993686790386 0.0028760359962144016 -1.3968808617472588
Ni 1.9541955768769248 6.622218410256506 12.138635428041658 0.633602865572954 -0.005001824089965579 0.49620156997193904
Ni 3.825898154635349 2.4711208932146107 12.597893931286434 -0.7244443111365588 -1.7718963124254645 0.077575324582318
Ni 9.213834165549649 0.149715455637772 7.2707712763996355 -1.0771947797689772 0.9824390867526307 0.4003076495860912
Ni 9.410879814370205 3.4185076197706956 2.576432931067091 0.6731587734887052 1.7094329037839204 1.2606270494871257
Ni 3.841828943054186 4.636500811534849 12.90002619117249 -1.0137710640966926 1.0142706294409305 -0.8226789638404411
P 2.455991831862441 5.339964436078182 7.633879124143154 -0.28056366205552324 0.3544296561070541 0.5347046111431437
P 6.271005362557389 8.968845238142386 9.110219902661877 0.03917975552325511 -0.5747603415134488 0.3067238653906589
P 5.6532227812329525 2.7880200224603655 9.249386516518934 -0.05583381914016836 0.39121391481493917 -0.2326223582895542
P 8.339696996637548 5.07970496607169 0.767591414585268 0.14308934712472776 0.8590821850598237 1.0993198938027908
P 0.8376529281288558 8.70708606691707 1.3565297424676417 1.6136623963498142 -0.2553321411822441 1.1968014703907324
P -0.04884875856788389 8.777298493790854 4.514199705535531 3.3956577448824943 0.5928315971928629 2.5628239519962377
P 6.153292965004351 5.036609778217536 5.221530484165141 -1.1561371599021508 0.8001553288166284 -0.09514778624844258
P 3.7717485653443235 7.538177435799231 3.9811823121573613 -4.361579807816708 -1.3062121943160923 1.4333177644180541
Ni 7.544129080258844 7.636346557091861 1.5353563795002616 0.9962806206214133 -1.0040155273718256 -1.9903773462176302
Ni 5.144890092633313 0.19213530633929757 4.617003752481813 -0.22702172427332518 2.3517759774433498 -0.8360870097162312
Ni 0.8493175853447087 2.31082264029683 4.6963266284578795 -2.2346110634938676 1.6255113252686004 0.9224889314512436
Ni 5.516033132001465 3.2652645650395877 0.4212311736602731 0.08146720343755647 -1.115820205450659 -1.6296603144399675
Ni 1.1600990654676346 7.058763514098439 3.680472410408404 0.14483049818555055 0.12324197338149744 1.2717041332368937
Ni 9.244714805741047 3.050948771994703 10.44324017790989 0.9579729832904663 0.20334623503325625 -0.26156732345867856
Ni 1.9154863076815984 1.5081146369832192 6.482282138415448 0.4507694057810689 -1.1212457473416044 2.202277384358169
Ni 0.9464057899098093 4.58508652635363 13.553987413786524 1.6212222109749432 0.8896472023308742 0.6328582740974456
Ni 7.12095867030555 2.1822161867202525 10.766217341529297 0.0047382860159337755 -1.6024752693847433 -0.1770425641417209
Ni 1.870250036955286 8.786334429436351 13.210288906722866 2.037585114251684 0.2159868066154022 0.45247661828016267
Ni 4.438521386483703 7.825846539402609 8.243871748004526 0.7729597422384429 0.1641759925916979 1.1905575463635494
Ni 4.772502018291042 0.915383668471352 10.15456750066071 1.011389965459026 0.3811961255676209 0.40142736501283127
Ni 4.809617265436169 5.925593045987689 6.77190651285318 -0.30815725540307576 -1.169228188758154 -0.15017427899596716
Ni 2.661828182166927 5.734659387040079 5.560921358860013 -1.0774338923629767 0.8978508211875892 -0.9788994490304882
Ni 8.876429687563485 0.7886013797735207 10.014917964147024 0.22224410037902367 -1.4500443331441155 -1.3367602423062783
Ni 3.9979865114747084 4.201578025992526 8.777013644880107 0.922171914431457 -0.1848450909052752 0.17745728308163633
Ni 1.4668398411745571 3.5643747854884644 8.566338635926208 1.0039913590021097 -0.27662447490211717 0.44813659614391205
Ni 3.218990765168176 6.159433251126708 10.009906698376197 0.5389564444409621 0.05799508845754528 0.026534298845102687
Ni 7.240887607395846 8.87882543668035 11.856810443150128 0.5054120328266134 3.7633360384693377 -1.4148880969579567
Ni 0.29091468341090937 1.9073086916015916 0.9127389123596635 -0.4289661938630483 1.2739003695572642 -1.53724972461703
Ni 7.729544970571156 3.6608744280657994 8.288254415206916 -0.8637369102230157 0.20093505448860235 1.2128214999680726
Ni 8.648069522727216 6.716086501638545 5.783882599308512 0.18915040314884846 -0.6116145342273208 -0.1625708528881071
Ni 5.799033354451898 5.492339739160662 0.009333046264321512 2.4274461145831547 -1.6460786078969911 1.7854642809178864
Ni 1.9533938498102574 9.373491036814096 3.3799275701143494 -0.13601444255581735 -0.7144422056185245 -0.15226175765261518
P 0.48566079036260135 4.953399940780604 4.158339470474686 0.5575810015206849 0.5936008712587196 0.5461958996121948
P 9.321605147476014 2.1853570704049607 8.22246091928294 0.01096189832814241 -1.232515121742258 -0.41702264834792696
P 4.348878868347159 1.468801714467108 6.138721339765593 -0.5001088754461451 0.2562883344479263 1.2309295224226928
P 5.337738464457788 5.8977684007327635 11.118460372707004 -0.8490158019627572 0.9490759379111524 0.16464676158052932
P 4.30597232215575 0.5523371292682255 2.6621328384522607 -1.1913299057531999 -0.1984464837387937 -0.8919259710627221
P 2.541191838841336 8.803821511572837 7.893381197873724 -1.0912540860755207 1.1115231207372018 1.3418793087003988
P 7.2330589783919175 2.0841979787578175 3.767967243214595 1.0304958330505414 1.324544416966377 1.3334448047798002
P 1.4847136387196702 2.9603913417938426 12.446510883349994 0.20969711695194854 -1.6752953386702631 -1.2994859313358522
Ni 4.2779496031549415 6.907652110156352 13.408664479265777 -1.3188108569167094 2.8286305103472444 -0.7615036778827015
Ni 5.981251768580678 5.910341367554736 8.926422557815918 0.11792570337490657 -0.19058045072715565 0.45143480727920965
Ni 8.968854670225523 0.8756161195480247 3.0471070845328954 0.7480848333736342 0.15586978671884769 -0.34532306582009564
Ni 9.116664845069568 1.3942033689344966 12.314660736382512 -0.3956878914258927 3.1369798271564684 0.35624125539449614
Ni 0.7686591263964061 5.222214310192593 10.658070019485757 2.371421262478103 -0.9036283471013147 -0.684427404423989
Ni 4.182270551810548 4.472250515782555 4.208657747595355 1.075561100820296 -1.3189396691850896 1.5214533810147217
Ni 0.4874774095748381 6.318439308654685 8.251574930302729 0.5593005553149529 0.034077401299683244 0.10966552024864339
Ni 5.513420444972444 7.623716997771067 5.323437540005069 2.9270507966993717 -2.5717508221722225 -1.457115123947968
Ni 3.174226098598727 5.683273398108272 2.6482035380751507 0.050538889289816195 1.3533477143513144 -0.8437255000980954
Ni 5.226336130523577 7.970374349314886 2.725483424843686 2.6885213288967633 -0.026640485405663796 -2.096799934048944
Ni 0.27357474177136554 4.294804735721231 6.7743362174693385 -0.46845139644186423 0.3906426156925014 -1.7485298697853822
Ni 8.000000522449028 5.236154929069468 10.388172846929608 -1.6764482213277838 0.27493577434578453 -0.22039367743384625
Ni 8.612001236810324 9.424122459094923 0.3816267997752204 -1.5435638397605158 -1.1668671447251453 -0.5796040427589952
Ni 7.983645290289015 4.069123282495944 4.803962731595381 0.1953177083018249 0.5958202475075416 -1.767878192405007
Ni 6.763746817731134 7.715161043786829 7.157999403993895 0.8609958571427688 -0.4822443364608985 1.34359397739866
Ni 4.613958132836791 2.6220342234108154 2.402823179217691 0.18598331827477646 -0.13163174010708945 1.2175862683465675
Ni 0.8847341143168166 5.717870279055751 1.862613822447358 -0.8451264942106801 -0.699199420526841 -0.15722398675389698
Ni 6.9768930324669975 6.00629394931011 3.1086080394211035 -1.8217016659833658 -4.031769750030547 0.21133670943790056
Ni 8.059564127460844 7.6154073325271385 9.395054665282506 -0.07113085450855491 0.3056830828309703 0.4615785805814309
Ni 1.9316434660957296 0.9392383499338034 10.959097782436437 0.14322535848195977 0.20057381449444167 0.7214296926799512
Ni 5.73414062246753 2.956524187707565 6.928370623975664 0.011177356773058169 1.1975573747201504 0.49582490335881063
Ni 6.175401767878094 0.6080788541928211 7.0853035096300685 -0.2763568230630273 -0.41528381127994934 0.14713369239743046
Ni 3.0849325675382606 1.8481412340815422 4.486313751740214 1.7337010323026658 0.2260287642324365 -1.1746251914040093
Ni 2.6765799601936062 3.284317372976858 10.543214599914993 -0.20000894312990716 0.3312647879548166 1.3347285565882305
P 1.6507465981849068 2.0919417190135103 2.8224207160785904 0.4634058635981568 0.09727331723187764 -1.2203854283582594
P 9.085463514051503 6.679754117393809 11.666442709190756 -0.4015975720421084 0.9411759663377856 -1.025014498220996
P 5.255085119925954 4.765673190099663 2.307818521817612 0.057295234177043255 0.15037739614570875 -0.9053072774656344
P 7.878024823317946 5.70498605349025 7.645267421323085 0.4032549051398732 1.3084703942226499 0.5884159846236705
P 7.424360488581882 1.772826050230499 0.12902335165124493 0.15911863267344853 1.702361855869752 -0.015638734978521453
P 3.783180250106686 0.3013663747353103 12.23838913930135 -1.5745487181778044 -0.7459263922697348 -0.7095211141678232
P 2.525091272926028 5.969829515901452 0.40734714728222227 0.005466936651842198 -0.18242234039639552 0.6642761262870946
P 5.902635355631592 8.171956830124465 0.47903097912541936 -1.1287253435481013 0.39166462919911255 -0.857547236472536
