# total energy = -340887.0639918318 ev
CRYSTAL
PRIMVEC
9.08145859607469 0.00000000000000 0.00000000000000

0.00000000000000 9.08145859607469 0.00000000000000

0.00000000000000 0.00000000000000 13.29163262325879

PRIMCOORD
 96 1
Ni 5.230311802906945 3.0599884564310296 10.123000396240844 -0.4335216744442147 -0.9150764410372564 -3.0609803317017024
Ni 4.331310953319983 0.49720896037902834 6.671960691907899 0.6197595319319585 0.492622594371429 -1.3513119148682082
Ni 3.54065190704813 3.012038354041778 2.8283667582439813 0.48926627630468644 -0.6675146878290503 1.087572266348559
Ni 4.894007221149605 4.967467141268289 3.4434503292256164 -0.34779466728903974 -1.3613803548478038 -0.8409425380363195
Ni 5.058626824560582 4.663710507799411 11.751797263462818 -0.700293167811652 1.113666906553082 1.5554958153114116
Ni 5.773228653501 5.819634907896658 5.525903296781472 0.15879390234417814 -0.7993919682880427 -1.095593593991139
Ni 3.218759600383924 2.840244398189985 7.507951656001046 0.4164986575236569 -0.12480494699324311 -0.7241442633976367
Ni 5.654134402983454 8.1419727929888 12.767956196554183 0.038037414388695776 -0.7540235674555724 0.5046944379342985
Ni 1.9732829351994787 5.580919682251987 11.78606342375356 1.7222269702247952 -0.3336317455250964 1.2324914675931742
Ni 8.277168469933645 7.783918117439367 9.377366314483323 -0.04998738766172037 -0.4864066953687043 1.444447041561996
Ni 7.783681999510933 0.16950815267539626 7.523981338903937 -0.44574881263802585 -0.3028286441013107 -1.216629560860253
Ni 8.323674620375947 2.6329601014031176 1.9948477672323415 -0.21823395077836608 -1.1392990052988896 0.04593995706522411
Ni 1.4616880359577964 1.4395565208966967 3.008176009620159 -0.5499759354799173 -0.6117418038338045 0.19746843609624057
Ni 1.8339461130482888 6.7438368056143325 1.066346706925448 0.14657936255585724 0.4130703485683983 -1.4325448908077716
Ni 8.004216144666348 4.199057669021752 4.281633557469665 -1.0775480493433378 -0.5800984658969106 0.08703595577458559
Ni 7.122415578019773 3.993635071285982 -0.1147742005731202 1.0099529759021832 -0.4318257747990305 1.0023491954129964
Ni 4.814144872586901 0.3602941632860228 10.595877404094963 0.2581454422613232 0.43510598821219904 1.0382302255803215
Ni 0.13833967797650434 0.24109638413831844 1.1928259997276414 1.3564032133481865 0.804075489806641 -2.0547318012343
Ni 3.4112592822674386 4.478031001464064 9.779664040945626 -1.194501361502646 0.25539461898906335 -0.029924555473574272
Ni -0.057471103780329144 4.764269500935051 1.6935131588216474 -0.016447604033062 2.5652263907901434 0.4894516528426151
Ni 6.735218501226568 2.162159115027442 7.662812323800756 -3.752536633860989 1.8175981853379537 -1.175556187858711
Ni 3.0605969141696807 4.430989044953397 0.6271446563951135 -0.9536923536372413 0.4934612882226404 -0.018255860886394366
Ni 0.5687381623598425 0.12926003548241846 5.017485091823077 -0.396764155209207 0.3027777362587173 0.009979994030847329
Ni 6.5702719652993 1.1151758945251689 0.6877679345200088 0.3086614487330039 -0.40793225601088456 0.4128147809141665
P 0.1587075737413931 5.974764386876429 13.024046069147929 0.3843932923486799 -0.9903938228233331 -0.6272378425868746
P 3.852917867399343 6.203826021831748 12.961017112590664 0.4955168852000886 0.8334020066849002 0.8079349727620473
P 2.6085128143516285 8.848392227563172 1.700212550967964 -1.2644741911473576 -0.14960220854258105 -0.7685256177264893
P 6.248988116373746 8.042285619896601 6.3762220784010415 0.06273671690758872 -0.3532230373934626 0.4959233766098878
P 4.72009728540071 1.1499397187573759 12.706362110485081 -0.3994026212733186 0.3112652049044381 0.8827509894316732
P 3.7559914577780407 6.360935258826832 8.749828430922783 1.2029649188889668 -0.044904573822174276 0.2756423134945059
P 4.478176304804638 1.3372448062153888 4.423681195068429 -0.2191631474608548 -0.04188738426240528 -0.45699096121074845
P -0.16914489432396254 6.199466921614543 3.802696492167753 1.651407990529704 -1.4738710032500681 -0.5430105599056777
Ni 2.3199222170551077 1.6432263970867986 5.38010774114179 1.7220176824274664 0.7309355752878572 -0.7712036787792848
Ni 1.6301581778939707 6.691563928843021 5.31220022492477 0.693576932133741 0.6240023663687123 -1.0615676147546813
Ni 7.1131978973521415 0.8237173725440792 9.725288806465391 -0.2857755452737659 0.9453115857727138 0.3866784888384308
Ni 8.629628966871 2.532991403088557 10.901318648168616 -0.04297187557583567 0.6462519217955321 -0.5661438034890314
Ni 3.553838185205174 4.24358406144874 5.327991065461593 -1.1930654003870678 1.0906717312094893 -0.15747672619465136
Ni 1.78677701611462 6.8589533771836795 9.680615294406072 -0.527139397201376 -0.1598007463421377 -0.6822034001894768
Ni 1.2329987408126966 0.9815149841151308 12.007222373273441 -0.1875277799437609 1.1890961313266748 0.6412426415063989
Ni 4.2073399594344405 6.979518824024532 2.0256983908737287 -0.848369683738326 0.9540309679235827 -0.07107531868027113
Ni 5.906371920760244 8.098890352508759 8.734477132991193 -1.5532435289421251 0.5521644584908039 -1.0570550715963087
Ni 6.94065926187991 0.7088351026114075 5.14423410395121 -0.3716190234021471 -0.16489461592527732 1.2730380215569688
Ni 8.16455838098919 7.477464290711092 5.2264431014641755 -1.7819493257860923 0.31632899258059066 0.8707254257257069
Ni 4.832652885592449 4.547622220139979 7.621329128212904 0.5457477563311827 0.6173822899490334 0.28453473088812936
Ni 0.35364199472539276 7.874578320498437 7.37757369294209 1.8916223022339034 -2.0515364342254543 -0.6411637086393474
Ni 6.363296438111151 2.2462170975492057 11.832556860153563 0.5371055072751523 -0.8051782359525167 0.49526851663470833
Ni 0.938051122366086 7.856006737281389 2.9982336285414184 -1.17509801727537 -0.11594826793356161 -0.046085224393836756
Ni 6.77993560428806 6.191339016001214 7.6095532006053 2.4422492410342587 0.6772828229594078 -2.2462270504662416
Ni 2.3577192485217866 5.272022943110322 2.8816921760885728 -0.1006885135610137 0.8264628563629057 0.4543995463344884
Ni 1.2200304176665127 1.2257426552428081 7.388180836803954 0.5276441047519365 -0.2394239545924199 1.399123120814216
Ni 1.1965639281638942 3.6595736098487452 4.176496600960081 -0.13240821326179775 -0.3893724907308262 1.1598963698342668
Ni 0.5756001126184256 7.698661382357871 11.602625221446559 -0.4549369068951971 -0.4104681350588608 0.6448462996972572
Ni 2.14527668314456 5.737556683390208 7.458626620751618 -0.6952481491885768 -0.3548903977935566 -0.004703061902624158
Ni 6.353888046809018 2.4411233660109692 3.657378621260207 -0.959649856772257 0.29631809667630254 -1.5062121385849352
Ni 4.1828563465478075 7.0434250495005095 6.711955436400752 -0.6350663374923579 0.8421548131768659 -0.06722097793118746
Ni 8.18575450579535 7.122206704467698 1.142000707486792 -0.09518506724428123 1.1310902442358521 0.8356116127417094
P -0.09024790483019388 5.981339363037379 8.503295885555259 1.4937440880249113 -0.23836208898680886 -0.06025868768074138
P 8.55476142064051 2.036562540019233 8.44180805255395 2.231662265278189 -0.08751778050701056 1.712966885079108
P 1.6220393537394269 3.2985765416526984 10.882550905441793 0.05787758904307451 0.9609351512425838 -0.37148326915523117
P 3.5654715339098395 6.53542640793802 4.220531686466756 0.5915573584661296 -0.574592705587333 0.8647224140647366
P 6.936863212107427 4.229544126165826 10.764402034783854 0.8955805370961738 -0.32206178129930985 0.5558727605803265
P 6.531530462118894 7.647360221676643 10.75009964534203 -0.6157164722108364 1.0227588694176 0.42681469473768424
P 2.154939355292697 8.606916238447607 6.485027944260107 1.5700860544207604 -0.193114530002919 -0.3758109499963076
P 6.507528166547911 3.9460754716245217 2.0389228111576734 -0.5321571621309417 0.9337773598808693 -0.01571946761778583
Ni 2.4732626486540674 1.7217537712079838 0.74246646893302 0.5000394556607904 0.19996214905237175 -0.15380287688748995
Ni 1.126046400691823 3.7083319620699364 8.492914870017161 0.1099236590060365 -0.39159083853838367 0.9301883569780303
Ni 0.6172921817583524 0.6629528483876926 9.707238498982651 -0.28794298523872985 -0.8684168321971882 -0.07009958503056316
Ni 2.862412239086228 1.8955184036163044 9.62787381436141 -0.7540793603941722 -0.20792845508729996 0.8119808606966469
Ni 4.737352057093812 2.9806346695603327 0.7688508311435299 2.165880848007005 -0.7901357397970973 -0.14225939502426466
Ni 3.936975849921107 7.108702575253149 10.969664798844994 0.5057210794266 -0.40387711210490446 -0.8110426651530935
Ni 7.195920905432386 6.088545984004256 12.080538806343307 -0.054552638434899596 0.8980822204721048 -0.1172603018767658
Ni 7.887464910515548 4.1574100990298755 8.712825118953987 -1.2678081406165973 -0.07286326381862936 -0.05921456268694318
Ni 3.242453126356188 8.597980083002337 -0.4328314071920656 -0.6202655250340995 -0.3691656767656481 0.1981927158567748
Ni 9.056294063547478 5.0929910646062115 10.867943378984766 -0.5920247850208514 -0.5620428939467804 -1.3817460629883493
Ni 8.860080065020552 2.651204752103876 6.257687245744704 -1.0305020036981285 0.5879894386092132 -0.9304035583126299
Ni 3.4502913921289924 2.8591519953821103 11.895134468209172 -0.17746371083953952 -0.23166796479608487 0.4710258420372598
Ni 0.7826909743331547 3.5054975800881323 13.00982359654342 0.5718920188267183 0.4743199394074992 -0.1080701507370655
Ni 3.4649034593154133 8.776221874592078 8.757139005245385 -1.345195260447509 -1.489972536797621 -0.5076393794952354
Ni 5.338844316856554 7.863853117672357 4.416596749069593 -0.14414504208275175 1.204716611472751 -1.4255530328709707
Ni 2.9575496013267197 8.630618845878656 3.746938151514434 0.9846098691517043 0.5615492421398135 1.8828728381760476
Ni 5.32376001381327 2.8433502570947433 5.817814075410095 -0.17137662410519516 -0.6313960877296223 0.020912067562318823
Ni 6.049731829153562 5.8059309865888205 9.549001344806364 -1.8510857755724377 -0.37237878438630706 2.8771071177913936
Ni 7.70327476342108 0.28789041682413186 2.833630371756256 -0.4654923138135402 -0.9596588556333213 0.9149149757587276
Ni 4.730422904040214 0.7023155233490508 2.1787509402291776 -0.44828469168600216 -0.2440030893226701 0.6678489312400175
Ni 6.092006019801663 5.960524659500227 0.9966001953042947 -0.9794450371213133 -0.7291211477869378 -0.9163841041050863
Ni 7.766054888007613 9.146845289101119 11.870278515512318 0.5898745714470679 0.07849963616880029 0.597208643214636
Ni 8.986067142756553 5.293854770031488 6.228419520369689 -0.4706298921504217 -0.1940874354391496 0.8445796205682744
Ni 6.9077571366988 6.012842943565469 3.2157509130881734 -0.07912415712667663 1.2913334774320469 -0.3350941890032358
P 8.540258330959517 1.9005586132424475 4.0866855142974865 0.3692196699320351 0.1047390294813035 0.8380981266089889
P 1.5373547505614404 3.371182804645513 2.06407118682743 0.5753293266430414 -0.35971018777970304 -2.0109163467112463
P 4.793148539874032 1.473275977368532 8.603408070918634 0.6550528079166138 0.1159698652001164 0.06023040554596724
P 8.377754707445643 1.9617131567063146 13.056198065833327 -0.37332469323934414 -1.400328196865911 0.3194233152351983
P 6.187579292063875 8.035129430373356 2.0259508554279755 0.3320492315293249 -0.4637491058701884 -0.6461578194198291
P 1.6209132528499826 3.826508985250112 6.366346900117317 1.1390267254741093 -0.03210639361624148 -0.523250089449299
P 6.870396015253842 4.266205975284275 6.475829334655925 0.5693643673088582 -0.8525245864469642 0.14866504144029236
P 2.3447236809992447 8.754580758305414 10.710344651361122 0.7308455866772123 -0.008059379969366764 0.07767019828896947
