# total energy = -340855.3215798934 ev
CRYSTAL
PRIMVEC
9.48044809588945 0.00000000000000 0.00000000000000

0.00000000000000 9.48044809588945 0.00000000000000

0.00000000000000 0.00000000000000 13.87559408671011

PRIMCOORD
 96 1
Ni 6.024236800191401 6.918385236089242 8.775299693097683 -0.2357087105243618 -1.612033859607456 0.30747205641059305
Ni 5.580513920545931 0.9008501644599589 7.822712828808622 0.1978610435489689 -0.5445102843796557 -1.073361779176132
Ni 1.175983188613432 0.9926692496162348 7.161207946036242 -1.2532441267594934 1.6691478310116286 -0.5549772453492506
Ni 9.448309099296473 7.042531700258061 3.294191112051509 1.0837372088731851 -1.2210649709237873 1.780840666102946
Ni 1.9355092655042287 8.129218550879427 12.663116629593787 4.107684656191306 -3.981320078020427 -2.8027919520175857
Ni 7.301120394925395 8.77765274024596 8.729122327868703 0.9600339795845529 0.4246233435133203 0.8642963822709114
Ni 4.528572911175328 4.598462772485181 8.101890212000997 0.11029389786126167 0.25453021410623905 -0.2948309706078148
Ni 5.166142507343124 2.1047352590447734 1.4514982748139462 -0.16711502061536382 -0.05451304344621579 -0.5502482153046975
Ni 3.9687335066623732 2.2706430958492287 6.7029524879314835 -0.3581577556909187 0.7479521644505118 1.1115421469005953
Ni 2.393206325232543 8.863706765084478 1.0376511303754405 0.904680699625229 0.5900301231883258 0.0724544584159849
Ni 9.4709389282366 4.505345814022704 3.207107510580023 1.8839745558806589 2.1556787106630226 -1.4118020018334654
Ni 1.2865062492686514 2.93216030320377 1.4382607255265143 0.41399157483108706 1.7346405133977998 -0.5692854344418067
Ni 4.590849972887812 7.787505289749154 11.56083918253671 -1.0131146614596165 0.3354441161434868 -0.22409169511072374
Ni 6.822158690742658 1.766055741216067 9.743927475093779 0.35280857556386336 -0.5784557880871651 0.8945618660236723
Ni 6.260006056962259 7.139374474712777 4.709681698010198 0.9824442289589531 -0.42380290449455404 -4.0189797973547305
Ni 0.67258373409179 9.383775691003448 13.387353635573886 -4.301239616165754 4.509471204315768 1.0887128077109056
Ni 0.014308839890797974 3.9825559995801383 11.854030563692762 -0.3917980694531833 0.41709129680233326 -0.3154735865588309
Ni 7.39126049277321 9.111345542522717 11.302767172275425 -0.21731349584662576 0.6772625112444336 -0.8202626410894649
Ni 7.178746774498428 4.848812957999195 13.020912522401494 0.9785636629576244 1.16945624560856 0.17690449590195986
Ni 7.659348596153575 0.7578651024331888 2.9204794434479555 -1.0113987072097743 2.0876254666385274 -0.07159853817359282
Ni 1.8095899575935557 6.788180765765105 1.9656580376083344 0.44309826238905625 -0.33565314683049935 -0.8299994087612544
Ni 0.46200118303741255 5.838107168192438 7.274571348857554 -0.3150257003881349 -1.6291658913020526 -0.6984671703465067
Ni 5.738647790140121 3.30222958375588 12.316643235614398 -1.9519308693159738 -0.5078314409013835 -0.8228851663139765
Ni 7.863178224227619 8.41895051662691 13.506488735026428 -0.35288982242376 -0.6286468071192592 -0.08806696814226123
P 0.9040773088970009 5.1600181380530845 0.9521166340773174 -1.0858776522549556 -0.6171573184224209 -1.005557675047965
P 9.126182443356944 1.8220946682647032 11.464945400908517 -0.4576208814852635 0.13621678837461057 0.4712251025322594
P 3.8329166112303374 0.07569758364279168 4.083683936448318 -0.37258472974952606 -0.08748718437939126 0.5258343052367074
P 6.190722944312718 6.890048177563041 12.624680998052494 3.0534567696311474 1.8343664059352283 1.8835930041715239
P 6.629478069301872 0.03592236482490068 5.3893776640545985 0.23465250134570556 1.9816019140178454 -1.4295431278669701
P 3.830375851215275 7.046636734162995 7.545270367566831 1.1358616974825664 -0.032313881641357255 0.6765387457045317
P 3.3854205133535427 1.4641603609188623 13.832426530988553 -1.5985566510566276 0.7888856694400801 1.4077730831797304
P 2.6761218489993173 3.3149997469659147 8.396621217882595 0.7960605899219645 0.35142275095993025 -0.013134994720061249
Ni 5.796592287200054 6.693177198186966 2.056640947267116 -1.0185209200768524 0.06178618006886133 -0.9786330827429791
Ni 2.8313262602179314 1.3542345684761388 2.3615150842685466 1.3803229573885778 0.4089730385705731 0.4783578569222987
Ni 2.870935571199018 0.057146243353708354 10.841653359153723 0.608647481179197 1.4539426397572572 1.695017756799855
Ni 7.636661884526543 3.5838083643804017 6.278733733580746 2.585043939736703 -0.4622822915166748 -0.6777726181116327
Ni 0.3178111560930513 8.120752510978491 10.397523768296885 1.1145752772999642 1.037707263197316 0.1292192740108549
Ni 2.3782935808157766 7.353755841207586 5.895656330578385 -0.0004149760502315434 -1.8309360400974402 -1.4561100797222213
Ni 2.9724048041886224 9.013829656272966 7.17537457920978 0.7860284024969431 1.47552653657562 1.1118373095435108
Ni 5.5710524336241685 6.13414363173849 6.6189215906572 0.31935775210458545 -0.5677132048586804 -0.3456261988828112
Ni 0.454295475051432 0.9421280342569074 2.603754746674778 -0.46515087131372146 -1.535026491713466 -0.6730471876115053
Ni 2.630037392158949 7.744160682328013 9.560908378023703 0.5064476731799793 -0.8631843801536554 -1.322566981525032
Ni 6.270861169713179 3.159634168134405 8.021188848000183 -0.08932680869129132 0.12908403398457124 0.40723548705417606
Ni 4.962000024491104 8.381133010283312 5.866351318330028 -2.723991496778915 1.2768131723286849 0.9776959156406905
Ni 6.696277304623254 4.41669414648222 1.3855427993483123 -0.5141118745934565 -0.03219072579993166 0.02289438809967025
Ni 2.3617786407178705 5.711258776395659 12.984988261487029 -2.310667637438814 1.608044793052721 2.281978754144554
Ni 4.648766028604292 5.35663314533809 0.07302978562697604 0.4493637836827938 -0.0435406035951121 -0.22682812020528034
Ni 6.940332472786517 1.5040161635432012 12.757414851854312 0.8047545181515368 -1.0538373359899593 0.7285840443365452
Ni 0.4843674555282167 8.054000677896196 7.011476597342613 -0.7630237140716536 1.6668317812839422 0.5509246725464317
Ni 3.0977268438867998 5.861561796092679 10.755486516986178 0.24670557585549768 -1.1113200035874602 -0.6775142222439235
Ni 7.655793428222051 3.324290585826964 3.228420505318314 -1.7100913633035257 -1.103505392639048 0.845062473741964
Ni 1.6450662661704405 2.3146418541697704 10.198228638413902 -0.4606527263330519 -0.5295544344007718 0.02048115067248731
Ni 7.663785445732117 8.120524980230874 2.7142607425239262 -2.11116854406579 0.32815246757808 -0.09764946962437375
Ni 8.442367222735882 3.4822443269126233 9.531283874683899 -1.3625597198678856 -0.7387823250257858 -0.4116932657152136
Ni 5.349247876488337 5.532751424441883 11.455856495585978 -0.8147625372068419 -1.6023742250305049 -2.077945263236286
Ni 9.013659008212253 1.104235159531368 9.225119448734521 1.2916844330135626 -0.6563758976034114 -0.006942492756104173
P 6.839109731440165 0.3463890179938141 0.8928600430394563 -0.9955424569038082 0.983735694076867 0.21361804927290953
P 9.474494096168126 2.8769556555630653 7.386284205713858 -0.8485907986101967 0.11236157902356776 0.16507407892593506
P 1.726844609043311 5.719137028531917 4.465054858843546 0.0854884087818076 0.9001871826302497 -0.5464113580571106
P 6.633147002607205 4.221302116965658 10.378125824017708 -0.32282128517315367 -0.8107444171863845 -0.4426092385677796
P 1.548953486197665 0.0038386333212642276 8.958707488528272 -0.4987181657462056 0.27786786039091504 1.3931931284830263
P 1.0075251113460966 6.129488731860148 11.062455832955253 -0.753514746139954 -0.06526976774208759 -0.04184933193561825
P 1.0544533280422141 2.663057791906944 3.568248105377707 -0.2918397491899748 1.397097348633439 0.8414690999637507
P 0.011596483770240562 8.65070954397101 4.916816210193387 -0.2377499093241067 0.7037613288659106 0.599623937524348
Ni 5.266237075399205 9.004444012933742 2.4918209953843298 -0.19733191051837629 0.3078667207458504 -0.6363248924898073
Ni 8.324307206065832 5.976815600208779 5.415782607315615 0.09162820313095832 -1.2620367853504588 -1.1287474550352885
Ni 0.5847018789140791 4.070022611143448 5.42476059139869 0.2641862491387644 -0.9768163412492145 0.9233790473656807
Ni 3.6375909448484975 6.605274486024056 3.485937909382281 -0.23469980964387321 0.468265248572987 0.5431334586367872
Ni 4.746973987544713 0.029177974247604134 13.252663017342556 0.8550051867769726 -0.47790302877306723 0.03070128573859874
Ni 4.157773636141278 3.480338756901326 10.139728587111868 0.19237276674088805 -0.6697903712371045 1.239830938677381
Ni 5.644250971222294 1.63009663906677 3.887441510762535 -0.2987189928083113 -0.37787246051102663 0.682228082779825
Ni 7.80748059330041 0.7348475231773294 7.0050516978567625 0.8226887340324541 1.7337401130707173 0.42462360062363647
Ni 8.746974011108863 1.5584244535672451 4.997850337912593 0.33048934324137275 -0.18491271091841704 -0.5570724373153825
Ni 1.6987919639516318 1.1392085315297473 4.823572213730157 1.6980022933494756 -0.7343186328274773 0.31336039687057005
Ni 9.039844005083904 2.161380934753723 0.03702020068215531 -0.40820376450471635 -0.06620822039595695 -0.7083317218454123
Ni 1.8760763381369643 8.367130388857015 3.815191965990931 0.9154531076503847 1.0589522886190215 -0.638151661285901
Ni 7.882518337775111 7.022945095067319 10.433488795136965 -1.468512310041316 -2.1409097798839647 0.7150896093945363
Ni 9.120020152275634 6.306574016641315 12.792395808210946 0.9304572943687007 0.22635066634822953 -0.030479913756412028
Ni 3.7009772189556167 2.9896497387684686 4.565819694560319 0.001386595934881483 0.576778143274426 -0.7990392129343142
Ni 3.058117532905713 4.995958988573022 6.107787038761343 0.2519143737499468 -0.706665646996899 -0.7117757145299548
Ni 7.572830029372006 7.894207729933961 6.3532870271719775 1.0424648324869594 -0.08079537418151246 1.9495469424648295
Ni 1.8058925829447707 2.6447510471715496 12.55342974443606 0.8927227559324045 -1.0718368578911732 1.4718385462010715
Ni 4.9541122919070295 8.83750280731719 9.425732360864123 -0.5895040754815267 0.3737707796378273 0.6546427169623886
Ni 8.186859673609204 6.515703215045285 1.1934366930452607 1.1517205188916941 -1.657345439060062 -1.294774641903112
Ni 3.461415783057801 1.2397771219766995 8.853864164160454 -0.022001443971755658 0.9816392165591546 0.08811093400631922
Ni 0.8415518594517013 4.435285304652137 9.316350746126119 1.4477025723848165 0.8009726825116013 0.6588307869018072
Ni 5.38093153309408 5.141692432422055 3.766945967048195 0.0197373305279273 -2.629288768487691 0.6809361034412789
Ni 2.461133733844196 5.650318457825429 8.328228319283108 0.39935094209977673 0.30840202442403014 0.4063384291612034
P 0.03838822930220576 8.611223478811548 1.4369429432798961 0.15296366881564624 -1.2488616814210816 -0.12751591816650296
P 3.9750095631174904 7.4579838845120525 0.39874953128930024 -0.23128615597663393 -0.13469623796502608 0.5186886953308615
P 8.40871163298412 6.7627636851666635 8.371534056868198 -0.7763253162765662 0.9456028917608876 -0.3379936220382179
P 5.027272907713885 1.3389805279379463 10.623654253771793 -1.8442271007793916 -0.9883150859174334 0.9756264347061714
P 3.631665664962624 3.696161151464379 2.5197105767735493 1.030599191397625 -0.21266417000007246 -0.7177812972940865
P 7.484187842279339 5.713202268198226 3.14586097354529 -0.05524632206781454 -0.4858243405026729 0.7464580964034886
P 5.719904944805126 4.09915602728631 5.873857936911843 -3.015190784171414 -0.4470279364607656 -0.37509669753810243
P 3.3803295128756004 4.145866193682627 12.297064214781908 2.2095757177917945 -1.654976424607253 -1.1057391670655732
