# total energy = -340886.30379107426 ev
CRYSTAL
PRIMVEC
9.17875823965176 0.00000000000000 0.00000000000000
0.00000000000000 9.17875823965176 0.00000000000000
0.00000000000000 0.00000000000000 13.43404048683541
PRIMCOORD
 96 1
Ni 6.5723028558698955 2.1387148816085224 11.140311906314304 0.6750804159914503 0.855933355018197 1.036340978977409
Ni 4.718459909720832 0.5208743272028056 5.720120338255867 -0.10319585336389969 -1.148183709383029 0.17431436657728044
Ni 2.886095257455488 1.698602610911732 4.095071705137807 0.5356965427427678 0.771934129187406 2.191335026414052
Ni 3.864376471310514 4.529744643802335 4.943874604030473 -0.9848808634249039 0.08976338200807767 -0.0806346802339321
Ni 4.2653413388389 3.289061094243127 2.5536635870565014 -3.01190697121382 -2.918073790011742 0.0030495854596011996
Ni 5.662770539958914 4.789934898811656 2.5652168898391676 2.0712668227748456 2.896158992216522 -0.09004054692886428
Ni 5.762506925147162 3.0785095628761816 0.42482596700706937 0.38352143126668786 -0.5401401803364181 -0.41861853208013716
Ni 5.986670554731868 8.16563429047719 12.467313414639277 -0.5086873611437756 0.3591252618105105 0.01790696218740787
Ni 2.0810998172033472 7.053077024816635 0.3256962977272457 -0.24702824930223904 -0.8052401995387034 -0.9176817398705872
Ni 0.8390798404691521 0.23931225190337646 13.519749814941557 0.13636616946828128 -0.13406117548418847 0.6282498287911568
Ni 7.837447795685562 0.316738747726766 6.683582447206933 1.2296825373894695 -0.5195551570962148 0.8583039121329025
Ni 9.004324951604175 2.7217771304869607 1.0827217125541315 0.622793690772592 0.4726366381678054 1.5324193931079222
Ni 7.082329726785615 0.9613464052159386 4.645182212545067 -0.50628492234987 -0.4602824874778267 -0.9276864164917829
Ni 1.2773526880487216 7.911162401745457 2.603503325500609 0.26147373530360773 -1.3089560756098164 0.05923204618843993
Ni 7.838824609396058 4.332116803797901 3.8286343873860673 1.4801519511627734 -0.21611227644967296 -0.9084373384541837
Ni 7.919157100024399 4.095497599512253 12.440781296562234 0.7747191481317109 -0.9750332812068627 1.647908462016878
Ni 8.336625374562583 7.800953053599378 8.601251723347119 -0.6234287532534296 0.09097977091368202 0.7121732070786896
Ni 7.463771375899185 0.8191490851960284 0.913190051001863 -0.737591390041478 -0.18537628081839688 -2.110023117607437
Ni 1.724413278604476 6.954809240919581 9.114136859525825 1.2268088153861 0.4905325446116197 1.370766166938078
Ni 0.3721949682338854 5.5576921175739455 1.3030991044349756 -0.690997858552655 -1.1353878431699413 -0.10610274259804953
Ni 6.298592290223516 2.2754233043025933 6.812778056420736 0.2548755132607997 -0.4208983292532493 0.551988852144888
Ni 4.077837668985639 4.768631001331265 0.5541959726242024 -0.615141830654289 -0.014971533708167764 -0.5437294403495733
Ni 6.359961466679306 6.043624748556005 4.734934862580613 -1.5984224394716084 1.106694589000307 -0.6918568641188407
Ni 5.46800647247231 2.9431595963764656 8.995083777979334 0.9225092431662177 0.2940313575246549 0.7527984367992197
P 0.4797746021929197 5.932561775909419 12.466722302619573 -0.1871014910396197 -1.315926850500695 0.9780851806593089
P 4.407355083697411 6.335885584261787 12.435366747176761 -0.3443768998567424 0.6699286965871817 -0.033998468432631775
P 2.7483404563414418 8.829442074097116 1.2774224466100532 0.032049315126060934 1.5204709624967945 -0.31660564328074503
P 6.627806805918979 8.006777524560292 5.875632364732071 -1.4852483918490744 -0.2416690418728548 -0.9693578280886402
P 5.267441429885486 1.173926442116347 12.70071638209721 -0.18101131898148182 -0.11247085090792244 0.09355138829560017
P 4.255446637639477 6.030545018306304 8.257609117841476 -0.5437212128194572 1.305241602872707 1.3630099200314267
P 5.0427637898488635 1.493558334386766 3.749951319582899 -0.4853931665025253 -1.028247403335997 -0.4923477434434876
P 0.6829087791635259 5.875598403327211 3.52658348832286 -0.43489207242918004 0.4040465478032331 0.25682903744274477
Ni 0.7935651328276127 0.3062520166318301 4.499892568931385 -0.4449021483670144 0.11325272337926948 0.37934930216686924
Ni 2.6123112617445483 6.497110469760735 4.827549449382375 -1.3636313556655095 1.7041729409365618 0.13142785162639944
Ni 6.20336267524762 5.989598578556186 9.12732857062398 2.5737724805879414 -1.4178227541062485 0.18495693389279114
Ni 8.841108275604045 2.2618662786332537 10.399384197390525 0.9207344106539821 0.7864472352019166 -0.36728825723727715
Ni 2.4937676012709398 5.556581487847479 7.14776876456963 0.8488296540938799 0.14682130336333424 -0.11727932804015931
Ni 0.7878798100790759 0.3093296542126896 9.088544646275146 0.41167758198592963 -0.14675265490892792 0.7090513736202563
Ni 1.8928159529141386 1.3917016560843554 11.721871592496688 -0.42229649515235657 0.5731559731408065 -1.8402853425228243
Ni 4.207258157772157 7.07039734129466 1.4576739797122347 1.21491566349294 0.7610444788580958 -0.05588267010023279
Ni 5.671169103592933 8.271924308927394 8.204262175938835 0.5099649423046185 0.11908269979748522 -0.6431665980019892
Ni 5.7769451115912185 3.3761124357786825 4.6888694294548765 -0.7444557212614792 -1.2724474391608214 -0.8240681308784841
Ni 0.823256579432338 7.82201830336995 6.708462388831382 0.583708294735356 0.9855868883529931 -0.25989533507289436
Ni 5.338466659830882 4.582146173623769 7.113848664122072 -0.2882782570909616 -0.288077196823749 -0.30306981357783935
Ni 1.049021902300252 7.630430086175553 11.48509726719966 0.04617341323226887 2.1181578308994293 -0.9030349364916901
Ni 4.882539388979541 0.44629783576014037 10.299408246616649 -0.12526543156942943 -0.7231595308868642 0.08046524453560336
Ni 8.636633082079415 7.345934479796964 4.706199842566779 -0.6747945093199152 0.43470849566346426 -0.42906183890064814
Ni 7.48656223218691 6.245034236885265 6.827004213553376 0.6346703876055197 0.26595465389309686 1.3306150486404889
Ni 2.5866749904551334 5.553864575458769 2.427409769804122 0.10928499698077307 -1.0644765608713604 0.26986350202919973
Ni 2.435087800929648 5.553763609120001 11.377423092032503 1.601782357082777 0.40774405125947843 0.23986052790920626
Ni 1.15689984589656 3.646445218455316 3.773837201708371 -0.015019099116651552 -0.24999967322573718 -0.24968754130195708
Ni 1.6548382924341352 1.5294289209241922 2.197688402208053 -0.6105084456473356 -0.39399019200849567 -0.1372380305502733
Ni 1.3543532894976644 3.6415896554363036 7.896690253896542 -1.5520726485624754 0.33714232978151615 0.48589144629518255
Ni 3.8617880615347837 2.6367175794525872 6.681608096346084 -0.24124763806472005 0.5204000215950134 -0.08351200178172714
Ni 4.500069718962135 6.988550355584775 6.462995779642093 0.26477426043175045 0.7429128022543915 -2.030173138058329
Ni 8.497455573464524 7.6022971926911085 0.1978104972900261 -0.4512198630549262 -0.13822096328883293 0.33501808434966174
P 0.3446164717368662 6.065727197988483 7.909814960060787 -1.2433374091687426 -2.1269399479674336 0.018833844877051434
P 8.74796223871003 1.761669857610467 7.939477034639689 0.6875260979539708 1.5455536164970352 0.7160841120973216
P 2.0177296714883033 3.4024738289556247 10.560377778186112 0.2755433260227964 -0.6071104757093803 -0.14230336088832266
P 4.362966609671056 6.4883172195297085 3.6360842363459387 0.8221405748384679 -0.7779847062568602 -0.14344570202288198
P 7.13209695304097 4.4242256410300085 10.528257632196071 0.16743023786293748 -0.4700459946224937 -2.2352967767069827
P 6.848803763969546 8.086137066833217 10.336983328527669 -1.027068038315915 -0.5679356052821315 -1.5365529556603215
P 2.5601850946652123 8.852196215352562 5.655422026248099 0.5109789853914296 -0.27769482514816046 -0.1446788030990347
P 7.540560865912519 4.245671260294963 1.4185274944196375 -1.5269599126552476 1.5745062949756434 -0.023207291354398744
Ni 3.2781659084140777 1.6968402893622987 0.26098329970656575 -0.04036349141871113 0.2683378094132927 -0.16417573548138178
Ni 1.7140688182596244 1.3327740292751749 6.989005621985045 -1.3380082557807667 0.06349596367111646 -1.6910412886506103
Ni 7.100723957957827 0.8913179883969415 9.15305479374248 0.1913121866868576 -0.15973466899089264 -0.3814095271300077
Ni 2.809792241619862 2.1152447972236197 8.858876515475883 0.7748178784931042 -1.1564189528086277 2.077535429392377
Ni 6.64635707597838 2.317067329666028 2.547268746309156 0.8724408657549168 0.3894118286091939 0.19603118942908174
Ni 4.623395512390196 7.16966560982134 10.146864630500275 -2.176783353852122 0.4870736395287418 1.9387598791516547
Ni 7.712873691159987 6.3684059241036755 11.616858339294017 -0.4283843532176493 0.5760466644250403 -1.147356328385727
Ni 8.014175603564684 4.116305844056866 8.254358001733094 -0.2518539528256566 -0.3408606591733678 0.18016748292394777
Ni 3.431139090408128 8.66232442591725 12.304224323376317 0.5146898585841136 -0.42462231507205583 0.5116618703910671
Ni 0.3813691369248162 4.860345151966364 10.36324742686907 -0.9212653434567876 -0.002665205536988958 -0.5242487059171422
Ni 8.465036199961405 2.6962510042943855 5.836082931960202 1.4498203900587676 0.1022399172085336 -0.30424609327412766
Ni 4.281927354671328 2.488021698719141 11.239805054413699 -2.4259697871479444 0.5480931166349077 0.03488884145738508
Ni 1.3251189450448235 3.784337700940412 12.670878993239171 -0.2633670956715787 -0.34101184003925145 0.6191244694511208
Ni 3.1096255527333656 8.736828405171162 7.963967796921971 0.4102339075608677 -0.17344173416434 0.08670145525330229
Ni 5.770841237474691 8.301837881477413 3.3772506017793584 0.40126847083746375 0.07649289015141665 1.4532209310998843
Ni 3.35271578145834 8.572354239315445 3.4358230106512315 0.4574285629687993 0.24579437689513797 0.7490906489303293
Ni 3.6548988546377545 4.331501827007214 9.40655556987041 -0.34444606253178095 0.6785514052591862 0.21469122773243027
Ni 5.383286535486525 4.411724172538714 11.829397989658917 0.09354110388295503 1.141525580636563 -0.27100455761217845
Ni 8.483044923294678 8.767724104834667 2.5571827229005266 -1.3044774710131728 1.0797031480131276 0.7425029684104826
Ni 4.903898359008352 0.43237916702284424 1.5229367853413056 0.2090754242075496 0.3466471839481578 -0.2998641621563481
Ni 6.335646936551967 6.071161022765903 0.3340948613612644 -0.0335706368665938 -1.174920354046925 -0.3212295152060017
Ni 8.120548230837517 0.07575412610304179 11.579028087908654 1.0429823955533264 -0.04002796245616332 0.6126992826510674
Ni 0.5954783549196806 5.503005076993089 5.769692056964332 -0.6868442413955977 -2.0079667771646195 -0.5092182939465811
Ni 7.429479535749792 6.601215943790288 2.560850554625285 1.1262665975949635 -1.3631531304775104 0.07956458709820491
P 8.660534568093606 1.8586526153777259 3.4368840750841194 1.1653579071694702 0.3447473958222837 -0.37373786951736276
P 2.374471282635594 3.4872947322801786 1.2425147117941662 -0.6114245297037018 0.26472798057484725 0.7540523638109787
P 4.728905336404453 1.1339345932055056 8.185615528919698 0.7349575519630569 -0.03507833176037184 -1.1097012370371147
P 8.803649763920513 1.895900015625647 12.630335500968327 0.12828390668077908 -0.37476991032630297 -1.5648597730248146
P 6.4775138212813586 7.994487167504608 1.3202422708822508 0.7262656806160137 0.6787802334405406 -0.4245433822050043
P 1.9405546736360306 3.4045206920052267 5.8288418097188055 0.5274366167268207 0.13210765130224345 -0.6077414244251598
P 7.0855606496262435 4.3791854751806865 5.899505396596244 1.6292481666032135 -0.3548181497947244 1.5853141842244245
P 2.660729210563618 8.808294215503915 10.25118029808963 -0.3992038749989512 0.06483679396972705 -0.17505947227342109
