# total energy = -340858.7547151594 ev
CRYSTAL
PRIMVEC
9.37577478434081 0.00000000000000 0.00000000000000
0.00000000000000 9.37577478434081 0.00000000000000
0.00000000000000 0.00000000000000 13.72239411472369
PRIMCOORD
 96 1
Ni 2.0344962913627183 5.899847041564833 3.8472658178469477 -0.3497137386886235 -0.45203001766104733 0.21709778029139384
Ni 8.165343676836834 8.505984333339473 11.082164148904237 0.12380401653255454 0.052215762771606854 -0.4126435454436248
Ni 2.6475969687275924 0.29274638518224894 6.291923199597074 0.7846957997284486 0.2766712689796525 -0.2524622758336168
Ni 1.7492570892053967 0.007193094563162642 12.454074422567915 -0.3752766747593924 0.6282827389116211 0.5077471087176932
Ni 1.9310721175798102 7.528831689351759 8.311338556907593 0.41501358833769814 0.19101933803678714 -1.6992014558638993
Ni 1.056818603976234 1.915742725490693 7.244504750099803 0.7284683446942873 -0.051099903999608766 -0.7893731505994599
Ni 7.298393891941161 7.097424155286584 2.3205943145080297 -0.3340953154250762 1.064062356152077 0.018402670876903792
Ni 0.0381715926681492 5.184587920039088 10.797795018664878 1.956593822009282 0.15070212647497916 -1.0544459161082356
Ni -0.28890981806122945 0.28582331293845425 2.984428247856649 0.06409451648706381 0.5578216567765812 -1.8123186821065693
Ni 0.4888069660583168 2.3005057790400523 12.048523400737214 -2.1122905734853754 -1.9805475046114018 -0.022759919404334996
Ni 6.036358325245292 7.226359812784776 6.985247695561663 2.541529818504152 1.5868208506769381 1.6315392766302355
Ni 6.849359900917245 5.6196332547957475 0.41400609570590824 -0.4691540789358436 -0.7934074685698336 -0.03239898515599581
Ni 2.851201298151002 3.875045301529422 11.146728548135606 0.11042862366691306 0.6512689153941494 -1.5573390391677373
Ni 0.4350172074317261 0.4787505098168566 5.068956487234754 0.7368781660245374 1.2939480322367587 -0.22077908579772296
Ni 1.314305512198517 4.166350630097544 1.5583288075523154 0.9461662204635254 0.124536780933521 0.8675969073990542
Ni 2.6260045589531353 5.467867585225997 12.949343172741106 -0.31433175964490384 0.6874124551942419 -0.2258878677791981
Ni 4.522105035864806 1.9779322409201217 9.5167960094984 0.6616955100441121 -1.0823177028178392 -3.37019276784217
Ni 6.643861664948268 6.632057564250899 4.925900912619614 0.85338821999884 -0.42049338050534674 -2.037181708165679
Ni 2.7355886168966244 2.5834291647777943 13.030085471697106 0.8877777532223033 -1.4628083176780033 1.965533290590757
Ni 4.179579848591578 1.7646052328444704 11.528595424794245 -1.4137005044077589 -1.4841939824426311 2.4390721288578576
Ni 8.577174592747834 4.454730716872514 12.918825025187541 -0.001487897399436147 1.019016114545716 0.14176651454824615
Ni 0.33781011003676525 3.872035677761467 8.080582920725238 0.13153789484170247 1.891896381830897 -0.553034519800583
Ni 0.34408437865207864 9.106521472233755 7.106691171274893 -1.0526042349138065 -1.5624398507294124 0.6807756666040147
Ni 7.7546941085730685 2.5972396813204672 4.214064886538356 1.3952947482070615 1.5241926343227556 -0.4844675693644625
P 1.9812418894873745 5.191741636347343 9.38389439918449 -0.4208119401870301 -0.35258617514041213 -0.6363686012435492
P 9.533100482185233 8.982311205324503 9.126421554624674 -0.4902497232638783 -2.051098575357087 3.1856143003347204
P 5.9800286691771465 2.6217760844380336 11.879723823187334 0.7350444552499084 2.4722319034392775 -0.7288637803604932
P 6.552429107362291 2.6268952575760505 2.1180513228121356 0.04395815074850494 -0.40471606306643204 0.9463032602620218
P 5.11025677601308 6.352068796081288 12.901672044865194 0.11008306740203623 1.2987629371268985 1.2613305033120537
P 3.377951087968004 0.5483206353090092 0.20732088662471013 -1.438789843276219 -0.40911033547938574 -0.6014306517157835
P 1.131140372227264 3.809321118933267 13.18713907835448 0.6914048641830867 2.5161604865014278 1.1005758776970787
P 2.798434436574517 7.754215944049188 11.526920911383165 -0.15244019221200844 -2.370339856488466 3.0781799834094405
Ni 5.975275151263274 4.705635831060204 2.6254917040618357 -0.6236928055480936 0.8882809181109669 -1.4308214803587616
Ni 4.768528529612985 8.378126889963758 11.639431148697303 1.0556893015970334 -0.6557246371726577 1.3508941106044994
Ni 4.747376781262497 7.413800306146022 3.167073969894118 0.23285324335343768 0.6061249718676593 1.467306719768989
Ni 1.5027492134824143 7.6573735643008725 5.835695176432497 1.025582454909324 -1.1676194495101375 -1.5932753480530302
Ni 4.6225477132046935 4.07981222705011 6.649295864125548 0.39900641427616446 -0.5405852382936367 -0.4474256861198165
Ni 3.74745975562807 6.342496129828695 9.797459833466428 -1.2738008678649222 1.2141451038755025 1.4887304368604037
Ni 8.436406707227338 5.036225656786369 2.7491581760223616 0.5331043565355593 1.094934106030269 0.6219071744025806
Ni 5.238723644762369 4.952143706783186 11.330594996075218 -0.11461335117222196 -0.7386170030925151 0.27201731514740896
Ni 2.0657738766895046 7.343341357185949 0.7384350996939955 -0.5865550201555318 0.8133317182975863 0.5964733077105083
Ni 7.499879296219531 6.109667509798692 11.455935043869326 -0.9959471485413944 1.3584187011163185 1.205050340663086
Ni 2.8759439683180856 3.2650105025823715 8.354619009361283 -2.5622755356919353 -0.5910822186019239 -1.2068894507543537
Ni 3.139993919025006 2.4750827091314083 3.062152484847215 -1.9114200536861208 1.4991644877095343 -0.08222516464950355
Ni 6.210653982087306 0.6738285094752245 12.539263651596007 0.9476641451652904 -1.0131503997935585 1.297552204648249
Ni 0.6351018709283744 6.948724364134656 12.596608704094274 -0.7141629838152088 -0.02053488672855818 -0.31337170972447964
Ni 7.3563268055305535 3.9771662425903807 10.58051518385848 0.015614052388173108 0.1684746199670518 1.5796091634198473
Ni 4.189733812892809 8.771318765218387 8.202643322432024 1.3879174819063838 0.48016122867962463 -0.028070018763338755
Ni 0.3198686270387621 6.089228320346536 7.093393509623519 0.506402678874657 -0.5707861873570492 -1.9377970010177528
Ni 6.794558496170523 2.8557673005653146 8.737968196043953 -0.8208385681975928 -1.6804750830989896 -1.9890912804163552
Ni 2.5301747629024507 0.15921284763481983 2.3501655087888103 -1.098128958818483 -0.1468012487586762 -1.0898800885461295
Ni 2.1843680543869035 4.72963781500402 6.098725980399304 -0.044718683063613304 0.6851802234296135 0.2297823177375978
Ni 7.362467938141179 0.398642013249372 4.71410871890787 -1.0677899415153094 -1.3462614969284945 0.005164832030391105
Ni 6.802527904901868 3.3276031763358564 0.00047910210137853363 -1.8176002422204827 -1.4261819247042213 -0.2249411875952126
Ni 4.838781211523542 1.7242237700139942 1.2033113376983287 0.36235585293266626 1.0092304959138618 -0.952164089918173
Ni 1.71056326587097 2.6488251952497173 5.203806383589102 0.8182718359116811 -0.5888939527013536 -1.7324625319098745
P 4.070239560797518 1.997987023598178 5.957934655441363 -2.0189682704814453 1.485629686447893 0.19868122545741912
P 6.210710236737175 9.008929030487197 2.631310310013216 -2.033703262698775 -1.9199972538321708 3.065157345897528
P 9.3744061149067 3.2012552327316075 10.024016997613613 -0.8648723093790395 -1.5580136966372589 0.9721425899226291
P 9.349429050365165 5.324558864686449 4.760380981157057 1.090043096486555 0.45630036290162707 0.6536921801236613
P 3.6125986083437485 4.365895248955456 2.0869021856025483 -0.31643132248640987 0.8729095778612191 0.6000047179025345
P 6.317237792037819 4.4552182571713725 4.635205009425065 -0.1750011082316599 -0.3199120819461587 2.395863197570551
P 4.52584597008105 7.435289582395719 5.43007477386696 -0.49374488090133034 0.2946882743823634 0.17610154038469025
P 6.598023501080565 4.923556968875101 8.620573179966248 -1.6735891546124337 2.4991534104204702 2.8979279111914864
Ni 4.390431652073023 0.7319958174390685 3.2812437193793733 2.7531771172039354 -2.921922731444187 1.4175581875909522
Ni 3.9973054072432395 6.506412803770004 1.2969059489942456 0.9881505353151111 -2.0524612600325685 -0.8590747288606561
Ni 3.032725677501096 9.252483537092093 10.189481612003798 0.24542670914307407 0.6784004815036186 -0.302079424640112
Ni 1.2693674227287068 7.21766846938012 10.376627706030733 -2.1765010467250128 -0.07633168198320403 -0.6293826568440193
Ni 4.0525849765138435 4.499650054792368 4.265976677436843 -0.13478365547250984 0.264665502768028 -0.17412024828860337
Ni 7.5752886543680145 1.5431119247629348 10.751482440583285 0.17263029400663818 -0.32592743490230325 0.06458945384561134
Ni 7.285089667247303 7.779793058189317 13.597506435791407 0.018419383047452147 1.2529847024505196 -1.412619612638754
Ni 1.710038222472199 1.8389082495455444 10.198592990127471 0.22845562850637427 -0.09342360446848426 -1.0444358401704013
Ni 9.398089322501264 8.546862712243787 0.831641553905821 -0.2029986218858504 0.4282072042098367 0.18103317335835276
Ni 5.96811205918004 7.099674341281317 9.939061225382474 0.7702629121325701 -0.7000761667048395 -1.3964928822802207
Ni 4.459821762685597 4.294536225597492 13.865381702689373 0.986471090730159 -0.5570199868108923 -0.5629620633269401
Ni 5.229863537408108 0.3108706957923241 6.105175576006707 0.3617675845293641 -1.6879405382380996 -0.5613952330604525
Ni 7.3072633750703995 0.5534426211795198 1.3575953404271857 1.8401475313933793 2.004119378394071 -3.1736879812107794
Ni 4.087284719707619 6.580059516222613 7.514355492785645 -2.2892223230808444 -2.053111234911742 -1.0271485138448633
Ni 4.538428260101598 4.344274711856065 9.045528305691526 2.6209553089213316 1.1491141916170984 0.7895662404468724
Ni 8.401453818109156 6.777353949085794 8.70861545732016 -1.2951991310350404 0.687856484710196 1.4739316812846746
Ni 1.0181341564167852 1.3890585660985377 0.9712309045115748 -0.10714018272362838 0.13153866617265086 -3.0006303698587353
Ni 8.474556735613037 3.1703808057288776 1.5279887997233343 1.8028930179172948 -1.2842341473831045 0.09660328774804654
Ni 8.721430266560164 1.483960160426395 8.675064246561197 0.33736550153591577 0.9919344278375755 0.6928523952628907
Ni 5.444053116781741 2.3518100197199607 4.441870903912616 0.30006676508545743 1.0516580689504533 -0.2542103688729751
Ni 7.0693343334523355 0.3878054925297377 7.552408013111573 -0.32861578036774375 -0.41743222508151984 -0.33265061255874967
Ni 9.029902639113102 7.625908463474525 4.080546350230892 0.23176052450989115 -1.3362143971051372 0.9255022643562705
Ni 7.493841297133664 4.7264969303863715 6.9083747789391055 1.4184812136258538 -0.21254204259991138 -3.2057676353541433
Ni 5.040257240026933 8.602217287714215 0.6523607975079754 0.13935944776865034 -0.28501964094434784 0.07218526391499827
P 8.375042259995977 2.6004836994628735 6.394251345285048 0.061053672778210985 -0.5973353986004875 0.9701394434496713
P 8.569308317541246 0.4655812962826827 12.909369556122174 -0.055798595026858744 -0.38831191067679577 -0.5605315995085767
P 7.992379380041703 8.14767971677818 6.195675243982368 -0.4443498754079702 -0.3477257617243173 -0.3300417141809929
P 2.650137803746645 0.9514067658979785 8.385302170554462 0.5147903887177199 0.8858270572538358 -0.6004112093123337
P 0.8834942774219458 2.1205284025613373 2.8270605527375103 0.1094559753409986 1.2287793088489096 2.615835214085947
P 1.6262750488182691 7.738361508561299 2.890622681623726 -0.7449735414381622 0.030766334648579273 0.20772919459230033
P 5.759810466492626 -0.1544912073558721 9.886807218697287 0.7462272113396051 1.228784193944916 -0.5229893795887445
P 9.005441242195362 6.421946446992719 0.6927760131283728 -1.0272973807179018 -0.9289300590908971 0.8470759046275669
