# total energy = -381166.56850213185 ev
CRYSTAL
PRIMVEC
9.18640768049940 0.00000000000000 0.00000000000000

0.00000000000000 9.18640768049940 0.00000000000000

0.00000000000000 0.00000000000000 13.44523621673469

PRIMCOORD
 96 1
Ni 6.329030810624597 6.077396726641543 1.8689149665890203 -0.2620956851583228 2.7655441234097213 2.4994925389274436
Ni 4.141315339015646 1.2210573321782834 8.559089191962778 -0.9224218256587339 -0.41291788215093406 -0.7277381513964822
Ni 0.6028497477625706 5.891417899603103 4.828762716721264 0.27749479332221244 -0.0681889982714116 0.3499456521937715
Ni 0.19970975086033876 0.4866122918829569 11.85165301773475 0.761132924806844 -1.3352229797261455 -1.4223152426599635
Ni 0.4747857104095419 2.1667888345136888 10.518651956708602 -0.9769806347412205 1.4758486958017294 1.384654751994712
Ni 0.3235002712789006 8.523094090061829 8.87380266412771 2.23910972269517 -0.30932196513513827 1.1070283181906417
Ni 3.187086409413728 7.291224355837398 9.95981428898264 0.04757055069011162 -0.021939480385568665 1.0481300011925367
Ni 2.262722491750657 2.598788850335356 2.4461594397354274 0.6919496809429632 0.7906062516756126 0.8840959334953418
Ni 4.785420325817335 8.433195902786048 7.774802377205621 0.43758273188746577 -1.590106206296429 0.00874355052058494
Ni 8.266701446809527 0.32813573268288165 2.5474689828495447 0.001496124929552262 -1.4125478788605543 -1.0627516077604535
Ni 2.3458319236210823 4.668541658669394 6.797319893398595 -0.2109595286041399 -0.6101729166847879 -0.2102229075484315
Ni 5.243371943831325 5.3792205432012645 0.16601492548645425 -0.8337267370141707 -0.8919668516029864 -1.3394149063203062
Ni 7.7931237490330085 6.858939561372205 13.498748387036358 0.305918338770228 -0.8221536874645906 -0.12125939573382989
Ni 5.842748310783659 3.2546799984158934 12.71350618586221 -0.13619596243900417 0.07972168150135948 -2.277552342942084
Ni 4.8955653560070544 4.580701226753288 5.877007181599883 -1.641594089763076 0.12632549740282759 1.8115128983758222
Ni 1.6611689461365242 5.373828121789976 2.5301379057890006 1.2758433522162478 0.4607301165382065 0.1636329756040343
Ni 3.2860332084273627 1.620757937979345 0.5788980265604307 0.12550145883963548 -0.5278451650191489 -0.4013198929006895
Ni 6.697176105441364 7.853855091366974 11.825448789326396 -0.933692770586863 0.8977364070969119 -0.3164621757243453
Ni 6.506365227870832 3.009430467892544 5.2053236797746285 0.4318337452188305 -0.7329392359814474 0.1040646291220982
Ni 6.13861494859186 1.2115494000476446 2.541781677746087 0.868402434019485 4.110186596677553 -0.14519353795192413
Ni 7.330542181459751 8.203177436487433 8.58002409682511 -2.430709615825775 0.04431244876413014 1.9775719669228458
Ni 1.1758050870811556 0.5830649811637715 3.367373338144782 0.43338643441793107 0.756788017574587 1.8779337490032173
Ni 4.371342991722118 7.162899424501267 12.140349664211584 1.5076889802407776 1.2679264113620163 -3.764662984810878
Ni 7.129203680486597 1.2079299553525027 11.162880960016341 0.7492809105642645 1.0545577590957516 0.34174743265369534
P 8.413555362790584 7.411263147287697 10.706025280459535 1.2903042648365843 0.5927632058487727 -0.5306929188805892
Ni 0.39676830441352545 3.8648412081908075 1.3244145256034345 0.26127756013240166 -1.8752590303845318 0.5832470388282213
P 0.22455530954683728 5.449634359415127 7.184394700242796 -1.0547176817123836 -1.6943495270882367 -0.3835998499131071
Ni 4.916446061063037 2.9414602361682953 1.3122508029617157 0.7557793738044145 1.0382762483269086 0.9398382213629685
P 0.7529740249402527 7.592492601464744 3.2711457158564317 -3.742508817311341 -0.4390647157496309 -3.0955464997123463
P 6.4994386763476415 5.342631080712053 11.837818287504081 0.05101788580876375 0.14865167170385366 0.1298257972466022
P 6.3008009792840625 8.427775922151191 2.039911681055615 1.4380455089110267 -2.2343668086935455 0.175839030751923
Ni 6.17290780911715 1.0728805734660076 0.05217512205717558 1.4794860354440003 0.30426383388594047 1.111521320964989
Ni 3.91888484560583 4.924144270846106 9.26478996207765 -0.1173628888929011 0.0655711010325903 -1.1640978095101242
Ni 2.3545314518604203 0.2361274275226497 10.955057773737858 0.5643016080739701 -0.1254603211890549 -0.9691382558786663
Ni 5.155816290558746 3.2749911461848233 7.843211719225371 -0.7434686747578615 0.36296469016125876 -0.23003402873708773
Ni 0.48751347849360005 7.943541991262072 0.967320479437062 2.608505770304069 -0.23748585702944264 1.8175696460928634
Ni 1.2443816217238797 7.234424796065669 6.728157265934677 0.2632670797586047 1.265328568727853 -0.5628175673292759
Ni 0.49373910709740104 2.9458421527154592 6.832546092962023 -0.030997219712462748 0.6371178207047479 -0.5576208536196848
Ni 2.9291596360495262 2.183535656034611 6.667949548848488 0.6621968751605628 -0.7297356414424852 -1.2482718703558824
Ni 7.820765650270779 7.030155830986551 4.070370548427726 0.8407630750356616 -0.9979901471133521 -1.7580624918661658
Ni 4.73867069623973 3.1786624734100606 3.672969300512943 -0.7813554225013059 0.17112182778191176 -0.2542345372426912
Ni 3.0826369520945356 9.005573417050512 6.0075203152872385 1.478991869416401 0.6575532057409643 1.0062665281895313
Ni 1.5589334131105528 7.3734886381851 12.00432376717003 -0.8491739248071762 0.058896003005259864 -0.4735131272354878
Ni 4.479953891799938 7.224117646451584 5.197969041645364 1.315892911938966 -0.0395502514887964 0.346579563935016
Ni 5.133033999076635 1.2755786628018022 5.624210098382299 -2.917521774163014 0.3313072111569778 -2.155134151013463
Ni 7.719678418226769 4.787964960793361 5.732860500013898 0.8888324197390629 2.21610837670399 -0.3049400340173587
Ni 1.0335811206593666 1.295393744546525 0.8363195474925693 -1.0990226742773461 -0.02753497219547516 0.045587715932127945
Ni 8.686988792615189 5.946637397223654 2.064328234495253 -0.448496293476176 0.781343338316448 1.4362873885693395
Ni 5.886328629651052 5.770028706198019 8.023068724068779 0.5797637082653111 -0.23493840801724059 -2.0148452494520073
Ni 1.752968719838432 5.965322550802128 8.723296232383232 -0.22446913305480054 1.5303293433481127 0.692601455594349
Ni 8.212933401630176 6.09899397151027 8.965377370837155 0.4182812033453764 -1.3870430497212305 0.06309538579858812
Ni 3.879291427747807 7.135193218408507 2.714566067181399 0.9801502907184539 -2.107885245328828 -0.4995743430989138
Ni 2.4599914140437393 2.4015842328972634 11.761462702689158 -1.3677340649799734 0.6787995167142503 1.6680147458484498
Ni 6.863110190538689 8.939008705728183 4.759721349841042 -0.26698078116476603 1.3428025918456163 0.5432013357602452
Ni 2.7303473972366885 8.98272682071341 2.0442678756607835 0.18092467280494648 -0.12914496912949372 -0.9647722656004869
Ni 6.390065304417799 0.6960789265268237 7.180078925832193 0.3648382530348878 -0.4659877653927201 2.967578581610089
P 2.8033150348344327 3.1353485603704834 8.452495627050068 1.3466389348725711 2.997120299822948 1.4403692719481966
Ni 7.395297170434508 4.485153398646259 0.7271547070210511 -0.3746395553960257 -0.6047067513638941 -0.8737084196134308
P 7.926666560031171 2.398653768791298 1.589078610488999 -0.4726862604588181 -0.7310034524113153 0.7555914261633245
Ni 8.559848907892443 1.7721499394411122 4.301561200368728 -0.4605663372668326 0.34625817603985526 0.40060178378774236
P 6.594600675324732 6.876761192612244 5.741465408252323 -0.8093621921268771 -0.4467245462877339 1.496362756594681
P 3.3971152522183634 1.4011844174126482 4.076851559169915 -0.9945428119947 0.4801252332353667 0.20442918368478985
P 7.8778224294624675 1.6647975772395216 6.288794344216675 2.5253439527729085 0.9082409061726616 -0.39449387111779155
Ni 8.34457462620221 2.737053474971342 12.920791967281135 0.040733216053304044 -1.6741439986746394 -1.1235677106065618
Ni 5.397538240465511 0.14328867109226337 10.231528941897448 -0.8659182341450505 -0.30481276441087507 -0.5944953580485309
Ni 3.305003140649362 6.536992711661701 0.32585842217545613 -3.012598855074521 -0.8006605505878212 2.9506434964176473
Ni 1.051430311122972 0.6571460113936249 6.395791192434251 -1.4432671623212823 0.30559515110285435 -0.03386322840634813
Ni 4.8088089202179205 9.042071015461167 3.5447555247118667 -1.776170514320786 -0.8996390234362636 1.6616546079583772
Ni 8.394962073290667 1.471276709351561 8.683189294326077 -1.2913429905137437 -0.14646263447233487 -0.6976536733062759
Ni 3.063069903361916 5.51906522998843 4.295403551183059 1.3813832803322919 -0.6234562640572553 1.0592363955183435
Ni 1.5698101200116896 1.59964757272697 8.731619117900486 0.23974508537726452 -2.5974819083897396 -0.5226139985271967
Ni 3.0874965618501955 3.961454659609097 0.13321761216007066 -1.0886125346876157 0.25953383796841756 0.7656529241643846
Ni 1.0315417381154035 5.853836305065477 13.771149264617984 0.2781627659235145 -0.7166605534260819 -1.9522082913470762
Ni 0.43800517063693123 3.7959707084967014 3.9629024374871533 -0.5852969793787146 -0.39437225793826275 -0.7942099098664709
Ni 7.491194082040053 3.5724562189599136 7.706016392463787 0.06444830028205674 0.05665117283514114 0.5635472464064488
Ni 0.7409894372517198 4.089081423948194 9.159163725912144 -0.8107071361905458 -1.5672128466380235 -0.8474543710129082
Ni 4.406738221190091 0.77765606556692 12.242600814130912 -0.06982319144072492 -0.03526550807051346 -1.9705713672352967
Ni 1.834966596358319 5.10280153082356 11.073725034495302 -3.5294872639718506 1.218486925783966 -0.9475625865904198
Ni 4.060116679979204 2.6269543768209007 10.32483896105083 1.4729975995061793 0.71210610128618 -0.09696787017631688
Ni 2.5003105581223615 3.404096922188687 4.826557978835899 -0.03996085666365376 -0.905176408314725 -0.570369925755237
Ni 7.213093957024757 4.047053608008414 3.1777814968967 1.2118131133082162 -1.1493504759976205 -1.009532600535313
Ni 2.2185358699647892 7.696050977221934 4.47941464965881 2.1419068536899113 0.09899724190151983 1.0080711854984383
Ni 3.7270910223947396 4.785016123871684 11.529182542776473 5.03616271534645 -0.3517343686630781 1.3327030415177694
Ni 5.47552165675246 7.130140694087879 9.722210605717583 0.2750602157387908 -1.3230315798662764 1.3970438696876841
Ni 6.417110089144951 4.101326905619829 9.962691471923044 -0.376421586997113 0.26412222867004836 0.22202761349284345
Ni 8.388246809148159 8.432810073656109 6.724608556580025 -0.5405299595756691 -0.17974813599834205 -2.131205408112007
Ni 4.715153492129164 8.478328724581052 0.6710450464792836 0.6541984303361185 -0.12723335392907764 0.2994083055658521
Ni 8.294756736400803 0.07575295645958893 0.10851903599926319 -3.802642292268129 0.7966095204468989 0.35606410638668357
P 3.797045518215817 4.89517034046926 2.044563677993737 0.47902788640612987 -0.13813585977419435 0.6768488207457828
Ni 5.698484961817907 5.397997560858295 4.079970344636921 0.25535656666227635 1.6289416911063883 -0.9152985843503914
P 6.23624809128213 1.9095969737779426 9.118868466493947 0.631759384606312 0.11128274413709222 1.005950025390377
Ni 3.5249900495695647 6.579470661586411 7.250988808070263 1.1961473817465011 -0.7678933834591292 -0.19922090001097303
P 2.7838122909568033 8.771439440032546 13.092715590300369 -0.9615103070197635 0.217905878014986 0.2928625340275343
P 0.9067985872022067 3.9522039468984174 12.649843460781494 0.8014226255648262 -0.4470019683188366 -0.5064237619205794
P 2.5470877469235336 8.236919112541381 8.199106939166576 -0.5237352566158335 1.6633916452541417 -0.13081592907401343
Ni 8.601490894702286 4.635709436993158 11.133960310805058 -0.7871123795897412 0.3141764650139621 0.29334872963533354
