# total energy = -340869.14258108474 ev
CRYSTAL
PRIMVEC
9.32499976442761 0.00000000000000 0.00000000000000

0.00000000000000 9.32499976442761 0.00000000000000

0.00000000000000 0.00000000000000 13.64807974065635

PRIMCOORD
 96 1
Ni 1.1510873121293952 6.516337902139141 8.51851702225226 1.4417237290935623 -0.6274674420991774 -0.012144605782333924
Ni 2.073572251814853 3.9055430813311136 9.094575418311202 -1.3375649975957609 -0.29046420899868686 -0.3364347621915303
Ni 5.69101946136724 2.293548999355236 7.147540617581502 1.1736065203315076 1.3287283731407376 -1.1396245069591082
Ni 7.605581814960025 2.391993023254508 5.323460602977011 -0.633005084087955 -1.2826966276926555 2.3944722307602953
Ni 5.624065962115865 6.372387878748684 10.481261650306305 0.4548358625409586 1.1098914986710497 -0.5345578011526342
Ni 4.908278970119264 6.190382530783733 0.8991780349460581 0.5657959332313095 -1.0480760080261498 0.10544531151970873
Ni 3.6791507338624645 2.1396119010764463 8.890331810594903 -1.368085277671805 -0.04907258915693484 -0.6970731182124575
Ni 5.370817614947501 1.7217586557485716 10.189288443570932 1.4077095769316466 0.34115145094090926 0.9683692389231259
Ni 1.7924981049576156 8.171767833629353 6.28387591223836 0.2636326906281395 -1.3539845766043648 -0.06391736747925121
Ni 5.1785267920975535 3.752034933047528 2.8719656878878097 0.3015068399660936 -0.4358837469184881 -0.27896289322730666
Ni 2.2000099254011203 0.1697634881018306 8.220266225587078 -0.6888365892352781 0.7395827094398939 0.19837037908521965
Ni 6.651140100631883 7.314315443216749 7.407781782171678 -1.7601677111346266 2.270726321159186 0.976493410692157
Ni 4.6250787232857995 4.149997953597801 10.94552821761522 0.567014636129759 -0.38565364711834227 0.8475253334601597
Ni 6.128128831479808 4.793450921403187 7.043678768742808 -0.37784546392783314 -0.0004401728612121451 -0.11417343542132595
Ni 7.551916440560071 9.134508797864697 9.590710172763792 0.26843911087784733 0.07924448475462481 -0.09840717372600472
Ni 6.692095500173951 2.8142942935326483 12.215591338414315 -0.3365651171218075 -0.3732946113323571 0.5485790551323907
Ni 3.671830608944313 7.743106913422321 8.95784947233997 -0.5678831547776414 -1.159428943279545 -0.6237830512690548
Ni 2.0630256769327766 3.229928188885338 13.065921293906557 0.535979106980193 0.843768951741521 -2.425365320794726
Ni 7.58427419019827 3.8396153320682687 3.7429038931496246 0.4549402493293068 2.552802306094178 -1.2262092341288882
Ni 1.804573979822592 5.2648110161327875 6.352771808968017 0.3860351988274771 1.4127435398111283 0.40015775427178824
Ni 4.006178480205883 1.6939142060599075 1.4851162683945314 -0.09761938771738671 1.2661124980817293 1.2981823820330805
Ni 1.7808232050881556 7.835191287392701 12.283476405155277 0.22251766575538454 0.09353133369094214 -0.13993177533235254
Ni 8.57886002907755 1.1717235368986563 0.3019173866241837 -0.32429812682899634 0.757205821838296 -0.18654176188140778
Ni 3.9961074803184897 5.193670591928226 8.94626222746953 -0.049061790523657445 1.5301164560063583 -2.0560908863653555
P 1.0273538885128908 9.109900123139854 10.019765540466413 0.5309528574101954 0.6826376595134179 0.06911742362295194
P 4.898179995232184 8.850888926035925 10.196262610992953 2.1728778481501285 0.42567312493407333 1.1583886749404888
P 3.446510636463674 6.566702226576006 2.8295201533624037 0.8965917519695075 -1.777531399224055 -0.7122426268640443
P 3.482262686063921 6.196229305718359 10.772429177050686 -0.5324734078197797 0.5837910842571495 1.2909046174247445
P 4.642134148095098 0.26968365948459727 6.134156511412411 -0.17801958334300955 0.25655392940448724 -0.6627036395936523
P 6.989842746844762 7.177629594745069 13.411312762544647 -0.058227259073009394 -0.861410318972368 -0.3325914771860401
P 7.59511916507701 0.6702119875061865 7.396344669799559 1.5543426755435745 0.861390007257394 1.00376021682791
P 5.305607890676627 0.5984467883086119 0.29870585666009264 0.4953988715649855 -1.7400346878301776 -1.4020230680698305
Ni 3.1254042650540472 0.48699252455481074 10.887947275759048 -0.03186419569844835 0.2613837466929627 -0.9062058780205038
Ni 8.643650128353114 8.400463456072247 12.390996451453066 -0.8037631007725449 1.0310118534550115 0.18169728930491288
Ni 3.1014203653222174 4.184631003210559 1.823819847107399 0.38911692307659435 0.962249242068317 -0.7037037361550977
Ni 1.9435071532691441 0.09872470639613355 2.1365663561104995 4.05106639347663 0.8409489657942226 -0.07049167826265924
Ni 8.380974206290162 5.954338808422999 7.368025577616201 1.713307042027346 -2.4915943671262895 -0.2460550867556924
Ni 7.005984321664279 8.76626455198213 1.2476598085495934 -1.6684963134705586 0.7238210757302631 0.6978261943283982
Ni 1.6155935319356312 6.7875182241070044 1.601547284592686 1.4413069532711176 -0.8118723601432404 -0.8857897762579972
Ni 6.457450527797577 0.4128401253839279 11.829281770233743 -0.8890404219848108 -1.4818730476189383 1.4045676888685552
Ni 8.421202255840361 6.281926054760161 2.8769881328316527 -0.40546014032130817 -0.7031797453308277 0.7899205384624977
Ni 2.7620463191168465 5.583623437568063 13.066166541403817 0.8306426987722082 0.7429565110081334 -0.05618631738358065
Ni 5.614983412217419 0.372680148332967 8.129615104100672 -1.4971068338495572 -2.60921230945279 1.0021316800855515
Ni 4.021536755034158 8.168065808670745 1.4563728887159184 -0.4652529441092245 1.747365931384268 -0.13713672908571864
Ni 8.672007453036043 3.5516966352875623 13.066562853899384 1.3945892374996047 0.4969795857885442 1.0068406555254465
Ni 2.636345320522342 1.0244817885450044 5.538663883070768 0.359510155953755 -0.9309185502758354 -1.932937873153239
Ni 9.06517742363991 7.61803068982083 5.03762884117297 -1.0589170645057118 0.39795071931814047 0.4671139085773633
Ni 4.5346075742973815 2.4130302230192857 12.697668655524085 -0.9395664557588205 0.43185945625044336 -0.22210191837420457
Ni 0.12536063609831033 1.9105899036372005 3.661438829060506 0.4707741310377698 -0.4135974247164619 0.842145300095169
Ni 5.01585216891646 9.300465821009087 3.3924620045680056 0.5840919033270199 -1.2989264592879564 -0.24649345984469162
Ni 7.1257266453254084 4.886346570364497 1.1117591250691339 0.3591843971832201 -0.08950498614036843 0.3645199504635206
Ni 1.3180048102630475 6.246985280150843 3.8307295396676233 0.6412498405952505 0.3565731848126182 0.957342548795319
Ni 6.361048678875472 2.493355772121145 0.9406994619817962 -0.05991698807060649 -0.7283583014789843 0.2695925077560002
Ni 3.125525490052692 0.6871321998169974 13.24184487693951 -1.1465916823055609 -1.9297147382302509 0.8099404332278504
Ni 0.8813467701454339 4.026115329982964 2.8690861279200064 -0.8047282928992915 0.9982251459422938 -0.04999818629499776
Ni 9.248031346595372 1.8750896290341383 8.698576242738971 1.4175702717758105 -2.194471258050189 2.2416484299566233
P 8.206615358239713 2.5946905459880947 2.033359122264486 1.0656027040560034 0.5256692404137527 -0.8312618204134459
P 0.8567278379207047 9.067247573616761 0.309085514044035 1.6079990274164502 0.3078631212014246 -0.8980670509634534
P 9.285956121171324 4.691398122544265 9.249072016583735 -0.18358473613561288 0.2754975603865255 -0.5678620717317188
P 7.093508770685645 7.9094928865619165 3.45183148140418 -0.2563790943895198 0.9806208025969692 0.5432345029910257
P 5.468814038851777 3.639836534302047 8.902342410460609 0.9121196724017776 -0.3313452634837648 -0.10503804877896103
P 2.9777055917055044 1.9898430777510503 3.2810664883135474 -0.7521019249528273 0.7130748929573526 0.25580470994328847
P 0.9511126893653633 4.883008220401823 0.44551679001856165 -0.33553461897476405 0.0340473193926962 0.39336772793314834
P 5.142895967495951 4.163528528446512 0.20277398773273164 -0.438602945621864 0.2307896759561896 0.28163452652219884
Ni 1.3953463593982718 5.568134612741248 11.08119018109835 0.2687453292643565 -0.7614980214557466 -1.1932520624765772
Ni 7.257917843847346 4.099596329161354 10.512132994961124 0.39054208555889514 0.8935861323739643 -2.768993772521218
Ni 8.947803649952295 7.504620041088904 1.0101856312048534 -1.7877767311011468 -1.6459837341903396 -1.9619520009974016
Ni 4.531315849334186 7.9089333865681715 12.649108718567046 0.3402901313818784 0.14054858298074505 -0.7902630094035809
Ni 6.865540498234617 9.247080196606007 5.533136023132577 -0.3213272171261305 -0.1513479875890942 -1.1446155324157965
Ni 1.5348576828383595 2.4689335973942153 1.2595389259167697 -1.382425091333245 -2.3574462883552494 2.5202971343776204
Ni 9.25352377153396 9.13500302285917 2.5267103642481987 -4.600858752190832 -0.5936119270023131 0.3616971363027448
Ni 5.664862836659705 6.15226193120997 3.564633207642915 -1.376691017062945 0.2440393418772442 -1.864544472180505
Ni 0.19475728532236847 1.302310835438526 6.444637045440848 0.42107959202611994 -1.2175443593650386 -1.098086792726638
Ni 3.0780052905840276 8.10721085935118 4.134590256270078 -0.7025058591922547 0.9992906110923307 0.8349958335345813
Ni 6.729637949754179 1.5462714827107389 3.3439160551108102 1.176611882816735 -0.3490740482220956 -1.1928494277215198
Ni 7.062988046026906 6.441476802976183 5.374763954903375 1.3390526378848808 -1.7861582216611176 -0.7450545311877427
Ni 8.165445483700044 3.2414538887564666 7.513800503486255 -1.1611646950237293 2.121607480010927 -0.9477754739321742
Ni 1.1792394868146185 1.0271487385151845 12.029212565498264 -2.075474690208606 0.5202655528996782 -0.19005980233699526
Ni 6.5424572268470955 5.255019766242266 12.375464731626732 -0.47265412166930215 0.461091099422051 1.1171708059412824
Ni 9.070296848582668 8.165548058698898 7.550308810578046 -0.4675489392322529 1.6228792869623923 0.25286362503709353
Ni 3.7686707328615183 3.638288584319355 7.0508711411623874 -0.4874467065974443 1.1501387762268709 -1.2311861185181894
Ni 9.202096397108983 7.355718442753811 10.375707313986535 -0.027520574017771957 -0.06962804471078332 -0.2121342656385314
Ni 5.058887043435276 7.4906418662451975 5.598592859900687 -1.6336285550590963 0.45626873833274323 0.21752278364395441
Ni 8.878360375728759 5.997942507935455 12.412096128717145 -0.2887551967273801 -0.48941205785393127 1.193541311582222
Ni 0.6231981355318605 3.52419721059504 5.5285639756836975 -0.44267891546345045 -1.5847724527883416 -0.19926589431629554
Ni 3.2046481141680014 4.845419145822116 4.2570275049010755 1.1182229013548806 -0.40345236586266 0.1415348581534143
Ni 0.17833596050597952 3.1778573894675555 10.769808852079983 1.0636538078597488 -0.1308328983548779 0.4991501110773017
Ni 4.8233748460685995 1.9415022782915614 4.5853859287296155 -0.7062313876729579 1.0823616686818973 1.3603519135832893
P 5.668005361624567 4.428004175489341 4.903427172673514 -0.21644240609558207 -0.4939150879306074 0.721713542468957
P 3.4792134110980157 6.569247951547541 6.891829537940673 -0.3360053879635955 -0.07963092155976607 0.5341659650308542
P 9.036419123961464 5.3172548155464 4.995470516644353 -0.06905443159550043 0.5048281352986854 -0.1165920721651476
P 2.7201863945848928 3.114503340175933 11.083127916076682 -0.6272740951414488 -1.4929290483227835 -1.0380564190066188
P 0.9105582648188127 9.21051687201483 4.347173211393133 1.8357036366894126 0.449166065849691 1.3624121385464278
P 7.46770236650169 6.7224670248343585 9.261068628949598 -0.2151529978601972 0.11513219979016945 0.7365632058872799
P 8.082919234622791 1.5932694821852422 11.178528260009987 1.4034690564877377 -0.3347774290937654 -0.5504798716995294
P 2.072723676824341 2.336015048880412 6.977130906986897 -0.8442248083320171 1.386280203413277 2.52419492677013
