# total energy = -381175.2614237462 ev
CRYSTAL
PRIMVEC
9.13954356403790 0.00000000000000 0.00000000000000

0.00000000000000 9.13954356403790 0.00000000000000

0.00000000000000 0.00000000000000 13.37664584519024

PRIMCOORD
 96 1
Ni 2.384223545373065 7.208202501774703 3.081417161925444 -2.023210333587251 1.4294102018335317 3.3608627486904954
Ni 8.19158995222495 0.5052677750723193 9.937710684898354 0.2739883228308507 -0.7954700075258171 -0.5256070197172497
Ni 5.738591342820007 6.690429089477822 1.9314542215041364 1.4591046435741708 0.5915756132985748 -2.0911221669378763
Ni 6.6907672525833615 1.718554041891617 2.060564895198853 -0.4976390737494139 0.2805958008450393 1.5501322370066528
Ni 0.14396425961692436 6.566295811114901 12.810746257464748 0.6510192612771885 -0.579027601430235 0.8570137325665691
Ni 7.994906978408864 8.950848380050111 0.9992765466388751 -0.7952339802556111 1.3139105914016147 0.6494825129176879
Ni 3.3192993694482276 0.008025433053341286 10.795983270025278 0.2580513398856201 -0.703438398308853 0.5138514218432182
Ni 5.279905078558487 3.7027306334122714 3.6015412647829885 -0.5043923333128475 -0.3859662932627546 0.2774235737646448
Ni 7.348988028199561 4.714770552399388 12.893561488056863 0.054108608918945526 0.07486152519558076 -0.6260042272900896
Ni 1.8255963741097392 0.993642018137127 9.24581708955954 -0.9819369503052314 1.2600914886986299 1.668608413568391
Ni 6.92926363742215 7.236580784009783 13.316316551423375 -0.35715682523023007 -0.023393953443908096 -0.09822745361503084
Ni 1.0449971124620612 5.477757913928869 2.5463645288898697 0.2663575457584703 -0.668677340678584 -0.7998920478529127
Ni 2.5696831599026186 2.170723811713968 11.51218165310894 -1.2370811438463856 -0.6490338554160435 -0.17520293982982083
Ni 0.9680055989199282 7.555185266687698 10.46628886539437 0.5573927967692788 -0.2885307394213999 -0.719883945459386
Ni 4.448718444230883 9.113331182489812 2.855887047298219 -0.08970861751074227 0.00010027302329014989 -0.5621367392121673
Ni 8.064623415410216 1.9842954055847626 4.814856778141143 -0.7774432319310933 1.0184461009748589 -0.021489537332343635
Ni 7.219864559144094 2.529816471622611 11.22312622817474 0.06270483522838878 0.3457958916914561 -0.4771612655110364
Ni 6.820247163831152 0.27124154090701746 12.063874652800042 -1.2899553661375978 0.488089739498082 0.5952186093678007
Ni 4.88399833786308 1.9247786990099325 10.890315239246839 -0.2966055460097344 -0.5938538678097902 -0.4026553238826614
Ni 7.914844578286703 2.3101292670864937 0.1019899926305046 1.7751024780675881 -0.8582514616284123 0.05896105191524039
Ni 5.059285640596291 5.821377326873263 13.046911144784 -2.139939445550895 -2.619975461506565 3.2639457863567722
Ni 3.9102896638659557 2.264934225008402 1.5069589890756097 0.45898176638853216 -0.9845926427605237 0.5610059680418338
Ni 8.877540102495333 6.656265476275009 4.193390676279654 1.7705107449318476 0.8385051322394205 -0.9205449203509953
Ni 5.440614809579958 4.060863641264655 7.9143190545416084 -0.71015026311139 0.277463940084277 0.22144063064112185
P 3.374849514190521 0.9306340059861935 13.092191184615645 0.6940371595996111 -0.7025210287009062 0.20325033288534028
Ni 4.617863973804037 7.889655996695758 12.37494906567651 -0.25468576584749686 1.4264830008844078 0.17229502215440648
P 7.4877537155345815 3.701560771857975 3.5906259081087994 0.16146090765337998 0.6280037742186216 -0.5386237436918917
Ni 3.546873999932452 2.019884787556874 4.036831211912918 -0.8472193721839668 0.8820776175137325 -0.46309578855690564
P 1.7208389277398521 0.15345841729351123 2.787612830244273 0.0022731123048928595 1.2077430570039005 0.7873463499774183
P 6.709786642384071 1.5829506365705548 6.5524430051942195 0.48456989927028155 -1.0672358687840524 1.4081404938214783
P 3.97693521428728 2.5824785206527356 8.789540008936402 0.7515931036372088 -0.727061951265064 0.6577658359724027
Ni 1.1580532642327384 8.243484279610067 5.5710790496511695 -0.2744840315203466 -2.730001964639053 -1.0933477353797556
Ni 3.6922292980537823 4.947856327549556 1.6227880783117048 0.6646129408012231 -0.0501478244989846 -0.14391261435697153
Ni 5.747877118907233 8.40572031437816 10.208266760050902 0.11549009735022046 0.7222899837977174 0.25714631157284745
Ni 1.1363285695877183 1.2606446388184986 4.781388684190533 0.7235603658697087 -0.598840265280788 -1.552487367502391
Ni 3.422749861112924 8.937641739847312 4.839857999092533 -1.4779032643379126 0.7743424815185825 0.8445081439003908
Ni 2.6571394506296686 5.747575513975266 11.798281349709859 -2.3300193024925484 0.24811479749819848 1.032648617727486
Ni 3.117863833067813 6.835583317644508 5.758618824256956 0.2811488451350319 -1.3021933029646864 0.21642363704250467
Ni 8.868364000928821 5.1871569922069245 10.850225546108042 0.3778426357143558 0.12235751389401507 -0.3757587566021335
Ni 2.0909355978935955 8.12452398280755 12.511738783729976 1.404907588706477 0.20448729061623494 -0.016121588152210944
Ni 2.7545487041116314 8.009265201079174 8.716797469117648 -2.2759795991383256 -2.7448763106477245 -0.4033690621202343
Ni 4.327994215553528 1.6318746123529666 6.516659864902178 -0.4793371901164326 0.6169076643054602 0.7356494358237589
Ni 7.832643525010594 7.338751739599468 11.224624199336843 0.1336135464238086 0.5837957122428398 -2.0522949096580327
Ni 5.516317647503687 0.11259917460103024 0.7511132667533724 -0.6174511955137559 0.007296790771729369 -0.4058979991896752
Ni 1.0994779306273812 6.419222278835697 7.5384087208356165 1.3300460635108966 0.9908774473279708 -1.3347534962888947
Ni 5.683735803375575 2.521600022112357 13.329693187133284 -0.9212650863464713 -0.6215863007280521 -0.5688092661363365
Ni 1.2454455781560383 1.412105151926313 0.3983387731922696 0.7662692175921448 0.3017408103537707 -1.15623948980797
Ni 0.284917953640214 2.5932631818564063 6.804097590655826 0.35972535728835464 0.22748092329793082 -0.85204867525181
Ni 8.70641129200591 0.357766512162327 6.573042622047569 -1.7298695743717176 0.6677021212495081 0.4523231234214339
Ni 4.035135826613526 4.230886567003533 5.92934549483709 -1.8852058571845984 -0.01697699417397076 0.10944954758309537
Ni 9.093288163829094 1.668999437615092 2.2842497360150427 0.4720648248247354 0.4016022000277987 1.0198087856503404
Ni 8.410893295938562 9.025134588747934 3.8794811770426922 0.30538149243015145 -1.165381047097922 0.15663366146806573
Ni 8.360735481798105 2.677081934313066 9.01255492122189 0.01672965404985506 -0.5484993509343908 0.15621431454246
Ni 8.425233239522088 4.214417109809453 1.5078692875975463 0.5734580777622574 -0.7049944299420633 1.588945867439741
Ni 2.243319204884097 3.5786156341361357 7.981149223739471 0.8183065458043584 -0.18687240574794914 -1.562720615194625
Ni 1.8621362685947165 0.6820091791593472 7.022350800833591 1.7620986096087525 0.5182690912949396 -0.27537800408952573
P 0.2424757420320757 2.2600902670101433 11.183357333009038 -1.140011715095198 -2.333967745617335 1.6762214500289583
Ni 3.5748135840846724 4.216848228351975 10.393292246269292 1.1579161061794445 -1.1940899849968403 -0.9652335215076215
P 4.430512473792144 7.83629934236777 7.150204787311778 0.5007480516920408 0.435008029181754 0.625123110236717
Ni 0.7087140109991809 3.9829947315568 12.820645296913643 -0.15324751860465222 -0.3976275316507668 -0.09741627056764512
P 7.265946136931301 5.441473926658895 7.434378782119807 -1.0518203055599304 0.30296465545854273 -0.03138365651760401
P 5.450851098180052 3.8492466535445047 11.722462439585042 -0.09412988650688951 1.757177003937419 -0.47590605294769656
P 1.9559902396968252 5.671644187466715 0.41289989372590286 -0.05196276622053631 0.0016105390202294843 1.2512924023497611
Ni 1.2686143206571432 3.4771392838443145 10.008766978961113 0.7861366459400333 2.17959408382804 -0.7871010667358315
Ni 5.578164937643717 6.6486613761720825 8.714295976091 2.069819034584725 -0.619832551261739 -0.9284919431122138
Ni 3.1804331471358855 3.6935910900193307 13.114771340522244 0.6020662284172534 0.35548303707223294 -0.2773132734390256
Ni 4.1000722824203715 6.560656712841456 10.449166844802035 -0.6232127805878815 1.7577778707462113 -1.3903338046573603
Ni 6.899075725595266 4.478760123363479 9.689827988995015 0.15731783201928393 0.37850289500617396 -0.15575460129722207
Ni 8.35900810809684 6.806629244175671 8.844223724965046 -1.6069196783093422 -0.11012394794230067 0.49579353590024294
Ni 8.38070538411168 6.703251868858118 1.8514484865510115 -1.223723748702873 0.023689116086823718 -0.09237690837152478
Ni 6.0982780730491895 6.090646554316084 11.294156017561658 0.8791367897178536 -0.8437604671010889 -2.782048548822647
Ni 4.211940293549966 0.3580571496422225 8.667973114358219 1.8583671397251995 2.024419009183372 -0.6787313824804763
Ni 3.1879824099784546 4.84263276446663 3.789603821270852 -1.4880460091988694 -1.3322633828771895 0.9127184823280409
Ni 5.514498878368491 8.089811997001162 5.143761526222902 1.2687944157892665 1.3134508781563767 -0.12627381822928577
Ni 6.043897789861192 4.149508072632788 1.5652948666440718 0.3253425089331107 0.7851100044477317 -0.695508601938815
Ni 3.613729759851814 5.780523567906818 8.028421684030778 -0.8725223697251296 -0.7224360224572783 -0.500828270110673
Ni 6.749845261075329 6.157968430948486 3.9805014641192056 0.14893680704444026 -1.0527567013312706 -0.25863575163418034
Ni 0.9847858005893675 8.238686019328775 1.0544190677458438 0.4706414621146475 -0.7743447955114278 1.4152750479837304
Ni 0.7496609933082341 3.4397951095407584 4.076292104466279 0.40948263121713996 1.3296704253390326 -0.0890074776786596
Ni 9.10139493881863 4.5138285513621925 7.900045829624853 -0.16652186711605516 0.43212685097921705 1.4449959720869308
Ni 5.693505975262629 1.1682347155724746 4.677077247538222 0.7366817337430152 0.8233150547625434 -1.5983273086546408
Ni 8.34011667190363 4.803223053356269 5.559708543716012 -0.1838521308643866 -0.42022855687973437 0.019257305567715224
Ni 3.506349264528153 7.283366106638248 1.3562049626720696 1.1166352451527866 0.5068451657287142 -3.587621706220738
Ni 4.54051601806958 6.608026966247068 3.680690624520195 -1.0627521219810858 0.13042974937918828 1.1656749241892572
Ni 6.126217657201409 3.473702815528569 5.749041496735494 1.9249342861224719 0.1103391492769003 -0.28597403443781716
Ni 9.010063481692974 8.998328307976438 12.091564727417634 2.001581956684198 1.5107961584111915 1.49676462001879
Ni 6.809243153586052 8.59139013840575 8.000049799476072 -0.23693024163628873 0.983349771492358 -0.5445773901721653
Ni 7.857932641578861 7.429836429053516 6.072247739511755 -0.36030128439648273 -1.0403457292614278 0.7129705061690044
P 0.4619244044856371 8.531663222332883 8.335174920791067 0.13371741899152456 0.33876418165565525 0.280515068205775
Ni 1.8425685061904302 3.3415724366968242 1.8737471445211082 -0.47404894513429974 0.010980924491535926 -0.24137619322278428
P 1.936431616835932 5.708878687249555 9.454011318279036 -0.14563191104092338 -0.5413146602604935 0.6778047569011488
Ni 5.610957619337588 6.159311943827248 6.0670848114490825 0.22464988160703891 -2.714142886119609 1.7789930713712458
P 2.408580428515252 2.628496121636193 5.823094647076797 -0.11008718116709428 0.8086389408076073 0.5680785586178991
P 6.559843293479484 8.59032995137217 2.9780425284709087 -0.47663341803202425 -0.2647439214144473 -0.6860983643685088
P 1.5377555944924628 5.754092008414433 4.814227977555709 -1.016234695145837 -0.5820082813251137 0.33104881528926855
Ni 6.147092374310886 1.7192669262762663 8.812440048861754 0.7730463884149784 0.5109244780044103 -0.7379168917016968
