# total energy = -340869.79932007904 ev
CRYSTAL
PRIMVEC
9.27293808930056 0.00000000000000 0.00000000000000
0.00000000000000 9.27293808930056 0.00000000000000
0.00000000000000 0.00000000000000 13.57188221663938
PRIMCOORD
 96 1
Ni 4.592385380662628 3.993641056338947 9.274020006292934 -1.8637255758236355 -1.5110332141226621 1.306898935970472
Ni 7.955846853351325 3.9094335076827296 11.603755694725134 -1.1319140256887281 1.1273474893639681 -0.8988422385665811
Ni 6.237228370221993 5.437150019202596 9.486650325882936 0.07270771207737156 1.7287593720266743 -0.17166433054894306
Ni 1.0450600961959875 4.463064989344533 11.560175668690597 -0.22922053169685683 -0.21465728917070126 -0.8913886105020131
Ni 4.643803821065527 5.750547499869285 5.365304224000139 0.5844076347952257 -0.9477451349148711 -1.319683746439966
Ni 0.5501105471584705 5.817943212195393 1.6503548238200478 0.4469420616151787 -1.2361810006296194 0.9876093180996602
Ni 9.139082996516402 2.725863538754892 6.776291139220677 -1.527822003545227 -0.3097698513058343 1.0775457353504927
Ni 3.791713561620546 3.8503463476742037 13.16391079744742 0.06188182510646117 -0.11312956753784388 -0.08610984441589041
Ni 6.259529785761933 6.099719974778423 0.12218672022666965 -0.4927336660279965 2.1873395321014133 -0.08452784464075119
Ni 2.311576494231838 1.0388565007713637 9.137853404956903 0.08627619479042561 1.9332078389851737 -1.3799475763270297
Ni 2.610359824839921 8.588743407792927 10.491634639259582 -0.23055339157566748 -1.0903385162397867 0.8855550345393716
Ni 2.6842465936641413 6.38061580826528 12.456911414729591 -0.2509946901491549 0.2883461342144195 -0.6649911500762483
Ni 1.2422491196707675 8.286046897410268 5.834253382587576 -0.15110450411972043 1.2475488761469289 -0.04217071983077899
Ni 6.875197221669977 3.2234679299001368 5.569845759899708 0.26939041904752314 1.2713822311211005 -0.5226049996661323
Ni 8.311918394024172 5.156319096280719 3.37910028238022 -0.9061079189900589 0.7950694296532888 0.24891672457420358
Ni 2.180197510710057 2.1950156654014608 11.994259508239105 0.5304872306276863 -0.12485611194615272 -0.0841851165893518
Ni 7.784251138354814 1.0819200241674078 5.468572296416169 0.7427451663282757 -0.8753215297368214 0.14844778322316368
Ni 7.904641690519078 8.178833189937171 6.300719248417594 0.669483381519647 -0.760089314033678 0.9737700982237228
Ni 0.34852058737797104 0.4146180884044573 7.454247680578385 -0.6857255544101223 0.06802419055877316 1.2597762714510563
Ni 7.853130520737634 5.405482936429665 7.749001919688711 0.7981370128350189 0.8887899965369015 0.6709036589059413
Ni 7.879048382040809 0.18609209874436503 1.8214961648616905 0.3503518864932547 -0.840609837287249 0.06222943825386702
Ni 5.385026835522759 8.048492775455088 4.962218888405255 0.562152165831135 0.7554297037744796 -0.5293286915432109
Ni 9.06239580046014 6.119832976984714 12.8560195872787 -0.21440249284741783 0.33675229343194907 -0.21472953716953344
Ni 5.192325913969531 1.9358277794318595 1.3219203471285907 -0.8322696928526698 -0.8089315323473617 0.17513403426509838
P 0.55419805816471 2.075932597474674 9.627729729694254 -1.9790223262161273 0.7094558081475266 0.5364239078270955
P 3.168331041417605 6.711381501533345 3.870986052750628 -0.020280090405274752 1.430928438250271 -0.4190144819669751
P 1.6008428994400226 4.747846183792403 0.024355371274700634 0.6775260493184655 0.3989747897072806 0.4674455808851692
P 6.142180757213928 4.103590280479105 12.931452154843257 -0.384929367357808 0.06442618879486968 1.3451068144987608
P 0.9451627366900482 8.284646683794248 11.918432840815736 -0.5812837444542635 -0.5529597006985896 0.9757920137497583
P 4.628726024114199 2.7239904053082937 3.280527098399895 -1.40198193041925 0.4446021006280923 -0.25001278585185976
P 3.7661387990179858 1.9088249843997147 10.443699114314812 -1.4091869328081215 2.724121080378244 0.9310203659610224
P 8.236269767007606 5.6709022366374535 10.196839599222695 1.6366429164053875 -0.738317212463909 -0.0660575537507056
Ni 9.063146908426349 3.38582779879362 13.410308520234384 3.2025676403596073 -1.767422078704195 0.55463991661449
Ni 1.6270945865059572 3.6226493586582986 5.716150464192006 -0.31894380449561843 2.1966248140580813 -0.5201004880767236
Ni 5.066065592143404 5.5831060610315655 11.505006324925574 -0.9825015645594498 -1.2378308775282165 0.46114894924318
Ni 6.12701950382191 8.768592037479893 0.23671121190421116 -2.04522154775102 -0.5283131057945031 1.0334909111231234
Ni 6.909414362352879 2.302841386772951 3.300097633741702 -1.24547939521241 -0.40381129186397546 -1.6995038175956665
Ni 2.6849327910653704 4.6294493132668455 3.569581262611094 3.395525075959372 1.429260820739861 -0.1314324796120898
Ni 7.184922618946305 7.224647884714748 11.285671671266808 -0.5159648686417952 -0.04665909461943577 0.8034417128773841
Ni 3.4544939036057873 8.60727073762611 8.13137614858569 0.7584813461166098 -0.772371730945457 0.1606299271116524
Ni 2.6505209186875236 8.956498850162374 13.141245882743585 1.7491327934767038 -0.3476296024660852 -1.1799733430898
Ni 0.28797572153872664 9.126610895102173 10.030394073910545 -0.10262609690335875 -0.5324844635633732 -0.4740905970055126
Ni 0.7410625926323503 0.8257504794694286 0.3033901261341711 -0.7321373089054424 2.1582834952757217 0.3590753824091816
Ni 5.7997404351871165 2.837964084477281 11.322098553040426 -0.5199616485060142 -0.36938242076214445 -1.426533137396053
Ni 5.355381253202097 1.4215228272107587 4.913293013697631 0.05017610663375875 -0.7969103395167695 0.0454506761336314
Ni 2.2549188439411774 2.320608335702068 3.8397297611246493 -0.36786984077236 -0.2271587640718217 0.19697092763453172
Ni 1.9851319900039452 0.6679306409494818 2.2995652578289754 0.09636314671278244 -0.7284778577759842 -1.0126989140784366
Ni 1.7434235918899736 6.12017607568533 7.3318699378319145 -1.629683711478735 -0.3407855829610582 -1.2207631234126524
Ni 8.893999249023413 2.842350184082434 4.028758599287517 0.4813323661695904 -2.1546027039900246 2.2195287152394485
Ni 6.914041558342248 1.8809876249606698 13.360485952436235 1.1086393714315035 0.11796709813580328 -0.8520245068820939
Ni 1.4743414812296793 6.246909317342034 9.612407127183568 -0.15437931821625026 1.284251116663969 2.161619758737806
Ni 9.086839264644457 1.666986765155781 11.841955213154982 -0.8677992532178475 -0.8276093112625231 -2.064922882834689
Ni 4.7756093597286124 0.8785505876126402 12.394873605895778 -1.0656520692367002 0.6651988952116801 0.6784351913962962
Ni 1.0489176383434369 7.877008335712831 0.7126892573853186 -0.6687328765068676 -0.8296399685393067 0.5433139500787094
Ni 0.4253292589201271 6.517289639301951 4.774262001858362 -0.6128448070899961 -2.3729819220970034 1.3797393169709657
Ni 6.20676676937014 7.146412108036793 2.691073330512584 0.651168385260543 -2.569665914618736 -0.7773000214850098
P 6.9050004439341635 0.17499610130773577 11.701051995162901 -0.47628040556797974 0.5288093287046313 0.33570996821036375
P 8.836794495399339 4.763517448766415 6.041034332978995 0.7823661231540074 0.38202736321966463 -1.2142515475463798
P 8.02645100217507 7.0291743547430405 1.429485498946371 0.18964945427245403 -0.09643385204971779 -0.6323088293518788
P 3.217959804814596 1.5700752916389726 0.3656968501657601 -0.03592962401707361 0.7373859588988914 0.7239144067750177
P 0.8702327623572028 4.089143043301879 3.1752913085711514 -0.27756395599725103 0.6381408626526236 -1.7692501330518693
P 4.314874169492642 7.508789246450661 0.09626422245456777 0.25809273464651683 -0.4455384963994327 -0.07647052155391346
P 0.46376651362058835 7.637228708672584 8.296817414728206 -0.6826785400536824 0.5695286608008643 -1.084970567059654
P 2.9912457472112624 4.758166963624401 10.747681781177883 1.9246800040198206 1.2006820363920612 0.562943551384179
Ni 3.3534837915573146 7.3607189747908786 6.096638577529391 -0.466965298814641 0.7288807496413576 -0.4957469989330236
Ni 5.181745491877609 0.6298522489439876 10.112951966922456 1.215034191348675 -2.578407922477424 -2.031105162954295
Ni 7.415086209431492 0.8995779014913805 9.750514554412534 1.5085770392726856 1.0684442872698567 -0.1736908740606686
Ni 1.2171194580852207 7.809529166946032 3.166469035496432 1.259203943887354 0.8503399200908194 -0.39477669246553304
Ni 6.9881694235506835 6.182147119366587 5.342991680934772 1.0711480593542648 -1.0325131205908862 -0.6371445601776253
Ni 3.2490797842541146 0.2682698013042449 4.373647904201688 -0.40921343671615323 -1.062366713617209 0.08301860708507638
Ni 4.596817844957052 7.912180588994742 11.315461911418 0.9930952809148962 -0.4053135874411149 1.4111121748552924
Ni 8.234340995933882 8.526188169026838 13.210258795431509 1.9420532051909458 -0.46274920385076435 -1.3414627899882703
Ni 4.008125385267591 3.5079060256473924 5.327805390610548 1.0782975259148526 -0.8968025824287329 -0.05118860705867314
Ni 2.9884360470413656 6.260280893728143 1.3662811545304716 0.5035286997609716 -0.15305262898502675 0.7581211345637138
Ni 7.672892427660781 3.3920499400939526 9.33026130167393 0.43655660461579654 -0.38614369938088333 -0.8722506041209817
Ni 5.764401269023826 4.565948234839603 7.1093861944777785 -0.8012786437877942 -0.6186328745266829 0.8942916430814211
Ni 4.318054787176717 8.506622270153958 2.344922906050209 -0.911761003510778 -0.05464134149396396 -0.45410386947094056
Ni 5.414347865018515 4.345790144299363 1.7489808635461428 -0.7671917294064142 -0.010094151011208422 -0.03353566986360031
Ni 2.055587771822021 3.1067216423126705 1.4399769008348904 -0.19623276391692657 0.4952446053753084 -0.27462878462832707
Ni 2.1984651982833143 1.4589113126398823 6.341895728960259 0.6802200512108608 -0.39305816711252956 0.18287819698689148
Ni 3.9062065253093823 5.909773115767965 8.082625532403515 0.016053968139069126 0.48664812195554896 0.2488784151371004
Ni 8.054557276811895 8.191843121746958 3.884367829368378 1.2040440108857586 -0.4252108405856741 0.7324859504941127
Ni 5.859476700845453 7.194993029456231 7.183325819047768 -0.8336909986802288 -1.2341256607624873 0.01659904200926173
Ni 7.773355436375842 4.5558036408268405 1.001413305008899 -1.4650878577407995 0.6139303268446911 1.5684978839980341
Ni 7.517051434078972 7.737163159929941 8.940205371058328 1.0544227761797842 -0.7245875215826425 0.20530053054614966
Ni 4.475351632001673 2.113608543977285 7.886118069861038 0.47511903827002694 -1.3182038194603298 -0.7669222777951114
Ni 6.269934022034621 0.07392942433835076 7.870469987231662 -0.9605296882740492 1.76310956737177 -1.1593973187106614
Ni 1.7758417826291146 4.068195476688688 9.183495732370268 -0.2312308772586663 -2.283460223786087 -1.7593758113609506
P 6.902515296589172 2.1915754054574617 7.5726482602790846 -0.0004448008469024598 0.16251711683203623 -0.0852590663798209
P 4.259422001123059 0.14765762592526005 6.294869879219011 -0.25730931951327296 0.37970334307217835 1.112384954516865
P 6.286718039551167 9.177704782680166 3.237966168235562 -1.595272323878401 1.956037949505812 0.7352084916315983
P 3.1338171667233596 3.724735131497887 7.2629386269971095 -0.013533515710060562 0.8302909718597442 1.211360856262146
P 0.5484006174181109 0.529647955195066 4.1903182136441615 0.6104763068578196 -0.04348275377398318 0.18909281043803564
P 8.224020216101884 2.1783336502013135 1.5238237322085706 0.9568365556931779 1.6627193017774655 -0.35983514339334155
P 5.147899268708883 7.488787519498623 9.271942868213538 0.24846935262413983 -0.044183893606065845 -0.16181469144837293
P 6.256376986891421 4.724237284014984 3.686571428464132 -0.8851917376626819 0.3401474351564271 1.1922323629628113
