# total energy = -340885.4531524661 ev
CRYSTAL
PRIMVEC
9.14542772655030 0.00000000000000 0.00000000000000

0.00000000000000 9.14542772655030 0.00000000000000

0.00000000000000 0.00000000000000 13.38525791181076

PRIMCOORD
 96 1
Ni 6.6020477785095855 2.132009575159705 11.305510223965765 -0.36620402303416283 0.6843140187745763 1.887212603201982
Ni 4.702761905683366 0.5848281615648508 5.837672004807268 0.1339976692361047 -0.7007960755899996 0.4714084221876591
Ni 2.853044251768904 1.8835831732189343 4.873464974553387 -0.24509349417337148 -0.15813595704520506 0.09009479720556741
Ni 3.8691561577485545 4.914551723683085 5.310520398480219 0.3621146834561376 0.16666327778992587 -0.40846010348989653
Ni 3.5027811729101948 3.7315997775545062 3.296869121385492 -0.8151677430650607 -0.45255298004405287 -0.8897531317811193
Ni 5.3939550512392325 4.970485160373917 2.7439511866521733 0.2315764335235431 -0.2764828071179303 -0.3422631959478492
Ni 5.453994785031794 2.8499256608742707 0.3933448515488343 0.26172004698645895 0.4666351691687318 -0.1761640181915095
Ni 5.694373210470286 8.302941885126812 12.553993733306925 -0.18834616207999821 0.37579809448050117 0.3639319391705345
Ni 2.674516354835986 5.490695386967751 11.436940082047453 0.5688450044702784 -0.03586714621025435 -0.34636616237262935
Ni 0.4469690677091828 0.5578052513728841 0.494507916182468 1.0360553294161898 0.412725820744786 0.5022488046072834
Ni 7.937627769918297 9.139913150508029 7.045437325760823 0.9517043766729352 1.052896826453561 -0.2278781587363495
Ni 0.03075150112376088 2.9505436580084323 1.9132088721751608 -0.5586284689485929 1.278815033250062 -2.562355754110568
Ni 0.7456843482757782 0.16898555752101235 4.817327594821646 -0.34992174093437156 0.6315632094351058 -0.5431475997041744
Ni 1.902797717118123 6.607059472967823 -0.08750253906380126 1.3922600751457956 0.7290226745358606 2.1380442854107113
Ni 7.891900630700809 4.12917896219488 3.9380770165199372 -0.5690375800970586 0.0961731421891634 0.12795711946897964
Ni 7.953074397545965 4.32656473134109 12.559427946531532 -0.9434439364363558 -0.47296291115897254 -0.7031815451030407
Ni 8.397322700471706 7.617098814859391 9.43791874587397 0.24389124633515416 -1.3891667809324528 -0.3910138829889911
Ni 7.0512986304657215 0.888874312021421 0.5250527306369658 0.01949796082361158 0.19023052358690465 -0.6665392112896585
Ni 2.089501626543128 6.529286754586719 9.249307100200813 0.5513352777212891 0.7138266835217125 0.29574628333323255
Ni 9.009243277480136 5.244783977683942 1.166385918132867 0.5504737010519423 0.7967043941535504 0.43058778862687136
Ni 6.6485705699494595 2.1577905362505247 7.056948675787434 1.2422811999900862 -0.20996039791566423 2.1797087550290333
Ni 3.6418099669870463 4.263689914917044 13.322923015532522 0.02224312766891653 1.6422430362009843 0.5689470772657814
Ni 6.228658250515264 6.04812750488462 4.918600404589402 -0.19431960605461374 -0.08764813543728776 0.16243715552372026
Ni 5.497691639268027 2.8871841339086806 9.37771165075187 -0.2164794299811046 -0.47570884933522584 -0.609907321728227
P 9.11915302930329 6.5227203373950875 12.620049329534941 -0.8977469486198733 -1.2952592948490145 0.21265491402869185
P 4.211917647895003 6.55183023422094 12.735336592930071 0.2107723522939983 -0.6410104708909348 0.6749732009896247
P 2.465799400591682 8.81095211097742 1.259409551985788 -1.63767084344927 0.803123667416333 -0.4532605476340387
P 6.519894400191447 8.121514887567505 5.774440516697324 -0.6081761979697333 0.17215643969401317 -0.3086714760353329
P 4.734569703723051 1.1454008194031773 12.634947231491997 1.2386502881057184 1.915886574097907 -0.43957919349220426
P 4.2297786684733545 6.615144031181474 8.357849204813602 -0.3892071687975555 -1.1266124109701565 -0.2919647048036133
P 4.547701176596863 1.8056824188480214 3.4953861799559425 0.608107806625643 -0.7355422208219332 0.09847119419472074
P 0.2783712763287348 5.933004859190671 3.5178199144560423 0.9591878295341738 -1.2748889587227785 0.3285728429449502
Ni 0.6764040741901459 7.75748113225708 2.429022891604625 1.4841546445642633 0.6414249327205341 0.5425552175358139
Ni 2.122233112795006 7.142935817457569 4.753132178616998 -0.4859924906494212 -0.635082535442274 0.02049709151208728
Ni 6.221497380513806 6.025602316106085 9.41204541596193 0.1139248097456296 1.01534920721709 -0.3746156441366258
Ni 8.639210121504377 2.8185294070875435 10.095937766470332 0.6304717761431401 1.124787956166908 2.0201216673595987
Ni 2.2658437662214497 5.7992072498403004 6.9866358828982715 0.34476076555872237 0.19704908917063482 0.10937112893667617
Ni 0.43365606839740334 0.3493882671618471 9.326821002973945 2.3178579845396663 1.1148578415373895 -0.2381954815019575
Ni 1.418291240825304 1.2812470045904916 11.670633199732348 0.49418659642443924 0.6564481456022436 -0.42138632463326137
Ni 4.120692005156114 7.434263421412186 1.5375110381931394 2.1308120293283306 0.005140920770991146 -1.5043612014191252
Ni 6.051465586047496 8.16430634444723 8.083745185116642 -1.9765026451180672 0.7907304359583027 0.6619405361753826
Ni 7.0930475085712885 1.1428949721740589 4.979195265852064 1.1871336082836652 0.16889936620929621 -0.11688003571921161
Ni 0.7040891133579822 7.804708121640902 7.330704254683556 1.2357675672412847 2.0737420237882156 -1.6081352958839983
Ni 5.471773496759554 5.022632389937541 7.305553413571153 -0.539399959736284 -0.7559094716243756 -0.12189985753130621
Ni 1.013999312147803 7.826821766166479 11.256948916659576 0.3536508689595006 0.3513160501787369 -0.5470068255492644
Ni 4.704590991252066 0.4266717051533241 10.448251655999316 0.6462107841449516 0.36342106097238697 -0.8491471853342988
Ni 8.49781266161606 7.370099099662206 4.822200278776662 -0.5613363547980591 0.8619813609844896 0.5491904634641446
Ni 7.434903601361231 6.537700548202737 7.087922410807793 0.525613704585469 -0.6628895303522133 -0.11962417412325205
Ni 2.528473017603172 6.145572038557088 2.4166143751065676 -1.2710263904435788 -2.088354631495068 0.732384649029558
Ni 3.788905028421863 4.409742397577701 9.304721991132919 -0.9650769413250994 1.3600804050894577 0.04502695833265148
Ni 1.1231682843156345 3.534881624640872 4.127263909604451 0.36730702629035455 0.7166680096252497 -0.2715043800667324
Ni 1.83640191097433 1.5940755094051726 2.48775757284392 0.33058807360276615 -0.4398519875376167 1.0836112248182823
Ni 1.506425728953091 3.714442954920105 8.147820796216541 -1.1821161004644156 0.6328937553210713 0.6694324736770536
Ni 5.451223720395215 2.898771390986392 5.316624057022969 -1.1970048446507902 1.080939334413074 -1.8740902068874115
Ni 4.152627839185608 7.142762054328542 6.15732574242155 1.0253122319670729 1.1211439316564176 -0.19048120614513
Ni 8.246532886188119 7.851797929607072 0.8251581162357728 0.2710711491840557 -1.3890438822013433 -2.137114831617907
P 0.14762092353581746 6.100878332685914 8.174979058740591 0.6608611870682748 -3.0602241702619684 0.7752863334890906
P 8.956218086843537 2.1575344642709067 8.166065010221535 -0.20209076535960036 -1.5850192786918251 -1.7812121905097515
P 1.868913906957964 3.7846798407581668 10.448746423645646 0.8993819131201349 -1.4683780984562969 -0.44313168673015296
P 4.314401312309238 6.624371767875564 3.763385626567367 -0.856357587039809 0.08927872906217528 0.46447801361641294
P 6.855979728012143 4.294793515012779 10.338211124557999 1.8614324089140843 -1.1874398266701742 0.8875355553045101
P 6.675174619546193 8.153642775581712 10.397347290079622 -2.938235866781914 1.0935050868932263 -0.21626962796314367
P 2.453114692172751 8.89985481504406 6.058087790348973 0.874210813171146 -0.5507302971474386 -1.4335741034032343
P 6.957054996538478 4.037404593785381 1.4371079586133002 1.37583663948245 1.019442146339541 0.03936204673739027
Ni 2.6468971627486226 2.1132431572248476 0.36133768318216125 0.6409253673762961 -0.968667486889835 -0.7475788402714931
Ni 1.6001206372097245 1.4850254277993062 6.954699134325994 -0.2595019562892176 0.0029508550982078213 1.102823793190991
Ni 7.319149921146081 0.8665475790270902 9.346416911214206 -1.6231538807800174 0.4267025946398522 -0.9457692421354229
Ni 2.530731938280516 1.8357160038860676 9.29094897680061 0.760123252595407 1.171827316943898 -0.19633535093306187
Ni 6.7055100037030755 2.178642111733699 2.6062439068987073 -0.5565291632174029 0.37628223320577137 0.4600999391533754
Ni 4.314950037979848 7.033291283041875 10.580872248786227 0.32342163776131394 1.1820690492765644 -0.3664503347170141
Ni 7.190574351094347 6.68724658429961 11.783953281598343 0.7133026926974425 -1.5243695262202521 -0.8387658420999748
Ni 8.008577999128152 4.2122377378695255 8.104385501216633 0.023991734928907067 0.4561232138938144 0.6453463792621273
Ni 3.2494894033566837 8.84062902432957 12.47874149483949 -1.1318857435539538 -1.2729094663989045 0.351720227595691
Ni 0.44805097182306863 5.413727466236875 10.571127795418981 -1.867763493338435 -0.04554169318554092 -0.09510819125975879
Ni 8.822429622921009 2.403134929008036 5.808988284918922 0.2677868220058291 1.156037401099493 0.3596309978023355
Ni 3.879444764072489 2.8294581933605234 11.415483079241039 -0.626572955309366 -0.7498288126479344 -0.23725677173777204
Ni 1.1778305065362198 3.664207119775772 12.586412445926555 0.004800506712436895 0.6198991428336164 0.10732684481313774
Ni 3.2473493732413052 8.598695876157683 8.004960067873265 0.40383160357894965 0.6658586402828661 1.6166317633907836
Ni 5.9696414431317235 8.917523781637696 3.715306283308531 -4.612581182834082 -1.86551377807231 -0.1718713043534266
Ni 3.189605141837461 8.867873253875349 3.2754660766033545 0.5611669190997303 -0.23316588949785005 1.580074275981724
Ni 3.757838010037501 2.984903030416453 7.198564711401212 0.6740440043071358 0.21237543511506005 0.21221756938095707
Ni 5.214018758418416 4.797801191832994 11.618992626871256 0.5708643488931524 0.5155257242218476 0.07244365978270749
Ni 7.89736959655122 9.141358128107303 2.858997010752236 3.0982235323238774 0.19753528477843402 -0.4154169944237039
Ni 4.601421419749569 0.8094444421150752 1.4556338517958736 0.18022636118634122 -0.6670534319219157 0.49516181585351504
Ni 6.329120775376086 6.16780457364463 0.5208430902006039 -0.9917323391290984 -0.5903204007352351 0.4605845920992777
Ni 8.109534377092523 0.26072060059078433 11.53434437583741 0.5994164494992321 -1.2779205464602508 0.7184919502078658
Ni 0.17363692212221526 5.304979183749843 5.798881672609072 -0.25475107186779355 -0.8038181223801963 0.09434817316528267
Ni 7.395541679922817 6.340314779056527 2.782152553297247 0.12117094978508164 0.7129957029799849 -0.3519032901407746
P 8.91669154770394 1.7706188484960512 3.5306966768596872 -0.22770692326580785 -0.3286800579467759 2.090111723395491
P 2.1877966850050403 4.005139524353521 1.4502124421702483 -1.375371012699941 -0.2815784764732828 0.7914043220968757
P 4.89607795943922 1.3554530061126315 7.983369541820335 -0.35432578353933813 -1.872484810073504 0.6666613386898197
P 8.775906831481135 2.0550965269958894 12.506984405105777 -1.7629676424772671 1.0807249044094227 0.6924903839377815
P 6.383353162488027 8.174448623925668 1.637619634996418 -1.8284860358950508 -0.2867265963331255 -0.29693618987627574
P 2.1659299670312375 3.805467398246437 6.060590893949739 -1.1768751637804507 -0.11908167135622073 -1.331278393256101
P 7.130388290456289 4.122265018745195 6.141344107265038 0.38285654398917934 0.9455391284024878 -1.9393399200248405
P 2.5369782654976243 9.197008056534987 10.304292561772034 -0.23662402324977957 -2.287145385947158 -0.10821284696251687
