# total energy = -381162.6099683777 ev
CRYSTAL
PRIMVEC
9.29533733998820 0.00000000000000 0.00000000000000

0.00000000000000 9.29533733998820 0.00000000000000

0.00000000000000 0.00000000000000 13.60466578417875

PRIMCOORD
 96 1
Ni 1.1569348737176919 5.326516483652482 5.808063296545526 -1.281512120466251 -1.390019101630419 -0.60587454641975
Ni 6.759615831420121 4.3089094221708955 13.826149760666503 0.22100174333149036 -0.4425094797651218 -1.4237242071923482
Ni 5.934663932818347 7.936228934406199 11.583896869736177 2.1565276889268796 -0.99631404496251 -0.9326093077146971
Ni 0.8022517551457888 1.254851957852399 9.045796627818818 -0.19905557807770233 -0.82507985997245 -1.0851837115117244
Ni 5.463353145466327 6.3446254933534805 13.512303847878634 -0.5417784872707895 -0.04518251007390928 0.059205049605246425
Ni 7.833125052004247 2.013128401309096 13.11038089512399 -1.8353853341180455 0.5407271631881397 -0.15098443360208835
Ni 4.8580221835316015 0.6871615351710523 2.2494772271548853 0.558886864816302 -1.8364533703712436 -1.6556364267887551
Ni 9.063753360601373 2.772399445867219 5.566716367781641 -0.5988605769957621 -1.011809826605264 -0.6643805130754428
Ni 0.22552626451504654 8.116688614621806 1.7143511599746892 1.3869144945631664 1.2521061565003082 -2.8689716331684525
Ni 4.524235912960765 8.995897397606939 10.162726228449461 0.27759455212487033 3.0409123573072336 -0.2992450405151104
Ni 8.022787116242386 3.958019730790503 11.180844533487859 -1.8861006010847259 0.48727315713405756 1.1595631548645642
Ni 6.073480501497643 1.778885898917354 3.8184483807146106 0.7505147829713654 -0.6169865971725116 -1.6170020022460088
Ni 2.0094288570252905 0.686774849135358 10.980366414655153 -0.6314757919276222 0.017222277415557437 1.0711490877955296
Ni 2.8708463642335267 9.153137325006094 7.8192684925472875 0.10826581168763937 0.8196859426503883 0.5568865465568216
Ni 9.245495797377696 6.426387281093075 8.426988356192911 -0.33006022612375413 1.3026021083673307 -1.6164954949232355
Ni 1.9553671747272596 2.463004140624793 6.914068087134067 0.38356359735853296 0.4498510077318575 -0.9541703217149247
Ni 8.171586877285522 7.860481229962139 3.3258782272030607 -1.094246335934625 0.32268244560244425 1.9935732274471083
Ni 1.2825334726191688 0.3445846640243479 5.999453364005674 -1.4808528338845401 0.5679479465773057 0.7255596556879246
Ni 3.5961336552700542 2.377793782711098 2.5916618350634573 -1.9451503560590306 0.5614587393085363 0.05851933639213147
Ni 7.966429485607421 1.2547032324540546 7.62455813056911 1.3765989715697713 -1.8466159127265425 -0.6312850160730548
Ni 5.181035158059897 8.181607250998946 3.5427505326019677 0.5610476199130466 -0.9312401952813123 1.6950825485995193
Ni 2.88514259314934 5.222418000149105 7.556139799662189 -2.271244141335869 1.486553226703427 -0.2353299870287044
Ni 7.231800380487413 8.933534979013835 9.751784009818996 0.2733774287197292 -0.11634421782039962 -0.8209997763658053
Ni 7.72822716948477 6.083900574719117 12.756659843972626 1.2303091152298746 1.0195161941105861 -0.36193033535947344
P 1.8970947045886153 0.31292660391935595 2.3273089462432397 -0.5529609862501703 0.6935334804903153 2.160753554082769
Ni 2.84206799965397 7.042826171216615 3.7522488468442328 1.20698998088796 -0.10380906146786639 0.7422502289697281
P 0.5360974299381299 2.6676781747582763 11.128943087600772 0.5979866590312412 -0.3035336405881353 0.2183938733949981
Ni 4.373967488608983 3.8063012338048674 6.935440856409835 1.4318640626906631 -0.9316662270751374 0.6825965218628373
P 6.953274890738755 3.060731516569182 6.9172377971862735 0.8666093466748043 1.5575606682602403 -1.3764233652238553
P 2.068054549985001 7.225563209094363 0.6730103135186242 -0.31244199882135865 -0.8980408257112081 -0.2606810641989833
P 5.245312416156679 5.849490756254237 2.4652610485446624 1.1879738447967734 0.7070906503494597 1.6163774812881324
Ni 5.966379624015196 0.12957700330717817 13.079512009163961 -1.0092214970527973 1.83955309234249 2.2977571000247328
Ni 7.002670313663745 2.4344395688053555 1.5984940746647416 -3.0435575082395645 -1.9446862719384184 0.3797563077973008
Ni 0.7382440618335055 1.8703706095736845 13.353673338004963 0.9572556455084674 -0.39395445367455373 0.1746046441241896
Ni 0.24314743561758728 4.376858338539294 12.839634673242461 0.6841497252825701 0.03855934833043682 -0.19697452717895753
Ni 2.171307157785298 7.262261201135735 6.252881442783788 0.803991414733267 1.0727493424031136 0.5485021791478683
Ni 6.510770353978481 1.1327019291250222 5.823830977371206 -0.2748974649086814 -0.3603362513994762 1.013053469204378
Ni 1.1688143149104158 8.345679251384528 4.057238162160719 -0.3166544942408095 1.0524921348159744 -1.0196527196884504
Ni 2.557677152008122 0.25271233779858343 0.37159133729613236 1.0293118400447692 -0.06084849874594037 0.03826984211447603
Ni 6.8861346687238525 7.717267966694299 1.402723114689624 -2.5198518193100865 1.1028829285637007 -1.607298916025632
Ni 6.545962501361622 6.6914903036411895 9.25896845940018 0.4998000859564747 1.8002123857613384 -0.9818649594167156
Ni 1.5265732606268199 8.108359992314544 9.423366726128378 -0.8186392465534288 -0.46029380033173634 0.40671021067832536
Ni 4.808199175086374 4.168726438894313 1.3961513111503001 0.3720445409753399 -1.0827347357505999 0.08706192391651457
Ni -0.14254028084033388 3.461704485841904 7.631292602512873 -0.0005530442899925958 0.7322314112811454 1.6160512082969651
Ni 8.614472522879051 0.7081290277363322 11.440898328762195 2.4598471566216795 -0.08913063352008521 -1.629401404351626
Ni 5.572703494598725 6.52332835480115 6.948365093525926 -0.9763468578119637 0.14000453755181694 1.1850744117617913
Ni 7.425589574529597 8.034629376085524 7.533066913176603 0.42587109987749233 0.027154448927604845 0.6554040206084454
Ni 4.849898058647063 3.3032654599186007 4.791590266226312 -1.113956412769043 0.7114232162865426 -0.5552022168758631
Ni 6.75112918837712 7.800293920319817 5.388971855619551 -0.04480841456394219 1.2321898771923552 -0.6779227705362519
Ni 1.1791414347579248 8.197000329727546 12.603117601789796 -0.018983740191354403 0.6454931892526367 0.14554243665091066
Ni 3.9477390876299765 5.818146878553247 5.245305909420502 -2.105865643795638 -0.9451606620171464 1.455911333447854
Ni 8.07891236344244 8.552407555082636 12.999054357261095 0.26334267019154645 -1.145910082857504 0.9533941056705322
Ni 0.006531833588518945 3.997766593497927 3.6327452006736394 1.3468618495166547 1.223421386971106 -0.31446005769265195
Ni 6.057055640318031 5.754864221557891 11.121161031132425 -0.584580155817348 -2.251646935930232 1.0685697571041273
Ni 4.666370917090612 5.280114159369166 8.941897994069464 0.8037206775703835 -1.392138719076583 0.8992284182614061
Ni 8.752787143338939 3.63908740937927 1.2326082154625797 1.326253686348 0.6336617438353475 0.9522263106146762
P 2.197938299426264 5.666790899726075 9.595261682466852 -0.06559064141661608 0.4132863212339463 0.4304206669213878
Ni 5.997100714110621 5.74610801373039 4.791658122189306 2.2607401564807517 -1.444718292945512 -2.0508617767559323
P 1.5800214506566819 3.441477831667125 1.3335500023861069 1.3941696334636828 0.32820183275877673 -0.36795263029415337
Ni 4.101167926696568 1.361237094355315 6.4558488529712745 1.6524618857155153 1.3621912807848733 1.6135870630271887
P 8.194992536849902 5.968963727811422 4.0445314359397075 0.10448577581991683 -2.545014434618643 1.0304058444398965
P 2.3392553138652192 3.66788436463362 5.018719976442254 0.2569611921452349 -0.3706273489128391 -0.07475765262786481
P 3.7959369326077725 0.2462595145779347 12.242852633111298 1.3229500758960635 0.27708161704419376 -0.4487850283611884
Ni 1.2307491479832802 6.115188680395729 2.484497749286714 -0.6541328672055057 -0.8820159110378617 -0.4850856625644356
Ni 1.5500346922155803 6.054610966582753 11.698380104178922 0.25945233399820483 -0.31075638358881963 -0.10291997399469371
Ni 8.077016114613555 2.2876197146276738 9.586691381387281 -0.4335908371192533 0.7635371633729624 0.6391243096118153
Ni 8.099901235283731 5.970553230506224 1.6581097210571798 1.104811255934665 -1.9650013293466868 0.6077884756130113
Ni 1.8743304233045923 3.3917570719332586 9.062952102517794 1.5468687357640327 -0.26935236672073615 0.8387496441500587
Ni 9.124470504475296 7.672966388662591 5.923172107195056 -0.8842432577064836 -2.1203820922442578 -2.6590670281913886
Ni 3.929101936149999 7.321082096180773 1.8059920322992808 -0.3789525809490828 0.780933504472539 -1.9768839397168856
Ni 3.7097691549422387 4.915002601772133 11.201523870593846 0.2509558664914194 -0.1962042246718363 0.003471760598684344
Ni 2.5215926522349177 3.3710842415634477 12.667385564549182 -0.10833446014204569 -0.6512473181275945 0.0991859608735582
Ni 8.531781201399808 0.5113894936044994 4.466929228377617 -0.710870429106866 0.6904021339501852 0.9790534581098493
Ni 4.746041253915994 2.0806590274946526 0.34115747312625916 -0.5267850991857508 -0.7710213875651496 -0.9718674818843713
Ni 8.9293799631976 1.5127789799304174 2.3830614504136935 -0.6284794283034596 -0.6474989068287558 -2.0784939366509043
Ni 6.520456095545632 1.3272254548215299 11.027928797045552 -1.8076336179260737 -0.17996847953926426 1.1549002021712562
Ni 7.069457312857581 3.875802471518481 3.3658351645356457 -1.1394306457807475 1.2778837796850444 0.12310467647268476
Ni 9.040189680301252 7.55398606998742 10.984298342373872 -1.4380208263206782 -0.4325721660467518 -0.7175167307787901
Ni 5.777247394008657 3.3448899807801173 10.31908495786343 -0.6589338881385748 1.464664911270768 1.666559501459162
Ni 3.262747084207267 4.596423503181966 3.1427052380014158 -0.9179841016023544 0.7977675453107422 0.3649359549550167
Ni 3.7173634455951774 7.278509450904814 9.162946694560619 -0.29766895427724216 -1.188194445448012 -1.1078479858784596
Ni 3.7616929096390748 7.380990545701201 11.703591070323398 -1.4155604404346331 -0.7285704174897903 0.5823546089209389
Ni 3.852870874161321 2.1743188471017634 10.926043533376282 0.28796921049097507 -0.11493525328801496 0.698381552611236
Ni 9.479106216826477 4.676316928104864 9.648470052791883 -0.525633759190127 0.21043502355923757 1.5130651569510263
Ni 5.37360666290314 9.108947291023144 7.804657151693733 0.12674124478400753 -1.1003218527047438 -0.05478300927815081
Ni 6.900412306964873 4.496322014759082 8.773553856616454 1.470463777340732 -0.5237445125872141 -1.0591680041742533
Ni 5.811919002497594 2.1231294240592504 8.383984407261755 -0.7143375617198601 -0.9645580927071518 0.3595402378607421
Ni 3.0649608950845884 0.7437087906889065 4.736246756901304 1.0727544846094363 -1.2785769490973269 -3.152974659922828
P 7.11258767837733 0.2726870883299174 2.332479012903172 -0.3507792038386604 1.0983058507159793 0.7947449564343345
Ni 1.178397807766205 1.84201053517697 3.7902193705751865 2.356649246375251 1.01658050852103 1.8504180600814517
P 5.050184693529399 3.6027333448215675 12.502592245981631 -0.20875994984965981 0.9903321163474623 -0.7455777506810644
Ni 7.767053793789941 5.222771222970172 6.607976344802356 -0.04928213406457964 0.3392961428997253 -0.9180964588105027
P 4.0487329284429245 8.339479261341063 5.970529992162732 0.9215522785695872 0.08038065524159706 -0.1730082461713472
P 3.642415140167216 2.1433003062096505 8.77552632721199 -0.1059379348854111 -0.6187488312792571 -1.305663520901474
P 0.2542126052543781 8.604377786466456 7.621361464038455 1.0336791158745295 1.3660597626013442 3.163791290922358
Ni 3.140169469959652 5.249411659948534 0.282484373945826 -1.1621591977265144 1.3903844553896378 -0.13559586696116002
