# total energy = -340888.43618912966 ev
CRYSTAL
PRIMVEC
9.13494062406560 0.00000000000000 0.00000000000000
0.00000000000000 9.13494062406560 0.00000000000000
0.00000000000000 0.00000000000000 13.36990897726930
PRIMCOORD
 96 1
Ni 6.804114838344483 2.2645152373530655 11.691624133416214 -0.023919744040391065 0.09177886977620968 -0.6855527762776839
Ni 4.886471565818484 0.3102974896144205 5.947697713303026 0.760201157021194 -0.11933492501760737 0.39525851719795796
Ni 3.108053923123133 1.6278281467463835 5.051833174227208 -0.9104314860660773 1.3235015775241592 -0.48306297570745194
Ni 3.488167936828471 4.571635837709223 4.882009147330703 2.3691471217319457 -0.9477423067013937 -0.4752661053708524
Ni 3.6498289807962525 2.8880571484225577 2.683821800249756 0.12577990931200272 -0.3950913954924744 0.6691036295827252
Ni 5.204824246062435 4.710587419321583 2.5216053518929114 0.16889370978234136 -0.015513779364882959 -0.13630806253683622
Ni 5.150453079554199 4.752937003987607 11.327856182437666 -1.5600911479915778 -0.7962570222034867 0.7706308369949503
Ni 5.710635042555627 7.983326051754269 12.278977977260848 0.5175828638611925 0.04824803637311045 0.1867986150872202
Ni 1.85699640181898 6.969274564565734 0.14913886738016593 1.2476355223234643 -0.17162782088405282 0.4389371890328312
Ni 2.894003994759396 1.7922296728970402 -0.002739568688813794 0.21546950065935147 -0.6840443100529574 1.7735749856794678
Ni 7.779361097823511 8.709608639859736 7.1243703267174086 1.1334551449236028 0.027292002946733642 -0.8308190764490723
Ni 8.836091027540014 2.614310383175199 1.43376272795423 0.2174469361006965 0.10903302887096705 -0.6446609231593284
Ni 7.378885301499413 0.6288100313190386 4.847595085572223 -0.8329320090270171 0.3368764777146392 0.8963832355031273
Ni 0.8236857193432623 7.728041001478877 2.446439406581023 0.16081864608369079 0.15500641027728787 -0.6522752451714766
Ni 7.941798611743107 4.008421074425414 3.6018668886197007 0.05263845213132225 -0.0020928779732867185 0.030693572429114878
Ni 7.948330094278959 4.381117516355771 12.865087642194455 0.054336408659035454 -0.5681276666882796 -1.8705742233143527
Ni 8.11876068123194 6.94596219613008 9.220717701906487 1.03479214643305 0.34991402762488766 -0.6636084107961088
Ni 7.132799136417871 0.7530662339727627 0.31758351824462355 -0.31034217886953647 -0.23285555734628283 -0.09910959910966802
Ni 1.8758874589995966 6.815058497194762 9.22567797465749 -0.8251526221919144 -0.5330786455039463 -0.9342933802853394
Ni 0.49455563616812637 5.145611561031122 0.9529506099332204 0.4757039642392195 -0.04697354053606103 1.056504341299161
Ni 6.636305979346452 2.0300395817863017 6.616260265672785 -0.3786437914594124 0.11683735540673425 0.7796924329765862
Ni 3.3506505408918157 4.448286734658031 0.10906570991404939 -0.031167683852055997 1.2401489841384319 -0.21429862027970187
Ni 6.310535727327521 5.739008168088992 4.495417547239111 0.043306376097118966 -0.8632928807070617 1.2586272454482776
Ni 5.3719023098116985 2.83243449505081 9.451536640747234 0.10276262248122302 -0.2567506187963256 -0.5966412007469403
P 0.35703093227898364 5.9544831471878235 12.09163861523953 -0.31142846995517975 0.012176487461533868 0.6255262592124066
P 4.05533812939623 6.251651900158151 12.475021110694977 0.052779091474244595 1.819079140758854 0.4350157424912379
P 2.4370103208838114 8.981281773588721 1.3226179055574396 1.0299818695286003 -1.263820616723759 -0.34123886844839296
P 6.718255531555017 7.744127631892351 5.469803295312717 -0.8043583111543825 0.45977906547884684 0.49901744215417926
P 5.067224635660294 1.3062691023484698 12.688885599764339 -0.010996865331135898 -1.5483867150704558 -0.43371450718131116
P 3.9329390601684335 6.349587598433486 7.953023626764163 1.0113280018728388 -1.2625216954066771 1.858203874674458
P 4.844414299251967 1.1018199965654036 3.8325515438334876 0.6588819518547168 0.20122224671171796 -1.1140109201560622
P 0.4687412074995072 5.704743005862447 3.145030335722601 -0.03184028443904839 -0.2535840481428859 0.8033041588582552
Ni 0.663525546117635 0.020570972758718848 4.501594594079311 1.54769508832007 1.9164619869854025 0.9755444165153263
Ni 2.1341961746167613 6.523754376095786 4.5499266513505505 -1.3030512800896075 1.0458365771726699 0.6035682668840766
Ni 5.988857928701683 5.353696373176802 8.938398708391096 -0.3864645730554118 0.4274456434534638 0.9213100806517939
Ni 9.08170217570986 2.4262128210832854 10.015959956673692 -0.951656297043819 -1.0531922462067926 0.001956095285106309
Ni 2.4034759539060344 5.2738569922490495 6.940105785705277 -0.4252352660657064 1.2133712018239555 1.528837846404251
Ni 0.46894583016916186 8.952579790193413 8.840878649913497 0.49816537856652915 0.4209608070600685 0.2458709957693443
Ni 1.6839988965547066 1.3334546856025873 11.516157453705173 -0.042819409158371416 -0.7815513405621959 -1.0210292883210028
Ni 4.17632128282954 7.181059027658295 1.5416308471543632 -0.2697238911275419 -0.6956800945196728 -0.3990670923107708
Ni 5.81801626942127 7.59101689233514 7.9971307740034705 -0.7052883070333982 0.9176807114293227 0.25174725204446324
Ni 5.481740835701319 3.0483205464770733 4.638877222042299 0.149444085698162 0.4636514039500596 0.507402580894081
Ni 1.1782703145269997 7.282374653959175 6.851744418682846 -1.3495409390107145 0.769700611871197 -0.31842495587767095
Ni 5.3962377915956266 4.960829982380486 6.7995482815337525 -0.7558135694764596 -0.940948937928644 -1.2098354207565551
Ni 1.2414384288422626 7.850266506835091 11.43878633373013 -0.4361647684940166 0.649632922452623 -0.4886342991476423
Ni 4.811245329898572 0.6005410441086245 10.450936596692062 0.4461213654860962 -0.24785871562333445 -0.26402118431580984
Ni 8.622625735375292 7.365758391843444 4.458035543276577 -1.3605609442703022 -1.6427888814021256 0.03183539934304195
Ni 7.459976169290678 6.252254806238384 6.876224232528405 0.593013631296682 -0.902385475833149 -0.330409896153689
Ni 2.6463922945960525 5.282114978560112 2.52512139053354 -0.6342906356685979 -0.37939146825871434 -1.5608318828123442
Ni 2.384904619646753 5.587760956416133 11.041431946612327 -0.3286934276832145 -0.03772168292048988 2.635170938300081
Ni 1.4285037426452933 3.687629365038705 3.947305581265124 -0.840699568787578 -0.7594869045629887 -1.128750797469398
Ni 1.6806737781728185 1.3169935226241196 2.7475160871441306 -0.5751241526107709 1.206316351859703 -0.92399739767597
Ni 1.035472922918006 3.3614845804547806 8.02798860338264 0.08316258886210838 1.0405257064827178 0.03912653368781649
Ni 3.7751146912566766 3.073003156004165 7.38071137612727 0.33223203696409237 -0.5343410571561378 -0.5954338107024003
Ni 4.310869823068081 7.129738931313661 5.957070162368457 -0.2308040741338928 -0.3833684506285914 -1.0072826281588718
Ni 0.5373692758171177 0.058477322312242425 0.31120732969913495 -0.05062964923140958 1.1127762764180127 -0.4223245201768146
P 0.09083784942168845 5.480516753659635 7.9239041765829965 1.4899748507904662 0.40812046076229064 0.41736511928901027
P 8.676777663308897 1.6361044029386655 7.73331551618685 -0.027734746911107076 -0.1936207802153762 0.4102783876455579
P 1.8460436080280904 3.49081706960525 10.459426610494607 0.751141360811771 -0.18898199589178422 -1.4221774315305185
P 4.1146969734772965 6.260595007014933 3.8020280532806288 1.4318272959154568 1.4049595249903353 -1.4960902196595849
P 6.939083585851064 3.993722954984596 10.367094284789191 1.5846845210602256 -0.3542990440664608 -0.28730123788967293
P 6.56744679703142 8.095969004411032 10.085603830387088 -1.0573381500543662 -0.0681162360519472 1.3094839230888287
P 2.5206863768675873 8.787529683259475 5.887559658787961 0.1400590449388362 -0.8456450857183114 -0.794250019075787
P 6.933365113029465 3.9628103159617685 1.2456806952613528 -0.5612970169196914 0.0491054992773993 1.362098721071067
Ni 4.954883136043647 2.944090874121737 0.6200304398991688 1.680379695171706 0.17436167487544807 0.5350455394223301
Ni 1.5397033746857414 1.216838033780657 6.996660203019202 0.5661224633327927 0.018403442207852175 -0.10122047480508374
Ni 7.085343119951089 0.7765348098928412 8.945164045406553 -1.350837803445267 0.985298924798929 0.9547323648659815
Ni 2.6491967213631944 1.78216296834528 9.266510245688265 0.4822528211013308 -0.5280253993507552 -0.45025518514881163
Ni 6.484574615821287 2.157572487636683 2.551460164793149 -0.07968542894678535 0.238308352930738 -0.15877179085699109
Ni 4.3092346686989655 7.213314502950731 10.198419433421371 0.2622710343939225 -0.4785357772610597 0.08936666079029126
Ni 8.08176417176313 7.561858161909352 12.92174985180757 0.30314643245204564 -1.0240559909624685 0.13737481323845374
Ni 7.590916407988434 3.6935214017318856 8.032908682394963 0.6922911234427819 0.3959984806877761 0.7477415911016025
Ni 3.4545148156227685 8.783227126232362 12.48250810801859 -0.22902075698122493 -0.7410166136729431 0.06003911547076756
Ni -0.0373390697416685 4.8327855198559675 10.213567905434243 0.17418144054384196 0.27794267949290846 -0.29234497096116746
Ni 9.01544645146856 2.5273822883344113 5.678762321274733 -0.026843859665721514 0.6731813991965245 0.1207973684957468
Ni 3.7989751561289062 2.806345104669842 11.380760277484 -0.13980219173302375 -0.05075897572042226 -0.04804389078210435
Ni 1.2520075551275498 3.6937863150095636 12.523794385597657 -0.7968362917457243 -0.5134145914161158 -0.1110477453081507
Ni 3.1559940914422224 8.353409900670286 8.077336466049665 0.9521106109724184 2.050113842846314 -0.9807714692422207
Ni 5.783111661352055 7.740336631539375 3.4504260162059195 -0.5269391082651118 1.4340842102704334 -0.5312415922952077
Ni 3.06873713873949 8.630984206033059 3.5928954634470296 1.0058870333629257 -0.1683020989449295 0.03675726212469154
Ni 3.6062187743261056 4.4734809008592595 9.45261913120947 -0.08300549445895383 0.2196226035957766 -1.6004081024430696
Ni 6.978747497977872 6.0032545951023835 11.136559564144275 1.4546736043860107 1.9048804527953902 0.8191699222459182
Ni 7.776474456590883 0.13900456426789512 2.742984243107717 1.1464003922303612 -1.0167520011018878 -2.048950161555516
Ni 4.723403740996828 0.36066024418317083 1.6212482490253013 0.16239087566681712 0.9241920301852793 -0.18325614915160052
Ni 6.027946339570086 5.8203456792767145 0.24156710996198272 -0.47117753712377564 0.320604480027493 -0.054092925189661675
Ni 8.366993557356734 -0.028765014485514356 10.996469768931963 -0.35739079561790704 0.5843407861130323 0.3754371115966566
Ni 0.19293177266250447 5.248078189848807 5.48476450104309 0.31839641663258067 -0.5240147355294652 0.45471553491301037
Ni 7.494131712229907 6.012088082671851 2.2918561145975453 0.4475141320685647 -0.04164132968987022 -0.023890433464352403
P 8.766427970451339 2.0101345461980213 3.5600991996705065 0.1779992716280354 -1.4802244562719218 -0.05247750107342575
P 1.9925315156433558 3.1989739870103078 1.3018788498915044 -1.0546382346246996 1.0329743764980208 1.355220505893995
P 4.91063348373083 1.154957946091345 8.070985855337884 0.08029915127138429 0.24683130280008458 -0.2832730905668864
P 8.931039600236016 1.8721147285278392 12.241849924647259 -1.7461593126706767 -0.6412835220466633 1.7142079565750605
P 6.831565334876278 7.820842863131625 1.3453739561099705 -1.1537223798130711 0.7558032850638144 -0.7263685247424652
P 2.0802634852577864 3.529722781661462 5.972404987169764 -1.4930745727617125 -3.5520906031936628 0.5339713325215448
P 7.408382024727756 4.207133437505663 5.8526112030038195 -1.7087461621295408 -0.5273062617965435 -0.6338612614406632
P 2.7273644081593917 8.892188697823462 10.183204276342051 -0.8446660096344937 -0.3164837729909001 0.4721257599696579
