# total energy = -381171.8614690893 ev
CRYSTAL
PRIMVEC
9.21423982518279 0.00000000000000 0.00000000000000

0.00000000000000 9.21423982518279 0.00000000000000

0.00000000000000 0.00000000000000 13.48597137378981

PRIMCOORD
 96 1
Ni 5.7037988020647905 3.7749727430763493 1.7413899903127887 -0.41857225222323396 1.3814917808856981 -0.2870004188198025
Ni 8.54454897278072 2.73407691503517 0.5316266299048343 1.8775596534932504 1.021007433944132 0.1994294164773533
Ni 2.4135595790366176 0.876622515703983 10.907696523731046 -0.25877561964615436 -0.19852490238521295 0.11681087304417301
Ni 1.258683603049424 2.1986005756871787 1.9613320546168922 0.016781847444029163 0.41365090366221663 -1.2691998787578014
Ni 3.8798307934907097 4.08926125288157 13.120987362140157 0.24041280086825048 -0.897214730265487 0.7478215524099185
Ni 6.643817131341785 2.80660219753178 10.240221590252043 2.0734316916366486 0.9945510395248163 -0.6348495934958615
Ni 5.6182814412655215 0.3516743669011108 13.131654687708235 1.0799047225009724 -0.6405417587846323 -1.222895853484939
Ni 4.5324569793209655 8.675105538362537 8.283421098833196 -0.30015109726914757 -0.384603351476957 -0.6394050740770278
Ni 0.08677510454984518 1.50451952440752 10.333220913875254 0.49174893351722404 0.9575700914250928 -0.04942997249635358
Ni 8.05061042704151 0.3376327866703161 0.8519090027851469 -0.10714018272362838 -2.0916047630012495 -0.05287370807057991
Ni 7.37143801597015 3.7326978102730903 7.841930928205023 2.712858620090547 -2.0269353478473224 -0.4072370297160728
Ni 0.38532753540096737 3.470792254475395 3.631179000409711 0.391077646347391 1.7289398634685964 1.585716561869166
Ni 4.30480075334666 5.694492419734517 2.0049319951222238 0.22901432922332174 -0.7666181162911314 -1.13941187672767
Ni 8.045229310921828 5.318920000148461 13.501750163079326 0.34276378973335164 0.898352443414356 -0.5221573706057524
Ni 4.5562850037824365 4.109504938009896 3.743517170800027 -0.2695696249378648 -0.5327292325843277 0.9079431724265846
Ni 8.206598294832785 7.105975763559102 1.922048064095224 0.7802009971818885 0.4574211067696316 0.5622267278228124
Ni 1.9615734677030836 0.011995097542127789 8.688714970740568 -0.7294114253338471 0.6222043939280252 -0.8760717776392849
Ni 1.5365390081676167 5.229799871536185 12.591150137629917 -1.3608381091910886 -0.653507317806365 0.08210200880807796
Ni 5.311557822443621 4.246133687706218 7.8614715668266175 -2.3396545115894676 0.6406196632104193 -0.24853645841664937
Ni 6.578331528152431 1.8347486692933073 1.2440053188393996 0.7365863458157315 -0.6815166585350972 1.5844289534059939
Ni 6.931596272865626 0.4295743155494523 5.126597620037419 0.2127798696423303 0.7344731561274706 1.354882405828286
Ni 5.894874495513172 7.508757833661293 1.512869468632959 -1.0130400994679392 0.726190347293388 -0.0784916657490003
Ni 5.427224176297001 2.9331966399432825 5.741086066793418 1.3203640603364422 -0.24636156225251765 -0.30193775685592517
Ni 0.48627414096463384 9.369776300997776 2.3421897622273495 -1.7768965938535333 -1.12437606544047 0.6455566955007205
P 6.882373803154421 3.923662932842301 3.6867141458976187 -0.6571734538040424 -1.3291240659172594 2.5606989352334355
Ni 0.882745378138108 5.4003001672187265 1.3487721482784436 -1.0762897514562042 0.5910673062035885 0.071860790696044
P 1.3169175994131108 7.031598418836368 8.13618123043238 -0.11770047473797793 -0.2935515896747589 0.13205442946680482
Ni 3.529118393238391 6.383487210572285 6.920340157365961 -0.0017334377513389503 1.3393902237299578 0.4242520762168306
P 6.110727280135914 0.6570315139412493 7.148091290011556 1.9035334518491926 -1.360276580260664 0.4082713845178582
P 3.6009249650203867 2.168101441515691 9.726676063363737 0.10666324308720986 0.3439151297289754 0.0027721634284984514
P 4.741030514398247 8.116519885267689 10.423145445633502 0.27908450640683546 -0.8504299087014644 0.6983221601282102
Ni 7.487823080538146 5.217425147308902 9.581769240513438 0.6195384170600878 -0.9935151420611341 1.4233231150991874
Ni 6.036322292693387 0.6132389958213609 9.89518331894921 0.31841955656103227 -0.7514218681666672 0.19086507184711
Ni 5.050444691279988 5.830208959677673 5.104669571849714 -0.10471768932506482 0.36391265589682487 0.36567489000357023
Ni 7.604742571022136 1.6930244449151635 12.299259602248881 -1.427871139481186 -0.9003018538312431 -1.5943495549538156
Ni 8.700444698172685 6.396921572391629 11.538017798960418 -1.8952110480264264 0.6666957914721808 1.9193909877067397
Ni 5.532202011830464 8.065721780528289 4.026385122440664 -1.7567424875031616 -0.7369079908212084 -0.4671236787693761
Ni 3.518245590119855 5.76186694210972 11.653510925103097 0.7611198121807214 1.4082813902747164 -1.1636365536029896
Ni 3.525248412467387 4.146675181891402 6.308211477456282 -0.6524377388912699 0.010698103143794479 0.5530108656514992
Ni 4.907743757469163 2.1015009152946895 11.529480805664381 -1.1122047201852587 -0.4368275988889961 0.9324118469919103
Ni 6.264669586662515 7.475798497428238 6.292526998245795 -1.3297164480856196 1.2613646989840985 -0.14652896893389603
Ni 7.160127851633373 7.569792958963993 13.094257773524427 0.6632093755854772 0.6121603794284618 -0.9588204188924262
Ni 4.804664055361478 1.9943208764177265 7.981335006968551 -0.70460413648218 0.5442184641708498 0.3000335978546768
Ni 8.046454804832646 4.452440519760482 2.061169265692871 0.706223417253158 -0.31660255795695147 0.4255329998117832
Ni 8.046528518752094 7.515438157611242 4.4862973229628125 -1.3723263123363463 1.1554349916288038 0.7135364059748034
Ni 9.433446698920731 5.9366518593601585 3.943486448629775 0.16410091637938837 -1.5531445414704157 -1.4359783419693526
Ni 2.2745627696780386 0.3461476657905191 6.330773465351237 -0.9027284609948646 -0.3255839355199554 -0.14019505629606824
Ni 3.168399328421047 0.16870259747201063 3.8071709830911065 -0.6133130049756663 1.8307357511611762 -1.2014029737184857
Ni 1.0559979672880282 8.14933179366185 4.141716999384551 0.6627836009019682 0.6404808236397098 -0.6365655477457036
Ni 3.516227671574974 2.5270513722662904 2.3896200622719825 0.24795796020536007 -0.19177601369715358 -1.0479950182765694
Ni 8.169077909833904 1.5765288094679968 3.3681345645565486 -1.539303007601633 1.6178396676559559 -1.3882293567198478
Ni 2.8083160461589394 0.5370049817525375 13.16395336293824 0.725038493077132 0.45048478466111447 0.0895468951218974
Ni 6.1003151890139256 5.913044976657031 11.5317871299191 0.048648357135322666 0.6410163844282056 0.45763193722885703
Ni 3.171661169356608 7.107643540986606 3.1972002781732582 -0.5973580243083066 1.0015115300030493 -0.12037313647413461
Ni 2.9064845583834202 4.899552298170536 8.698640549994202 0.061622400797487424 -0.2251083093006962 0.41236252386809624
Ni 6.644277843338333 6.015046612692793 3.1361494886626766 -1.0596660268565943 -0.6461249092993646 1.561979366153226
P 1.3992560474361972 3.200068671063767 5.933423189688349 -0.858138847309948 0.16310872766944814 -0.3309675684293719
Ni 2.6086434668549683 6.837159527813185 0.6632216403268703 -0.3566233213242632 -0.19626156027233296 1.5426235873344336
P 3.3367527061996745 7.87800928465471 5.257438905633102 0.2567521614582223 -1.3467032124516034 0.9803017286946537
Ni 2.2649799601498373 2.4776446177564657 7.873865640957756 1.020997663752119 0.4012265618559348 0.5091301051081489
P 5.62047443036909 5.549211498743022 13.663716229737808 -0.15645214158487894 0.9321346820711236 0.13830221014872957
P 2.2351811082131023 9.0104762291298 1.546746543163138 2.12901225711543 -1.6244391752503444 -0.13773759589451118
P 7.080802460067711 9.067788801500392 2.982678951220541 0.03796285239701849 -1.1584177284062116 -1.6729543492419123
Ni 8.76995692421187 3.774862172197178 11.685863964348695 0.5518664676344108 0.15423816465269566 -0.8202636695307294
Ni 0.4323008091450243 7.609441833386927 13.728449029524805 -0.08147825918115 0.13693438326692545 -0.36938859140973157
Ni 3.1238392641149098 2.334455329229299 4.969283823120079 -0.15981848695395057 0.12572694458688027 -1.1966011814544681
Ni 0.47100338112704865 8.117395238061132 10.330982774996022 0.5155493783709314 0.5126597155279623 -0.959129979713045
Ni 8.219231017778135 7.1366776110090715 7.28814312984223 2.7230502159115684 -0.8530691460965243 1.1413458605255893
Ni 2.419723905550432 5.466310982084147 4.681506524444225 0.7555736855515116 -1.6306723006442496 -1.1210043207547595
Ni 4.952718462572193 6.036847504369452 9.278254020035499 -0.05932512012287847 3.4511547495085337 -0.20763200689280373
Ni 7.9901834415742545 2.5945088228008713 5.513038235622047 0.42674938871738766 0.5387980644862269 0.3942275048302823
Ni 0.7673259659148779 4.721173827347021 7.615690009484114 -0.42881064212179054 -0.3399160358719114 -0.42745129988041874
Ni 0.833101817662058 1.3448367464039293 4.499378779392801 1.2569269749277192 -0.5176072893412247 1.4254105937558355
Ni 1.6627464525020188 2.690272418403371 12.811470907195183 -0.37603515019197176 0.11152597049614987 0.6805039009998668
Ni 5.384838672614571 1.5401786329403473 3.437817254034457 0.7323118868100936 0.2481392229782307 0.9670088682404895
Ni 0.15590862532786834 1.624737712786796 7.599601025140659 -0.12243130455474398 1.8675966287432675 -0.05250501187725151
Ni 2.747391491735411 7.362988557953457 9.816101183317725 1.306645425198769 -0.6978040828412111 -0.5297835196924424
Ni 4.482128800818045 0.6563570315783028 5.743513097591234 1.1259205271094546 -1.108802122261613 0.23788617779165483
Ni 0.882667978522688 5.7171594499646865 10.144714150519624 2.005819391804313 -1.8341856573829896 -2.139899079231263
Ni 1.9263934996466665 7.4887813614909655 11.965644224188464 0.25027118171956897 0.8541731777939806 0.5276834426303041
Ni 1.2233193501943875 6.912430653809222 5.8995322937982735 -0.7286868884629967 0.0025428210265117496 2.991331461055313
Ni 2.492599329164419 3.647779375069334 10.848318118767933 -0.5294017108729915 0.12186591896957723 -0.29023975169270655
Ni 4.406443034025114 9.500710650416764 1.6685118024268224 -0.6105948347135549 -0.48605753955940156 0.0597516661373358
Ni 7.63155600922124 4.958781432446767 5.89099622192623 -0.1707716435313446 1.250034361572944 -1.076323175797301
Ni 6.535006171997042 3.733517877626946 12.839414011209822 -1.1799080370695034 -0.7450103082133686 -0.6113006025313279
Ni 8.967114016014689 9.028619067553867 6.328413698504917 0.43190342211450133 0.3650681096575068 -1.0422681430951213
Ni 4.872729645731503 4.24511090707388 10.442848254877878 -0.7735634372607129 -2.187746794842161 0.3752077691946699
Ni 8.319205521029085 0.04884837157000788 8.834956936956864 -1.0069542982851754 0.03585866156982211 -1.7955826002988107
P 6.567504796233548 5.993512933974133 7.803670639739685 -0.47963620941409 -0.6497673911479585 -0.26499820351709846
Ni 4.19755621479018 7.772460166245527 13.032060732566432 1.67548945695894 -0.5723550745060659 -1.7486437696554273
P 4.818310344699235 2.1652634556169543 0.338579089111226 -2.7623536414968815 0.9744866646747733 -0.6253043730095876
Ni 7.284409519822204 7.477512346055398 9.810235398177674 -1.317014684248235 0.4412961761833109 0.5639887048192417
P 9.24879333070423 3.5022404553597717 9.401057724139402 -0.7295687768473177 0.677756934382349 -0.22184635071997275
P 8.01080491053975 9.008200311866853 11.29702303926205 -1.2456485738004224 -0.39791472387388244 0.2542049695563364
P 2.1664152356083246 4.281110942484154 2.4037795847738934 1.567791601959629 -0.4824767641866787 1.5935910795212362
Ni 0.41451640465427236 0.6168629563862086 12.622519096050889 1.0843398754541906 -0.4375691050407109 -0.1404277411321646
