# total energy = -340885.2938943046 ev
CRYSTAL
PRIMVEC
9.14574590006683 0.00000000000000 0.00000000000000

0.00000000000000 9.14574590006683 0.00000000000000

0.00000000000000 0.00000000000000 13.38572359091508

PRIMCOORD
 96 1
Ni 6.383986704426527 2.1535030533987065 11.57998949162413 1.4978660806130848 0.12090741171104984 -0.22422436403384607
Ni 4.955155971496255 0.5881684049260095 6.2430882579892435 -0.8918051292141416 0.3173394361229761 -0.30268800475838836
Ni 3.0759155455169975 2.045263150920743 4.891424755913033 -0.48358619520077367 -1.6590624217511687 0.011572535328947812
Ni 3.8324242073902304 4.210207532414078 4.916335023963665 -0.49070120897900005 2.199787270946463 0.26780893349301615
Ni 3.8038346057724763 3.0538102777274547 2.780857321117879 0.7440464016382025 -0.3606149589821596 2.113996243322572
Ni 5.267126509174821 5.131467660551616 2.863313536813766 -0.8503106095147808 -1.2649796700288667 0.3059255378590796
Ni 5.382820194544168 3.1162848678269026 0.25679425279055856 1.2222741607405403 1.427117034923981 1.5588809297335604
Ni 5.601394375306387 8.130165673612217 12.943633006227241 -0.16605084101690756 0.5253954179270758 0.2555468282962115
Ni 2.436902280951276 5.230516088421184 12.02202625432089 -0.6183261419195416 -1.6671701384599675 -0.8711265178188674
Ni 0.9626354824941322 7.719174145301721 11.20537699669653 -0.9682088020858616 1.263798762346888 0.7622256436503905
Ni 0.7452676256133542 0.29998046483119606 4.769815602109148 0.6951550752541382 -0.28665203434144826 0.3801293748660034
Ni 8.657015510717883 2.740056319602485 1.557120854098767 0.9704873137073932 0.7391620769627075 0.20410316780393883
Ni 1.672299633975128 1.5329550497626858 2.658230245797661 0.6547144507405885 -0.19219304662991418 0.2775644702178833
Ni 2.3588707771116484 7.279830804766323 13.196984800268945 0.49052663107434874 -1.0822503399150134 1.3337970459128963
Ni 7.739779510767106 4.1090007085170654 3.983658261245372 0.8236508408354073 0.18253109806011789 0.1121530625571875
Ni 8.075044263199484 4.257875159935426 12.708164803677336 -0.1405886921900611 -1.2941719753221068 0.5393099711256388
Ni 8.423369140747074 0.4279294496784043 7.102879828074022 -0.08227658671272926 -0.3829480752617211 -0.08906687016168532
Ni 7.015445582896195 1.0786767062068827 0.7755098635114431 0.05172931005349156 -0.4660386732353135 -2.248845461925695
Ni 1.965155562766583 6.250714895477741 9.84333947506977 1.4538997023344638 -0.2923074328550127 -2.1207389613630445
Ni 8.98122305638255 5.2724950620057935 1.4351906846145286 0.8525955488942155 0.934680845531745 0.32682166458179845
Ni 6.791941845105196 2.187342313151006 7.298432337309622 0.6382953859526168 1.0400492810669313 -0.07920077600088296
Ni 3.533605252285667 4.4431588256980845 1.0485716544969788 0.9897147944784374 0.4958953515854299 -2.0477970217876793
Ni 6.243837294576733 5.940070490951632 5.037796931258898 -0.9340696943103074 0.044248685405730244 1.0225066441974777
Ni 5.648174865477471 3.3164943908640887 9.309757454422572 0.3131158849599317 -0.266278870001735 0.3140085719775302
P 0.3519228139763879 6.613572363227061 12.99261121913305 -1.2175453878063032 -1.7188706521580528 -0.6496501488438038
P 4.165804936171534 6.009248912780387 13.075242118575225 1.4940881016278913 0.6330248815822969 0.6751894307654888
P 2.453904222540337 8.624712736273256 1.5070314330686605 -0.18047447264140531 0.864085551811686 0.8077346838257831
P 6.621099312085478 8.410674845467021 6.394466814629274 -1.0734278565273772 -0.7067846890732666 1.173543014083424
P 4.974645555964404 1.190858425158695 12.996332623131215 -0.4314267395883989 -1.1305847653543433 -0.6566332650298562
P 4.029533322574435 6.396022506003291 8.706596428277118 -0.45982123157069194 0.051720568302743186 -0.36614488766145326
P 5.129665948613453 1.3922203121766357 3.9462585626223783 -0.6575447211005321 0.292058035848368 0.29687294073850806
P 0.014603012444999106 6.084957397166748 3.7785886888480853 -0.37670440834485447 -1.7101823803554355 1.0273660291723081
Ni 0.504547021205138 7.778237372188301 2.8192337854007503 1.6376150505106697 0.7619783035262748 -1.2157389307251836
Ni 1.8373894928369547 7.032849937303932 4.972582275694101 1.3947440179099142 -0.30385579981424443 -1.9266584679024301
Ni 5.995640042912434 5.9585540433730895 9.489567391276648 0.13880151838265128 -0.5484168185229136 0.9753947783113396
Ni 8.920531886729506 3.2559586988909888 10.372837920181995 0.342298677171475 -2.570096060177619 0.6337162512223666
Ni 2.4355670020529416 5.8987591568161895 7.011469012588006 0.018290570779071726 -0.8164607508448714 1.1633308494371128
Ni 0.7879773442936958 9.095755232025265 8.960777741470046 0.2972843172443138 -0.16228083245151406 0.9833803676199775
Ni 1.1348498773957 1.1136500384481782 11.126132766953349 -0.2857488058008885 1.0235893357386951 0.013442755768467173
Ni 4.282001637564227 7.178587397885795 1.7085670892583018 -0.11443491661282873 -0.06790951935777982 -0.261070329217602
Ni 5.510321037843306 8.197953942067365 8.787111916697482 0.23004894113542318 0.7728389003898626 -1.329987185248503
Ni 7.309947745945871 0.9732171104761351 5.0521063652611815 -0.7797628812032055 1.1233219131443428 -0.8967298202092685
Ni 0.9269487820742747 7.941315166956748 6.914449111154399 -0.7507353836226038 -0.42222604692573734 0.006016895618041251
Ni 5.157423287356218 4.814494399877237 7.21734158147347 0.40574630410315926 1.1304870634342143 0.2649490954467179
Ni 8.109295081516338 7.654294224036095 9.732826854740876 0.12007000341141902 -0.5216364651052758 -0.6025444536052526
Ni 4.681341485624878 0.6502131449691447 10.40860510316559 0.6618906567740537 -0.3573378308927846 1.1682210876498784
Ni 8.075647882427498 7.827834752090117 5.099358775919622 1.403887117861763 -1.2496330123694672 -0.9917138271863372
Ni 7.144738992387617 6.441833547111202 7.400578429308407 0.3506398500473187 1.3861503627036322 -0.030980764652230517
Ni 2.2553409337613703 5.759999900340003 2.289440847271221 -1.114874296597622 1.4544509468522433 1.4289751711786423
Ni 3.559743794007849 4.373504825083621 9.274365247020016 -0.6472058010683693 -0.2125245590984146 0.32018179066777763
Ni 1.3678377536632218 4.3824676560450415 4.205446257109471 -0.10887310625433506 -0.7521888282396787 0.09192413710482233
Ni 0.646571308960127 0.8828937241751322 0.5233387852627189 0.8069412413902102 -1.261075449878454 -0.23402360951245504
Ni 1.1899255590790372 3.8041821441158787 8.343160949388244 0.2895301272201917 0.23547808257079444 0.6225545781785924
Ni 5.74201021819601 3.078860475690035 5.3416670818124325 0.9039962719636948 -0.3963944305746141 -0.7278461377292561
Ni 4.494347565382847 7.208750067794737 6.681617627141408 1.0383253563972892 0.23531173219625925 -1.8462965817139105
Ni 8.262843009078868 8.053176784802796 0.6547777867373535 0.077493306391473 -0.8147746213917 -0.08766330494593934
P 0.2271794130597691 6.348674979587709 8.460848407359215 -0.08565810159045248 -0.3467263739255254 -0.4108329745974473
P 9.223118889136217 1.9272190088604915 8.509411403402117 -0.8540194258249356 0.06415365185977338 -0.3058121522096669
P 1.9760481461084718 3.3401910184365775 10.62308381892319 0.7609352069737411 0.9200008749220672 0.518979487098403
P 3.997450046030904 6.334736862868113 4.373503910509033 0.32025660976977105 0.46328553597020855 -0.5390286924397942
P 7.035648535542906 4.290470598248181 10.678996336354455 0.6188467903097019 0.8369272462293392 -0.18318004449802647
P 6.2754724295721935 8.103597281833721 10.793190119399648 -0.6217899320984258 -0.2934171209794237 0.2226621617530488
P 2.7244719686246692 8.876248185183389 5.776475046966433 0.36019741182876674 0.5288970033224311 0.4680898993373874
P 7.081761386264823 4.23771793601811 1.4830448853518075 -0.6974014480861537 -0.8392389250816514 0.8400205404426824
Ni 3.2777164283371296 2.0744746632582687 0.8796853965207792 -1.2995607504378457 -0.8149427715384481 -1.8274755923526653
Ni 1.8972209623773717 1.3968754968290467 6.961539642110782 -0.5724890289807689 0.21839361628468196 0.5672254665889844
Ni 7.371818716817304 0.9037432810554884 9.408329388931843 -0.1768240203730116 0.4027301429846548 0.22185766357388242
Ni 2.8383730878017333 1.732496933350705 9.283829264855607 0.04650354287817798 0.22120486048123195 -0.23354178478003007
Ni 6.474072301334676 2.4611933820058995 2.572669049375853 -0.5689506768102073 0.2150342128941458 1.2156312015027257
Ni 4.030420459924699 7.078944496534091 11.169315320695633 0.3395725364895636 0.5301527301064032 -0.8345327778552337
Ni 7.203372369217885 6.356302531650795 11.937709793913214 -0.5279035290609102 1.3822397147953163 -0.3606900351944691
Ni 7.929919567591513 4.404746693006285 8.529677461695393 -0.14455410459571233 0.23357212379733322 -0.10215275681136601
Ni 2.7711061268616892 0.24843687020632851 12.698754745742432 1.3531844493005727 1.258938091820477 -0.7273062060653861
Ni 9.032942249328295 5.49839498521709 10.812184004441155 1.031121125339366 0.9718893362612423 -0.39935017076882834
Ni -0.082658336679813 2.555604916714815 5.875944179146436 0.14435690098324172 1.386887755090289 0.5325613395478958
Ni 3.8537978155094526 2.6796578138175695 11.771485862562391 -1.2155026463446617 -0.20235224655110315 -0.6233400501943651
Ni 1.282818899972039 3.2405389713389954 13.137539281204623 0.4623596817218295 -0.11939688860379438 -0.48752255414070234
Ni 2.9271691345409434 8.323214077626146 8.073304742333299 0.44336514289719775 0.5186084769122293 1.186417298942931
Ni 5.857210033287893 8.390874305638986 3.925858976439269 -0.5325148025806764 0.07169341188024428 0.6509603830147951
Ni 3.4302217408694524 8.788046611926315 3.5525579814707187 -1.0045721712062439 -0.07544722249572168 0.9370498599845539
Ni 3.9800274001314095 2.9192580643556085 7.104352293160541 -0.7419944042051801 -1.1368214902926743 0.4691419947509856
Ni 5.309983474363814 4.579421293549304 11.80085376715445 -1.059315585495711 0.8488432809406349 -0.06500751521963644
Ni 8.39715743305786 0.4855064928596481 2.6237224320216064 -1.4840227469720892 -0.5770645641665934 -0.1447641637239894
Ni 4.854214374229733 0.5711307949280208 1.769980772835786 -0.31540699498695357 -0.5823597511272616 0.5710319848192682
Ni 6.354674588884333 5.999828794525017 0.74342292866956 -1.0261833217181164 0.796957647814937 -0.8044853236505499
Ni 7.959350577830135 9.091493314445652 11.739667812649351 0.33080044672388836 0.4734051409027137 0.624801208120924
Ni 0.12975984253125028 5.7697949941764115 6.0529573469107145 -0.9543562124734855 -1.478311298409609 0.48926241964994444
Ni 7.118015122929179 6.5369035755234055 2.9820317203452995 2.0112287357453424 -0.0816968029498593 -0.42444902271898516
P 9.064376177914417 2.0149632948236165 3.7976100111272295 -0.8900902034055637 2.2039606855978624 0.832819651818869
P 1.6844634759941979 3.6374734882334687 1.8994479514989082 -0.1664439626902682 0.2413299133658812 0.1824868750857438
P 5.089488686967005 1.4619383330122515 8.384040604318198 -0.44703590688056555 -1.1511085963393077 0.40171815678037265
P 8.743945825297777 1.957445698990586 12.413156880880551 -1.9468112887012212 0.46256434153346787 0.23574496307893594
P 6.479422562673891 8.227604450207082 1.8483003676706016 -0.221082990191387 0.0807938315196157 -0.91164864630263
P 2.035669263493672 3.8081239605897275 6.395203047172534 0.34476230822061915 -0.7507538955653651 -1.806947904712959
P 7.19491255427981 4.478260198381686 6.467726982843827 0.2028602965357732 -1.0807526723235643 -1.2677929711079456
P 2.7002265962994403 8.832513228390011 10.377965025321762 -0.40112654594296077 -0.1195789227076134 -0.34037626333778154
