# total energy = -381164.21890961326 ev
CRYSTAL
PRIMVEC
9.31591458218007 0.00000000000000 0.00000000000000
0.00000000000000 9.31591458218007 0.00000000000000
0.00000000000000 0.00000000000000 13.63478265810250
PRIMCOORD
 96 1
Ni 0.0028432170908250344 8.467979918801245 4.570229259725485 -0.7419077580286448 -0.6077216269308179 -0.10717926349167992
Ni 8.565741125063099 6.575982904951545 13.520754915324092 3.2572349499955 0.16862554372261926 -1.6927029926237491
Ni 7.341816284327211 8.350487605729537 11.965680989920049 -1.3820944474667036 1.7450979612856978 1.082499222701026
Ni 7.3743101939366404 3.2930453360661147 9.822047152843544 -0.7337115953710978 -0.3966096319092137 -0.29807878812115113
Ni 1.6579626109804135 0.363328116369099 9.523759024814236 0.8616851699003094 -0.4129891017085016 0.8175025618458243
Ni 1.6713495800482892 1.8878514319184523 5.234120450433131 -0.4453227808442008 -0.9403892087704321 -1.7031810093369377
Ni 2.5797071346288454 4.371697806833701 4.0793495058591445 -1.675917288524978 0.38145529276627854 0.5749354336387325
Ni 7.52127806033525 0.6860230086718428 7.7402067079202235 0.3993918226400412 -0.2414345572645455 0.5714045376673385
Ni 3.55807378631802 0.20182276546776148 1.8697245255772748 -0.14186910156438146 0.0807938315196157 1.6127956774741452
Ni 8.01132310826667 1.6607760171449915 1.438919377647678 -1.627635827810771 -0.32658743708380533 0.11308611589441814
Ni 6.701291270248686 7.159485206667881 0.6493592957535893 -2.7151389314842915 -0.22789178558310427 1.6401972094155495
Ni 0.5916146000213516 0.41528669763504766 2.18028357612308 -0.43246700792745524 -0.44528755673089115 0.25914457294979887
Ni 6.709396115822138 1.130747064384538 10.36540717918516 -0.6625159490628784 1.7406725785244925 2.1373390318135703
Ni 5.702494818165739 3.467951629907006 11.897043195418801 0.8824717676283577 0.36978582684815026 -1.7082108584513613
Ni 2.4569885935494282 1.1049233495229163 11.704110607112817 0.8085276120407235 -1.6871707499516104 -3.0939413600087557
Ni 0.9410843620512915 4.990172051403765 1.9866420467272796 -0.4384137124291933 0.000688284316276234 1.8111629712355712
Ni 2.2744525657721484 1.7456346818904869 7.57413562734584 0.30426331966530823 1.4461753371070127 0.7741761311440474
Ni 3.1654638876426255 8.554422289003623 13.488767791460866 -0.040134663237356684 -1.2985641908525314 -1.2347334695498156
Ni 4.9648513959225635 8.877144197458277 4.187855687850217 -1.3966746592737238 -0.2227799182778357 -0.15014522553024465
Ni 7.407819538221363 7.121234061926965 8.450660702243077 -0.2662135639814383 1.183216018396814 -1.4812302718286166
Ni 6.697527640809978 5.639146599890476 6.887242512264158 1.7880104443785079 -2.341759216637296 -1.1667321618091777
Ni 3.1203469139504056 6.642070002075767 3.3127475635411665 1.6841543317227898 -0.48679030396036804 -0.14970505266903247
Ni 3.4136771123082292 4.342706681058316 1.9380753899133931 1.4002490068885434 -2.0319829375735585 1.8384246351650015
Ni 8.758291760876542 1.3046006598923259 5.606894904056805 -0.5402263122923211 0.6817197756848388 0.25063859236131675
P 4.575194642128531 7.34596186625846 1.4482324973255871 -0.4093085675331209 -0.11160773157667876 0.23742646454641692
Ni 9.357463430701554 5.964178855129288 7.499075441421216 -0.748198476133363 -2.4649533674999935 -0.8952576065391162
P 8.568452056168702 7.77848114244727 6.5296697678436555 -0.2733802569332066 0.6450471028541537 -0.26656014868757966
Ni 0.9163673778265964 3.9046537516848736 6.021297521410335 0.04481947030753572 0.8110349518436096 0.8941126943013956
P 7.9930639159402705 1.4234065169018006 3.5838891168566347 -0.5716169107884608 -0.8189722044128153 -0.3104609638355879
P 3.551655121260423 2.355109753099682 1.171674671347584 0.41595975430105137 -0.36891756531058395 0.5832092436117504
P 3.160992248705548 0.41408773944504385 5.580675262830963 1.6389957329082805 -0.14322098760658558 1.5780569884413789
Ni 8.21640364901838 6.342982568586456 2.7324238518359354 0.39310881784480683 1.5337023735854038 0.14786131459207438
Ni 0.8072770879993675 4.781858888337124 13.239551242808757 -1.0318839716473196 -0.6912667959433256 0.7770537098021585
Ni 2.813639062439158 6.500123413566917 8.031895442151562 -0.2900741726491198 0.3188602436428767 3.009908966947184
Ni 8.548786160760013 -0.03869551386028816 10.123770990122841 1.3829208000227409 -0.16306424758475788 -0.8719690683248208
Ni 3.4799971072937583 8.945187636617472 7.820529453918921 0.21523835848515194 0.1453981977635625 -0.8597802395681128
Ni 1.7058557271794028 6.926894770538691 6.178233416272847 -1.7447734880667434 1.620481990374809 -1.9310375708067322
Ni 0.4422087588105892 7.887980400918951 8.500809201330954 0.46039510179629095 -0.5280284846745487 2.3711996333856002
Ni 5.498262025629182 7.162680565325001 10.74962157575619 3.903010446375246 -0.5597417566174295 -1.432767805451855
Ni 0.7721896278064336 8.798741461428188 11.924053757781639 0.08742727767573331 -0.8110750610529257 0.13199966496946944
Ni 2.2416605469002477 8.815929323592579 3.9487152322696546 0.7717155854186968 0.688338309442621 0.3389660132538162
Ni 8.218173672764307 2.9484310286486846 13.079314719455814 0.5005896717373055 2.2556894814307213 -1.103167292573339
Ni 8.44480192364406 8.927869351650749 0.23502841094134191 0.5180353780175787 0.6964426837173102 0.9516141309519741
Ni 4.729074917050707 6.465365736745592 12.628944287993612 -0.30321842334056165 -0.4812750305690937 2.2372958094148827
Ni 3.2699511841390008 3.236190310164066 6.036773118498404 1.4401764392111003 -0.33091666058677843 -0.08398071388802957
Ni 1.8697692419666456 2.241064328375304 2.7138125179432415 0.919868463109261 0.5090329174086523 0.23918844154284616
Ni 7.768671484529056 4.798776588982401 1.182590128311279 -0.461218883249167 -1.1345131538744717 -0.9497850481630353
Ni 7.0287642950739855 8.541985543209876 3.1106937633949894 0.6821337232938058 0.7306483830647418 -0.5402481666691922
Ni 1.9513300729960465 1.230278294392319 0.13975828020401787 -1.1103362995179524 -0.006116140200066886 2.486387111893737
Ni 4.460198994130025 1.3284773486334287 9.86822800396621 -1.1106342903743451 -1.0514253841143568 0.14249670784605137
Ni 5.843481867486008 5.247281974371261 9.188207238975949 0.1607407416579038 -0.20462972973137017 0.11304806356763111
Ni 5.647167602233858 5.638895070200265 2.9868899182818858 -0.8094190135067415 -0.305660457123151 -1.7263990993246139
Ni 7.8148411565543805 4.88809757675052 4.388777604390446 -2.3075722863429418 -0.18560742299259647 1.5458050703862087
Ni 9.143784300910422 3.2744041912471733 4.0220426581061615 1.7238825035503473 -1.6668649485147229 -1.2244963652028396
Ni 5.625331098757797 2.3300872068809526 7.980179074661372 0.31741965454160814 0.8707673347072359 -0.0059017101964156425
Ni 5.20705585576647 1.5636948726381512 5.686849671434639 -0.25539976119538593 0.1602406620930337 -0.3592219352893749
P 3.08745242001953 5.364988553475372 6.25918312331418 -1.2743405424184762 -1.2522925614795015 -0.029429103894394477
Ni 1.8565592752733628 6.415786440030748 12.383545401084032 1.242834501390395 2.136557930673172 -1.070478544091066
P 6.332697799031179 8.740339993727067 9.289132129785786 -1.144266890827126 -0.42529388721778366 -0.12174456290036452
Ni 8.199159891367277 3.3252504523275244 7.389288321192958 -0.5102181959660052 -0.2498837164731632 -0.11203299203955544
P 6.863360233974384 5.441090258635757 12.716207390259234 -1.149741283678136 -0.28632756112249397 0.23645741576492826
P 1.565371737239555 6.867366077188849 10.24334820484896 0.48223148094509205 0.7652693155727207 -0.330467745974818
P 4.646712917378412 3.5308340524596566 9.78249271167076 1.411148941630499 -0.8385388136908333 1.5822265464380363
Ni 5.038027903944944 6.899794775397113 7.462057723753777 0.05285159658339285 1.044143248630647 1.9842275245661505
Ni 1.9993349801684628 3.120458704923832 12.43293092677827 -0.3906624131868433 -0.32452438390718946 -0.47243737767280575
Ni 4.9627087355985475 9.130397331842545 11.886967102347253 0.20577695596193593 -0.4451538593665043 -0.7464426697845209
Ni 6.455761028945328 6.683097289323452 4.708526804543391 0.053152929873895555 2.381695904931233 1.1234898061807748
Ni 0.42682632086704303 3.0438446244685733 0.9762966554978855 1.2910064331099314 -1.0792375212306187 1.3200316166976878
Ni 3.7419047262041616 8.026181991818 10.061037622201425 -2.9445623232205738 2.5563889950041716 -1.2516729256176315
Ni 4.546892894022612 3.27725486106956 3.79581405995641 0.5414013064370289 -0.715151315870407 -0.3214999952585689
Ni 6.835822390853548 9.116358248763012 5.570422167384822 0.9405786990734188 -0.9217397119900449 -0.047517071744356876
Ni 1.2044825272740536 7.442456108154809 2.4855251026995435 -1.7191005087806717 -0.9462585230670154 -0.09884169016026202
Ni 6.692757892610429 3.4242134115537177 2.7555347724090637 0.7846865437570679 -0.17836462538725412 0.5160502292667499
Ni 3.604150299198821 5.849080732071807 10.493055702192706 0.12458434634200478 -2.1611983549296716 -0.1399304897807719
Ni 3.5856023135244026 4.147519641454888 8.163239588422313 -0.7521605461049047 0.6516283556160971 -0.7109568181730852
Ni 0.6017195724277011 5.749297972373816 4.475344807846484 0.25220850795159794 0.676117599006713 -0.8012079384508588
Ni 4.33437825353801 1.7426908529235778 12.85222812558501 0.13767948896306612 0.6275116650735515 0.8220112483494552
Ni 2.5403101324103035 2.700646336047884 9.804471748637939 0.13104655702758075 -0.19697401295832528 1.0717877498207928
Ni 4.919072992304233 4.9447103888768105 5.3820851196781305 1.0868628989863605 0.34768488118405283 -0.7354884847658624
Ni 2.684129219724055 5.958160774393138 0.9163953255699531 0.03439801786389559 3.8728020411126653 -1.5491243645674289
Ni 3.7487705551554655 4.214519698195431 13.26722975623782 -1.0271220314823022 1.3359184631312733 -1.4409842798243764
Ni 5.544068376990868 3.4362309411971133 0.5603103326874742 2.0007193515735864 -0.7698533353989774 2.1393645468840314
Ni 8.519655296267846 4.668540104940022 11.435055818634654 -0.2710768056110106 0.02622962312049031 0.2579484957591686
Ni 5.5811922960830636 9.240772286272739 0.569905724573286 0.7790946514915873 0.6191152134797403 0.07793399347331739
Ni 5.527383574206898 1.3926826310382978 2.8222637360390466 0.5275723709737365 -0.2451868252181261 -0.5225124399523259
Ni 3.977699836904923 7.15889830405739 5.567149486637749 -0.03175980891010014 1.7321838243271912 -1.3922400205411376
Ni 0.9773977965861407 3.9845749817706797 8.67052187286472 -0.9948055787377835 -0.5510959080169735 -1.3877930405133776
Ni 1.5830626587843675 4.6434896109779356 10.755662014687026 -0.6883249397061822 0.6960660171041818 0.29366908908922973
P 6.352568644557815 3.5136089266374566 6.080622196233674 0.3731837967861057 -0.6793944699857719 0.5216750316526951
Ni 1.1340542140150849 9.230329146171773 6.933600365761417 -0.3724181222646747 0.52393605977273 -2.0294578571588597
P 8.333010950217126 5.061401533305626 9.25546720972971 0.018364875660432888 0.5246482553484062 -0.896792555126404
Ni 0.10062584995591944 2.4190635058143406 10.911956974635222 0.47949274185769036 -0.7666284007037765 -0.548547430563507
P 6.931934680257355 1.5140224167787832 12.787503015153707 -2.739140950825844 -2.9883561804770724 -0.5251647899735085
P 1.1359546605633428 7.818800420196585 0.43887459302813087 -0.2548896543281868 0.7237755672043084 -1.2552938101996702
P 0.15727499414857327 1.564067509216241 8.617141683053358 -0.5860562261422423 0.91138099446354 -0.19458957188654874
Ni 7.98376663331693 6.877678794487484 10.553990167033392 1.6046213691934688 -1.219700229365777 0.863711713412035
