# total energy = -340858.42711730907 ev
CRYSTAL
PRIMVEC
9.45209237202357 0.00000000000000 0.00000000000000

0.00000000000000 9.45209237202357 0.00000000000000

0.00000000000000 0.00000000000000 13.83409261859554

PRIMCOORD
 96 1
Ni 4.953662029676534 9.211432661628525 7.0927669479401265 -1.5546164980302515 -0.0020931350836028467 0.7633589859238854
Ni 7.873224325822525 5.397711877872087 2.4052087299936127 -0.31241474512784906 -0.2546279160263679 0.2756220017795318
Ni 5.112986498932674 1.0917544789369549 11.045471298138324 -0.21992985042355026 -0.4067130388918027 -0.0698329616327378
Ni 8.992701791727221 3.201707253864063 2.1922474172846425 -0.13387734160815654 -0.09238976388733121 -0.19044315381834298
Ni 6.744436548917752 4.38489182244949 9.124344863222118 0.437997193717065 -0.5234724898727501 0.14943380128551684
Ni 6.98967108586902 2.6184942494714187 12.313131106794705 -2.9944548371756428 0.49126942277764424 -2.720819012588205
Ni 4.086224607240927 1.7984968787204694 8.837854778634265 -0.20720083289265606 -1.0561292173479295 -0.8117247788217827
Ni 5.742722702048546 0.05189954887230773 4.544139729757306 1.4288134487897974 0.21217386062721522 0.9390666333042667
Ni 4.0570081896762185 3.69775306227426 7.1225514362572255 -0.41277441459453423 -1.2186823296242237 0.4569950749758065
Ni 4.926827539393062 2.0849519905664953 0.5982872013296219 0.2736923888569867 -0.26330461786475945 0.6118690734402882
Ni 4.679674227687463 6.339508911107293 10.616781100069801 0.4614412836726183 -2.4707105816987447 0.581110966321825
Ni 3.0743970215188474 2.730114008456099 2.1727685452958516 1.3386834274709203 1.2766126262821047 -0.9427029445052733
Ni -0.04227920924197431 8.66941187585348 8.68453144283391 0.5760633765955886 -0.5567909015192217 -1.4508801987818498
Ni 7.330532441488083 1.6123284670884719 10.0923714528281 -0.4782652972084924 -1.3777091739148142 0.9688592911856669
Ni 1.6248052290378134 4.498950221269724 6.626779738526219 -0.5782688688873396 -0.3737054736175306 0.13792502931496892
Ni 2.2490497664774978 5.431588176983027 10.52998537131812 -0.9531318531480811 2.3538865960284494 1.6387645907340809
Ni 7.20154918879057 2.819880529844659 5.346793456189432 -0.35078845981004103 -0.23131212411856292 0.3871669984390751
Ni 8.456361713476083 5.521950180191896 7.52223221758429 -0.26659023059456666 -0.7324496979395386 0.22733179931457626
Ni 4.594435258551733 3.542578061575514 10.174532820682993 1.3747500912864905 1.1870515900928202 0.23580435556196164
Ni 2.250184017563802 1.7113107785532502 5.148509352537233 0.829256874168275 0.36958862323567965 0.42023318486542466
Ni 9.3657853302897 2.3509244182123514 4.4543977838089495 0.7330379663428408 -0.07763420284471147 -0.05671930706891522
Ni 6.719284531078964 8.33231245300399 12.265777069150758 1.148839597799473 1.5734079197051418 -0.03449443423244382
Ni 8.60581819828138 2.3461794678346473 8.41606744363514 -0.6022978848120853 0.1013271755862771 -1.0989735662069653
Ni 4.728305243012739 5.605988733594623 8.32597955110546 -0.958870298293755 1.1870703591458975 0.7645743463882252
P 6.715390269015988 3.1498625271275937 1.4435046449845363 1.5240278266101173 -0.8006111854071244 0.23197624006512307
P 4.352187582794397 7.170215502531427 6.699947440475961 2.3984335294008887 0.05931740681339461 1.2979910919578808
P 5.603474477019983 8.19540834688712 10.453247614074234 0.6118680449990237 1.1434896463414694 -0.08758257230667496
P 3.0062663396015314 5.194416274836902 0.8520947860748699 0.13898458092773483 -0.4326629259883452 0.280633081840878
P 7.849792588797966 9.043468979931703 3.455369276386569 1.1958234227481792 0.12544566590103556 -1.0219625987685497
P 2.040158524749881 8.680565344868802 0.257681997414214 -2.426472952036608 -1.086276173244955 0.8644102821409564
P 4.061034781032597 2.3341942146893704 12.52901217084167 -1.286994483737061 0.5655053985740841 -1.3574589083062107
P 4.760631398972397 1.6557324753243639 5.753156866833303 -0.6810538599660658 0.29488393533293733 -0.34706293132933774
Ni 5.756163577421247 6.654320300110913 4.862392625598621 -1.0292105385802144 0.06439199312282459 -2.730296613061337
Ni 1.0552315939579724 7.059058896073654 4.677057888515056 2.0464844736238432 -1.1446769817813511 0.499704698029191
Ni 3.431837347182719 5.808679402717112 5.45137991322979 -1.2326400773558965 0.9137698064106907 0.13914656042689585
Ni 5.974478555257571 5.097286573479752 6.566891281169378 1.5615723605227945 -0.8767317798207869 -0.7072112350877239
Ni 1.6489931334532422 3.4526224983392364 0.5207100982818732 -0.6845685579875436 -0.23275065633730238 -1.8400387737296569
Ni 8.995367281780036 7.928802629051411 13.190723857289685 0.12767764055534786 0.3579800924624738 0.22831421783250358
Ni 6.796782236550671 0.8829464156223333 6.835535815332718 1.1985253950603745 0.8094655504739608 0.5092054384307746
Ni 6.353772118517563 9.153566952042258 1.906047511933035 -1.032910356029305 -0.7835781411842376 -0.49223615756628775
Ni 1.3149656406291577 4.834764159554737 2.4029959951660818 -0.28355256948051816 0.7578987341402625 0.3477149630910399
Ni 0.6411136867207379 0.5432155302526178 6.9739872289731535 1.6118381986568822 1.3857754958627166 0.34072259093360674
Ni 6.748245742149254 7.569443528633209 6.6134021921725035 0.8561781240391514 0.6824995912736569 1.4058797228117594
Ni 8.617103996590103 4.943349796883554 4.936599112501569 0.09700078029678133 -0.28979495084580414 -0.08235371980756784
Ni 7.054077643386304 8.247168004792117 9.034271148831019 0.14327806609676616 0.4447424828606986 -1.418527493482757
Ni 5.8008719744063875 6.670615707384146 1.4574767279493221 -0.3419832028135852 0.5535973342825885 0.5766357041592908
Ni 2.5407129812281357 3.3178923734711163 11.125654343056855 -1.3403245626187692 -2.203218408115199 1.4466453347648955
Ni -0.059119057036631444 1.0089163412672337 0.9619318804355759 1.1431332914433152 -0.362793197580401 0.5510480854981736
Ni 3.490544292991327 7.1942427213762965 0.10065627702631534 1.822119984467707 -1.0660050817007447 1.6931423941540131
Ni 3.7737762413337728 0.5597916646697094 3.342966884152339 -0.7158732816380962 1.1135185539006758 -0.12316201207318145
Ni 8.312330729700271 7.415884835732446 4.603155758986932 -2.0124975751554373 -1.521619988499573 -2.148689423829383
Ni 7.972461843781722 5.934959356992269 11.982910916783647 0.4207018969717271 -0.5289880203743406 -1.0394355587423325
Ni 3.9244804023340047 7.882440115898744 9.203268889434854 -1.5164371587470529 1.5590552505278956 -1.5822869673623265
Ni 5.138856875792786 2.596404709565652 3.114939881389538 1.8040176184400414 -1.6245530751203892 1.2960295973561358
Ni 8.654562638715287 2.9688738621230497 13.576183965622214 1.9500837888049058 0.9759066849507515 1.4032785377434864
Ni 8.569956959769408 0.19883516063829543 5.41678052905133 -1.0388575747516753 0.09926437951997742 -0.5730402734985486
P 5.946075017638047 4.518506600416079 11.695549349277815 0.870769648700081 0.7805262417317913 -1.5246186661165808
P 0.9428140783759253 4.722643439673606 12.29189603604062 0.4250928269505711 -1.358765800043092 -1.6928120073977877
P 1.8369952510080976 4.5914483973578 4.4248486525922575 0.20665550191214732 0.6702084326111296 0.583536287933866
P 1.425810328038197 7.782824514244112 10.332545339515976 -0.3552315831830592 0.3434988681271633 -1.4085528987685483
P 8.874389951333349 5.177856208976865 9.702582286182844 -0.21133979476169407 0.8868400718993822 -0.3227945457002763
P -0.12303032491289646 3.001890020826876 6.543608887204515 0.41132174130840776 0.2814280669383476 -0.7952581486253272
P 6.242814005999893 4.434505855382897 4.326183931431644 0.8285878731257086 1.0796550683840116 -0.41253530200053473
P 4.881419687571366 8.08639736540094 3.192188996831497 -1.0887326052052475 -1.6034530599169805 -0.7087670096106181
Ni 8.746134509749547 3.3626763871953447 10.81933943989889 1.2933458798763853 0.713487812125055 0.4673954443735241
Ni 4.055798321850828 8.37041383741141 11.865957342065622 1.6327759772508137 0.9657351437343885 1.425157597204765
Ni 4.18197430310974 3.842795419935359 4.79463341091207 -0.24036600679071507 -1.3880768903023837 -0.42448064728786894
Ni 1.1083334489817622 9.3451892209809 3.85009716130344 -0.32733022878710083 -0.16651852468194547 -0.02716884710530805
Ni 0.8601593112984899 1.7798857088127011 12.390200632481331 -0.8015231556984325 0.7782451590070983 0.7437769500268997
Ni 6.862748389311624 4.625078942066707 13.621836626636703 -0.8472862208661601 -1.4139594144961003 1.7013269868473346
Ni 7.153816122241952 1.0607799721884752 13.848064896218474 2.286794173255326 -0.08774018093046179 0.9905750855962037
Ni 0.5133355758024214 1.089504880949119 10.17742421574383 -1.4710062801077635 0.4758595159804772 -1.8098062000973603
Ni 2.6981564840994894 8.092210402218246 2.462468560457945 -0.1608268736138069 -0.42374274068057993 -0.3379321726726632
Ni 4.013178837282962 5.004504834620102 12.428715073326016 -2.5867974320926996 -1.6699312461448725 0.8760005580817171
Ni 2.2072053534852736 7.160120667863323 12.126564762073262 -1.955633772088858 -0.7153894000231421 0.9241138686491762
Ni 4.8831872288475235 4.367273122242238 1.8303192381559612 1.021515483928802 0.3397828527281568 -1.6851076967749947
Ni 5.561374857533339 6.518758391112837 12.9044143076664 0.9650941677162798 0.42839180941681704 0.2547762686787741
Ni 2.5700900843634042 1.1888274677397888 0.010176122662622297 1.1138818507773656 1.0560698248649036 -0.14370641188343639
Ni 2.214738671116808 0.263915652342692 11.295619977921003 1.7084854522689867 -0.9483814829472894 -0.013284890034364219
Ni 8.73186185024689 7.925796863672707 10.695330823424056 -0.2713046053511005 -0.0402966427365177 1.6221979446246515
Ni 1.4254038880656048 2.780890648752966 8.539425756153827 1.306485245471821 -0.10789248750862063 -0.057993288685332385
Ni 0.15980652596782013 5.294116945323006 0.24671567982813336 -0.5768473059494647 0.7536433012980183 1.2420197187985835
Ni 3.62017028797108 5.824256450969019 2.8950605822633526 -0.5741756726545724 1.4113160633359823 1.161337730266484
Ni 1.3105704176697306 6.465836125844379 8.527624818810073 -1.7132481637649528 -1.6015584139974288 1.3719905262634822
Ni 2.413780832578354 7.703011046137868 7.202028409874533 -1.1902215031803693 1.5561722725531457 0.21616601250574385
Ni 7.285105685481617 1.5471090296260028 3.0436937898218415 0.7459834707599152 1.3576707672067005 -0.1253999002647647
Ni 0.30090830631325194 8.028645080923305 1.7113466965043165 -0.20224014645327107 -0.05501697966582784 0.41857456621607914
Ni 3.301445732719711 8.57642219096134 5.3973300133396975 0.15945493296694474 0.8522237673770935 -2.9039862015704245
P 1.6051732331523718 1.7729195167243188 3.0127882833477786 -2.6151520719759933 -1.2398967589183099 0.6352419438382737
P 6.243258254342029 2.2761016548858435 8.416814158933624 -0.8188680747347833 0.8413860533316412 -0.14036217800155182
P 5.435907783203367 9.49802955486034 -0.15112194348368735 -2.192930910146262 -1.8023183763607478 -0.08698273393914698
P 2.279457147682826 0.6104331400454585 8.625888771253527 -0.7794504921691092 -0.41669251870201784 0.07339908171744133
P 2.8757329437527357 4.5085629992261484 8.896441682869572 0.32324680274634654 -1.6265870748312825 -2.697632804279728
P 8.377559619255127 0.7825595232290151 11.82112134183327 0.3461579030165651 -0.6771421836164854 1.1222597904284157
P 7.76001661531702 6.394680774363588 0.409641396283289 0.1917731854836762 2.7097537559129785 0.5351003039196655
P 9.04692844574493 7.251579113788954 6.46086716087713 1.5356247874190974 0.9945556675105065 2.211576293161591
