# total energy = -381167.1101715309 ev
CRYSTAL
PRIMVEC
9.28511193737040 0.00000000000000 0.00000000000000

0.00000000000000 9.28511193737040 0.00000000000000

0.00000000000000 0.00000000000000 13.58969987383690

PRIMCOORD
 96 1
Ni 8.041677747495148 1.5870113610379957 8.790117207899858 1.205371985668563 0.5808463998065287 -0.5163980995244719
Ni 0.9669330044218044 3.408063257802201 2.470525989794568 -1.301482907161223 -0.645135805913218 -0.9180103268545996
Ni 8.513825698049688 4.005866630477776 7.051858798756198 -0.04357454215684108 0.5624295878622378 1.5438034665751474
Ni 3.2234845142609285 6.688261236802306 8.423018230171058 -2.058373254641629 -1.0729740568194102 -0.9356000149119048
Ni 3.9956715773861564 7.742325733220253 12.194038377191886 0.31072115947551004 0.814972596335119 -1.5684528896927117
Ni 6.183373980964475 1.647726709094557 4.354941348587767 0.042637375054552375 -1.3061468882957956 0.7332418548235308
Ni 8.00086967979235 4.876717294833929 1.5470788794067292 -0.7750829592290329 2.029585640985976 0.005867514524370541
Ni 4.452174114043265 8.040108563549351 3.3452541169658945 -0.6708594359315672 0.005551783056164632 0.1941907937862333
Ni 5.244788423800155 3.122091090071045 11.104320907312005 -0.19827421982698756 -0.3481492224149811 -0.2180046083763794
Ni 0.2119048284671726 8.304771398998843 2.2558356276958054 3.1677137659052157 0.31432944565205867 2.9452948305112243
Ni 3.4990016457615165 1.285421634745724 10.786267748745823 1.533356817320527 -0.10852652154819374 1.308896683126791
Ni 6.515149606711081 6.471500294704062 11.297634155810732 -0.7920666382712229 0.2919595625972907 2.1669514553633644
Ni 3.0567424710739384 0.03195099926555024 0.23285018435430993 0.9031966588805348 -1.0882718635187452 -0.738556839278541
Ni 6.565187075846546 8.92056931893449 2.9339617196607053 0.47647298119476006 0.21184450231225452 0.03267820695931146
Ni 9.061851584728746 7.270660608495188 8.5350245374973 -0.40864985090319944 0.6627779444750134 -0.25239645559268786
Ni 7.113055115619813 8.636491314072815 8.252141526563577 0.5131263707517356 2.621324262224976 -0.8063493734424823
Ni 5.2775091588592336 3.78906854793111 3.8381793628784666 -0.12962139454528 0.6132546409339051 -1.0289146046063504
Ni 3.8650671905129963 5.798868203571868 2.550990771299104 -0.21656067684100125 0.06200652360978353 0.7464239007314435
Ni 4.270278767900424 2.9631114006040864 5.682465395663765 0.03591419739810589 0.32053763134529956 0.5404008901969725
Ni 5.669647298402398 1.664365629987256 9.144142747784395 -1.3975701745047995 -2.209228361754705 1.4915213693419795
Ni 6.849580774519801 6.650415119861101 6.806020599588993 -0.7079432281577421 -1.1622468723443147 0.23967000916495498
Ni 4.934842096613112 5.886816785433276 4.985626088761843 0.30158602994346123 0.5457315583812665 0.6214099230511878
Ni 1.8505971234832723 1.6550619476577446 9.40886965050741 -1.9144518985339096 -0.7927307542177832 -0.29906352063192365
Ni 1.5286915719046021 0.26613452571818136 11.856782678280732 0.38717882551361704 -1.2831550553863127 0.5326024771984763
P 8.505320535361232 5.915684198968656 3.363940405077812 0.20699128798501124 0.8256280191664361 -0.11574746477666517
Ni 4.927460432489398 5.706119218752019 9.558138969734648 0.953831193207951 0.07023636771874356 0.25739288036601476
P 6.746218906563593 6.940853426514907 9.298956207449704 -0.08208323975500056 -0.9426934314235764 -0.40061489641386494
Ni 3.534099369519553 7.062804088905926 0.6638864440402107 -1.4747379792360538 -1.3653305977448036 0.6293410049728064
P 8.377325264989663 6.450200247534502 13.30263155147063 0.21089139437036583 -1.0031619211222789 -1.1712069097510798
P 3.178043175617587 8.167686003876183 6.333398179805871 1.3402582281572077 -3.024535201500791 -1.334344433775934
P 2.9784318355778323 2.3106465729646057 7.805121874899612 0.364430733183824 0.9363176098042197 -1.56634638487267
Ni 1.0822076712091127 5.6455617176012485 1.679156813571 0.22020701534433687 1.4478822924957904 1.3367769544768267
Ni 1.9302633853467521 1.912621672346681 0.0855353812252406 -2.995519273884415 1.2646012036435252 -1.632232446042518
Ni 7.208515353174411 1.9000867710045248 12.296164396726876 2.0292220869989697 0.7281405290412234 -1.255675104798489
Ni 5.33479830054894 8.504995556437546 0.7079350158677572 -0.2771338104383679 0.2492378553590482 0.5967671848018432
Ni 3.4918799647767504 3.7353263190656296 9.59758955404765 -1.1897322222487767 -0.870773505354823 0.998119730712681
Ni 6.5796068549460776 4.004056033617243 12.720991701947963 -0.05681006701050862 2.0466492813364816 0.8247574436360249
Ni 9.0129004737096 6.214228408490389 6.320379524123029 1.3888322804111695 -0.4592357913808672 0.020499405504932438
Ni 1.8823614919955058 0.607777440099089 2.067346923446991 -0.3701594081374851 1.1092173554221607 0.2203993338608011
Ni 8.759732607046471 7.553624399904226 11.146638734243124 1.0714805029930192 -0.5602228100189063 -0.10734252854242159
Ni 1.6560183142045908 4.506705577437696 13.33530121841313 0.761208772350102 -0.6794006406333589 -0.11410684384944865
Ni 7.235525744288729 8.3357001074216 12.824410209088013 -0.6310767567169906 -0.22055565693300727 -0.2712580683838812
Ni 1.9250822927919942 3.6804234511869867 6.033976527190187 -0.17491986137176327 -0.9142775992850447 1.315631173637147
Ni 5.037294023583 7.745120551963948 7.796057748462418 -0.19270675304153911 -0.5354445746329618 0.8235665086517172
Ni 1.013024300912517 7.61935370849765 0.030600015454228992 0.16197101452057913 -0.3633279870379485 0.08073315348500935
Ni 4.162738599496832 2.061294887376756 13.182783966971462 0.11758014711002975 2.042194587999238 0.10811488793207188
Ni 3.2481550571247126 0.9122353375206885 5.979630766037862 -0.28184047188541783 0.614058110671807 0.31915874871990196
Ni 1.8655090135243853 8.712183547955227 7.741698988153145 -2.948667603638199 -0.05914822822538201 1.2834497038085961
Ni 5.764931118826993 1.1592462463467925 6.906204173671556 0.10537254930024433 0.7973109173892978 -0.2373128217866881
Ni 8.00624575970132 5.190424092423618 10.007808592393465 -0.5876343692626396 2.4940711108015563 -1.5691167485289557
Ni 7.5244970032298975 3.151970580825903 3.2218187651492376 1.281795713144941 -0.3147994433099417 -0.8545968955949605
Ni 5.487222700869555 8.479721481286917 5.7481984183020325 -0.22089864209472276 -0.20807757907065452 -2.0660996767516098
Ni 1.0733311040364453 5.90625052506967 9.722112192491835 1.1940429338089886 -0.7682960182141865 -0.23116505701773735
Ni 4.29871906627896 5.385541438204407 11.8855785964529 -0.2803098941735044 -0.6296698490671349 0.8404712548268556
Ni 6.167385017919147 6.02140448539961 2.8897413732592105 1.078134517974427 0.431082983095735 0.38195794343430994
Ni 7.242879553076128 4.883625418240272 4.944326838628676 -1.1506041458990635 0.21147066391260355 1.115830232752988
P 7.616029638363952 3.184496328530771 10.4951488433747 0.7098057352877776 -1.6243635848174023 1.729946193245924
Ni 7.818779346295298 7.522723546817786 1.493929040693567 -3.527611644215692 -1.8687783077561946 -1.0970529521454848
P 4.036999611366849 4.456538116732756 0.8591941346191583 -0.11650568309892838 1.5357050058377295 -1.2703409343407799
Ni 6.787556225656392 1.0195424496104382 0.6854111909227187 0.0027505661619436498 0.6596278288818059 1.8177532228585789
P 0.12202772882149342 0.1686687039488399 10.182993588017807 0.5793639017237312 -0.4527499265462074 -1.017350811028151
P 9.019381481959101 1.663437118776726 2.0694397877155253 -0.49153938860957924 -0.5052770499106459 -0.3610566745052685
P 5.820168250741428 4.224958135714452 6.6369647064653625 3.2078908523447334 0.35151196823962694 -1.6569877986103267
Ni 0.15168159135219225 4.344030413352828 4.570786778632429 1.457703135240954 0.31156885218778596 -0.47379954812765496
Ni 8.56108691866567 3.2720363654595457 0.28770662667242647 1.1589867135358038 -2.948998761725373 -0.08677473169339894
Ni 3.7767007786068496 1.6248203375307804 3.7297886782060283 1.4143522790591447 -0.782617062822549 -0.7128036415738369
Ni 5.4725893641916015 0.6207422421317204 12.257801099041405 -1.107066627627745 -2.115247342120854 -1.0595590689650847
Ni 8.255486023943906 2.53124226636234 5.479380495185419 -0.42703143873418065 -1.9786808837163083 -0.43647561486621606
Ni 0.21539510210755514 8.525645645759736 6.161855733660442 -0.6378349013764305 0.18019859327219934 -0.5985286475776401
Ni 8.876260763967995 0.5279737585764506 4.059814060320784 -0.6073742708937282 0.5163155671129945 0.05503523449827295
Ni 6.484972992368853 3.6175725273462063 8.863840998015945 -0.9603088305124945 2.4140617228564487 -2.3194037317602314
Ni 1.8069849519246748 6.47885410349146 11.811963442148446 0.9188384791828498 -0.19603838851793334 0.0596562782100521
Ni 7.28199773037576 0.2629181628849052 10.577977614421245 -0.05991801651187101 -0.4318190899308111 0.379624667315443
Ni 5.882462067855891 6.116604739815258 0.5027878919908224 -0.4178109485771772 -0.6031265513609677 -0.833819553838293
Ni 1.7699280695124198 2.0939877670995193 4.390220132031857 -2.5259347922793722 0.24576378076751867 -0.21346275464196784
Ni 2.485615225476893 8.086125579143221 10.018870874955722 -0.38030369566033856 0.7641051200612905 1.233912516310417
Ni 0.285824534448682 2.1011280183084957 11.167240540982364 -0.6724663754073709 0.5401759186703601 1.1369217633159645
Ni 7.5431322232252365 7.516353959913549 4.630799243702619 0.3992586394962866 -0.027583566045223464 -0.08559510956300098
Ni 8.94386566520669 0.23292725078478393 0.2937577342314509 1.1536375334087485 1.5930961421626886 -0.06418219110486366
Ni 5.791310122318154 3.4053798604037695 1.481616982041938 0.457292037390935 -0.40526679336357946 -0.5291584845139339
Ni 1.9750919065911439 9.052928591995553 4.193577242332167 0.5154542475539639 -0.3178408012394268 1.5666466897219085
Ni 0.31881732329244705 3.6422244999857796 9.402319003917123 0.8259797460789001 -0.19867711169236107 -1.3516068204008078
Ni 5.157294812431905 8.64608283487759 10.18617373891387 -0.5840852184588005 -0.8644671035208208 -0.5867625081806476
Ni 0.6991104453228795 1.6727593713304478 7.159271761123948 0.19370536950938252 0.12342760702974226 -0.44874877580661426
Ni 3.0874947623666946 2.792553176341818 1.7405007637170902 1.5799680894211627 0.2851484532127283 0.8076791479974993
Ni 3.7490589998693693 0.31706522263817677 8.34414398837016 1.4876418317819153 1.0667735844356532 1.2625780025659095
Ni 8.964645746098352 4.442025486512172 11.886761519735115 0.529168768926579 1.0228730263979608 0.9409229697867151
Ni 2.8454504600057158 5.750678471745357 5.99316660246497 0.4369551256057958 0.896734705305275 0.849293481104176
P 1.2204444202328295 5.000060724040743 7.619758539385441 -0.6248570010595238 1.0533354566528763 0.47859594107503384
Ni 4.125691002196682 4.470605061572287 7.58957542546474 -1.8404509215664109 0.47125004223292394 0.4393449659942111
P 7.663021590728879 0.38915483302373144 6.262337359841585 0.5351288431647558 0.5885355409206703 -1.0355665627052295
Ni 1.4292294510326211 6.8336196668107885 4.736812011164889 -0.9403712110483031 -0.0672014375471617 -1.7512920059115515
P 5.2961722341908875 1.2788663455993814 2.251215355912208 -0.05317555558171488 0.1703489541716292 0.06955168294689312
P 2.343534440041581 7.603392600788639 2.634920756641338 0.17813836830906093 -0.6440004067571942 -0.9127948440919311
P 2.8510586677173175 3.6916305814980848 11.673552133017148 0.3651375294428615 -0.9443723617878961 0.37700497030440877
Ni 2.766536292222765 4.185886383975347 3.678962903052823 0.03330787012351038 0.2168144447230201 1.6516486457856006
