# total energy = -340864.82849087176 ev
CRYSTAL
PRIMVEC
9.33049377282304 0.00000000000000 0.00000000000000
0.00000000000000 9.33049377282304 0.00000000000000
0.00000000000000 0.00000000000000 13.65612077729367
PRIMCOORD
 96 1
Ni 7.962540785019099 2.871226208762947 9.943158296590997 -1.6510732328981048 -0.7525801501408264 -2.5106922642980054
Ni 3.0739498478491196 0.8218429577854663 9.242927129072083 -1.5886373350603866 0.14762554443218445 -0.00383325770316114
Ni 8.457458168369211 2.826850380185884 7.626015065499022 -1.4891251011956612 3.0359951225112747 1.439946068367849
Ni 7.4229863192651475 5.282207149186793 4.991789930944947 0.020704322426886922 -1.152674141054215 -0.8440985671667979
Ni 0.09106095437296931 6.3122656747170645 5.651531420560127 -0.7545174763728554 -1.359237340362872 0.29752805782400377
Ni 5.505373900218371 5.523698990068107 11.026607773820947 1.5378243661735773 -0.14970530977934862 -0.6964645380941812
Ni 4.197136032132054 1.2464793295346805 1.4916035316575957 -0.6019988655144277 -0.698851550269119 -1.3060167904758346
Ni 0.9913463066980114 2.6342409963935585 13.193137240725832 0.763426348826711 2.4084778010107684 -0.06885491399018465
Ni 1.510289711617916 7.984728699307631 5.774681809256527 1.87386780646396 1.3929912968848654 -2.203102194252309
Ni 5.667528552203392 8.686092588775505 0.76299086805674 -0.018685492224645238 0.06323268270740076 0.9130067029924211
Ni 1.4031009986882914 2.1114814195039275 1.8141605688894644 -0.017907219297724 -1.1506581390654504 1.1088157491083679
Ni 3.888893838508875 6.04237181066742 9.589833022959692 -1.44681374202196 -0.7916359784917075 -0.34738894721018887
Ni 6.264782791700103 9.217342915035433 3.6867972086069702 0.6574567893724161 0.48982086325657576 -1.1930692570418098
Ni 1.6581966995497062 6.147087942736464 1.3576055108536071 2.3568353942441282 0.6265991805616111 -1.590845655565615
Ni 7.307689407211582 8.261097926063853 11.104692810447466 -0.33627509668521444 0.12198573237689314 -0.445541067502594
Ni 8.881333171823242 6.848330535784763 8.615769589952448 1.5044730444066412 0.08074395211828675 2.038267742141006
Ni 7.977385600676397 1.7780748840657072 3.2089154408615688 0.3984968216295976 -0.8809316768347474 -2.204374118986197
Ni 5.854763571559136 7.161751153474442 12.63484807644373 -0.024351175150854838 0.47626420761806365 1.3610337701416626
Ni 1.7066499539232736 4.887592574331935 3.1849080802794028 -0.04813233673085259 -1.5771997826474062 0.5105892061521787
Ni 4.911403994544017 0.17016394787454178 11.781135883988831 0.09542777938270663 0.30437516265282416 1.2460820617934154
Ni 5.596094291567145 2.5434552915880877 3.1017827108948253 1.7963179358029386 0.25210180717040453 0.3823958023026769
Ni 4.019287489552704 4.507113697604546 7.688751439802313 0.4574223923212122 0.9987118557707251 -0.7396737264918035
Ni 4.482807761220347 8.339054201875745 5.020618357680555 -0.798277137957309 0.17594701708469698 1.3154195718469734
Ni 5.2693683896994 6.906310224341927 7.82675970684735 -0.04296261960445504 -0.06556878703974514 0.19028914473898198
P 4.017925237455931 7.535894624902455 11.627108092115378 -0.4299000185312274 -0.4265393295891105 -0.9076528948796755
P 4.7526176508256714 3.364174857918407 1.065776588897777 1.5259936920872366 0.10483441740858719 -1.0967328498019047
P 6.9067300965635345 6.367231613772463 1.174456314738801 -0.8989147436757293 0.9607731717434228 -1.6630275770465037
P 7.494719155703427 0.7191067565036496 1.0251525518831277 -0.7864027551172262 2.98920644429251 -2.176777440314851
P 0.4170282870936767 7.383630296359755 12.061399658862815 -0.7092997421856365 -0.42014602446825705 0.19508836589983822
P 2.0404110481264075 6.024205339212512 4.93368334767192 0.37957118836968823 0.15658892427305934 1.470523426934074
P 0.017302467727776452 5.067428512093563 7.508271697967553 -1.1509777271883985 0.8266945127577376 -0.2245483230321681
P 2.235679622655584 1.0621927462240073 13.592606471511862 1.338689083897875 -1.728729033009371 0.6762345842005515
Ni 2.546664981459936 0.7976947067467162 4.732173605830885 1.002540742598512 -0.7649253019697407 -1.188468782155321
Ni 8.12144842515702 8.102013006543475 13.592633529943921 -0.5756368305811312 -0.772711887893695 -0.7417347227858903
Ni 3.0763197932777517 7.046025038705453 3.4429400875439304 0.8605528560680793 0.18958723357595092 -0.3580855076920865
Ni 0.6079245922218418 7.189826609359298 3.3540111510073487 0.40087432072283863 0.785820400251195 1.2329095289671992
Ni 7.669740558657282 0.37092631716111446 9.006880564380333 0.2697115498323678 2.2253134402420254 -0.4429815343055339
Ni 8.075617039545051 8.59066962854472 2.148462831733782 1.1937904514785507 -2.3863511443150576 2.902069701274002
Ni 0.16569277523910686 8.829213033380965 10.526246980380034 0.2160767952260472 -0.0364520721794469 -0.8369748116378231
Ni 0.5472045376316506 4.963552124467734 12.630109118635847 1.2384281447925831 -0.0337567847354709 0.32036382477159664
Ni 5.710598111646564 6.755641410241336 2.9100783850024103 0.5500219582265043 1.8334845175509071 1.379027635615922
Ni 1.2334819516524587 5.523661668092853 10.23688784013664 -0.25728643669513757 -0.2724667439800017 -0.030813642946746926
Ni 7.120174473041432 2.058064342421572 5.427215152690725 0.916583364600086 1.5802889630956913 -0.48620434954991104
Ni 6.953550514519737 4.823753335659886 7.658052249057096 0.2579148143077558 -0.3195104756323659 -0.3309135752629849
Ni 2.646743858103664 4.051048490493899 0.5877063451773429 0.2658824058942647 0.055570023955820426 -0.8539978285583808
Ni 0.17526586189177007 0.5441590644509202 13.053148109844189 -0.6098247893167498 -1.1807482735826116 -0.1680958964713944
Ni 7.850136326047722 6.053773674107531 12.477966086512723 -0.07781932227232405 -0.3536714377847909 -0.561242252422356
Ni 7.556104474502521 6.876573940558264 6.804175839911081 -1.5179677364589665 1.3728263919012165 -0.6428374967973445
Ni 4.596919700559598 0.532040619085931 7.479648542095842 0.45047527157941775 -0.52856301702178 0.533723735287113
Ni 1.290015413668527 8.443238495797418 7.852746998216742 -0.09427489672518603 -0.13964638288144984 3.372597777739237
Ni 5.277411275366648 5.88338952657899 5.777591057227579 -0.6933977262433995 0.26364811724710724 0.4425917550662829
Ni 0.48500653282139894 1.5847190607683002 9.290368024866883 0.7351295587645469 -1.8876435200918136 -1.6732083742342474
Ni 4.347478278949171 5.5212823921704075 1.6566515697741888 -0.5927858315565919 -1.6300740049386184 -0.9577559821836538
Ni 3.3611984303918967 3.3462229878212097 9.68565812747384 1.0908794763449212 0.6987939575583062 1.4610987911860642
Ni 6.87167543130617 4.572184561459978 2.462799703915947 -0.03840353947886289 0.1949706093750513 0.47403763228039003
Ni 6.748214337165781 0.026074064961858982 6.234634100089883 0.014921140086206562 -1.3107831015162266 1.464314984130517
P 8.569172170798389 3.486749555146513 4.2740519578837395 -1.0835564603209469 1.8337555118241062 -0.09222469906437665
P 4.432049874874843 0.8565710557593575 3.6588029280182903 -1.4743731396974673 -0.8516051599564882 -1.1812324123078817
P 7.014021444925108 1.1052623056671782 11.324270120508984 0.1324452371473203 0.0003208736745284796 -0.8207606637718058
P 2.10760926457132 3.088990603876501 4.526758119279514 1.4433214125979852 1.1789251043309439 0.11686666598277293
P 2.6596012785786836 4.26848631832398 11.798233080852711 -0.4671349916232858 0.3526910761493926 0.21241965808943417
P 0.5936377400945925 0.3881709358272471 3.2753112348385196 0.51902550984499 -1.4242561684364181 -1.0524139732798714
P 6.532539972666453 7.462976815749859 4.909102161720223 0.5785984843126164 -0.14084374562366064 0.2662696140303543
P 0.4929495822048416 4.0434068160606325 1.4436569230981018 -0.6542963893665635 0.3876028004249131 -1.4085989215151353
Ni 3.9840368839252562 5.686982631804565 12.81412511762593 -0.8433832862673282 -0.6275232350377773 0.7400601632969448
Ni 5.302062440021945 1.2936356452681697 9.75941474802027 1.126397723856189 1.014299682906653 -0.24524827458368084
Ni 1.55892024537394 1.0287895783716345 6.809187248138318 0.644026117788807 1.2983204502728416 1.0506813068594807
Ni 5.908423241480643 3.0635183557656136 11.416872472459946 -0.7882431507600747 0.2609255761096216 -2.3841330536178162
Ni 3.5617200729380807 2.3041467862591345 12.214581174947382 0.5737046465554249 0.14458572916459617 0.503151776037527
Ni 8.884533531201278 6.057076668917515 1.7067553885033664 -1.578416942883959 -1.1261100174124412 -0.3290672660828655
Ni 1.9421516177763136 0.8054455479576005 11.298050499843635 0.04225042402877885 -0.08519735990395004 0.5658555828246513
Ni 6.204955665367865 1.8371555708928642 13.286476701688063 -1.197876448622466 -1.0964369158280407 0.9806400858706787
Ni 1.4617804742814675 8.583037284605266 1.5719558782807972 0.5016114281336005 1.218863078176462 -0.565609014031484
Ni 8.45373530133762 8.833495730041367 4.5584407440726755 0.6152570160759145 -0.4903024308786846 1.4991269496033794
Ni 8.475130123652002 2.739843525374886 12.04590077558919 -1.5180243007285146 -0.40463918708190955 1.2951469376408662
Ni 2.324440610303523 7.44369068503733 13.084994951328467 -0.1297988006634087 0.9639721382966946 -0.24376706205246404
Ni 3.4425136839766526 3.141931825774367 2.7851794617653587 -1.8567218908122927 -0.14335879873603052 0.7238231326127921
Ni 7.660027514597417 3.206741435803021 0.7206098990570063 2.2181313206712896 -0.41084737277515054 0.9375491682184758
Ni 1.3447294293909609 3.489306110451415 7.473995195894235 2.2852970198845095 -0.6666227721424003 0.18436995104106957
Ni 6.087428765292868 4.514335499816204 13.048355035172188 -0.023390096789166166 0.41945285505597446 2.6537253042635007
Ni 4.700609478309155 4.760296647234191 3.8695713188704737 0.2011461420581439 -0.31449219648216803 0.5185621970553264
Ni 1.2508646616270311 3.106074738049041 10.6050700590672 -0.8041009437279377 0.9200075597902864 1.3437706121858408
Ni 2.1252438978788577 6.177766606395291 7.754259903817599 -0.08395243175325541 -0.3539966823346936 -0.14368687149941062
Ni 2.2834237594993247 7.665037989775273 10.265797442168424 -0.5928225983317983 0.9212889976058714 0.18608436262901498
Ni 5.717120126822209 2.6548800487090465 7.6082889933521125 0.6572282183013778 0.17818027729058988 0.7991356293028624
Ni 0.5535707335606097 1.847409783593914 4.834921936754659 -2.9010312327071586 -0.13503613780294807 0.6177481579288845
Ni 4.736643845416938 1.6800860380362053 5.563858368490844 -0.46321534485390553 0.9363389499604583 -0.3851990760794269
Ni 4.649459711223483 8.340910970144634 9.679335784865804 0.5998355393145218 -0.2611394918926405 -0.49735136730566604
P 3.658645242672842 7.513044245553164 1.3966937485865525 -0.12264393478618232 1.26901733043335 -1.0407151967857045
P 5.634545256572628 3.67697033252258 5.691228939539094 0.1728426671277604 1.530205930396371 -0.6869995360265394
P 5.66738859479619 4.248565714032132 9.273338940607843 -0.4330899862234348 -0.5301308757295322 0.5902383825443899
P 8.74484670831919 1.1623462668182438 6.729422722625368 -0.16426315298886549 -4.090461350334484 -0.862147968469341
P 8.318069921289156 4.6736536816819205 10.871474318430591 1.2761518845956021 0.925567313266251 0.6365490926854714
P 3.521244390775066 8.101518490371358 7.320786621377608 -1.8152394552977897 -1.198618211884497 -0.5193165587228475
P 3.380036697401377 2.5040339552260003 7.776833167500628 -0.5997306383055413 -2.241638145543978 -1.2062453894124516
P 6.9588968874748796 7.834741011255427 8.797546270427286 -0.9106060639707285 -1.2025766823116129 0.010995579779555257
