# total energy = -340885.5467464291 ev
CRYSTAL
PRIMVEC
9.12754508680404 0.00000000000000 0.00000000000000

0.00000000000000 9.12754508680404 0.00000000000000

0.00000000000000 0.00000000000000 13.35908486093731

PRIMCOORD
 96 1
Ni 6.7615026583662905 2.301583448970446 11.719978406616978 -0.334062919525244 0.5665384678242888 -1.2596865399507273
Ni 4.488771378600056 0.39728095245109474 5.7475054482320695 1.112307307201394 1.45342379113931 0.048543456126342206
Ni 2.694122641882917 1.7669283830717126 4.966760820691897 0.26662288360471503 0.6781086612948127 -0.7176833382636414
Ni 3.610126530733868 4.480118466102241 5.094487119255369 -0.3612860169072552 1.9860280681099989 0.17039086315315816
Ni 3.6467462405874898 3.373330635237234 3.2429975098706234 -1.1753566702533953 -1.2592347971252895 -2.1018830049988058
Ni 5.602989030955802 4.567843299452977 3.078654239716979 0.06014967290670285 -0.2799324562294276 -0.6230271469396367
Ni 4.779574956849401 2.961833531715099 0.9517583074547906 0.984241430068692 -0.2553555382210118 0.6702806806099618
Ni 5.9887099478810715 8.584483294232392 12.442370640065874 -0.13665644701519045 -0.17113776862151173 0.6479843311056065
Ni 2.9643709891775383 5.940899868067196 11.451661447808156 -1.232515121742258 -0.7519615427202211 -0.005842317713389939
Ni 0.8172182966765311 9.101047566280208 13.213242915119089 0.9979001585027072 0.7021353632267134 -0.11567701655004593
Ni 8.115099301405255 9.430670592686944 6.998129694283589 -0.28560790934765 -0.29485051099184056 0.10964957940904341
Ni 8.709457638029944 2.9525873288034044 1.6348582859241585 -0.9361556303050587 -0.8036767117063256 -0.6247708691036208
Ni 0.7291484421312617 0.4707558628149233 4.844605062737514 -1.3435608101678798 -1.5652778343988398 -0.6723627599499711
Ni 2.0916042801811745 6.833719793052694 0.2951747594679144 -0.6194736252604235 -0.2378725509449 0.162866529751655
Ni 7.919970648052634 4.266460896746915 3.803290936439306 -1.4885201206218106 -0.5772802797218252 0.6925616034953491
Ni 8.009776561624363 4.268094727271292 12.95000269674411 0.4825703523417496 -0.5942963546638476 -1.5158296070700408
Ni 8.486188763969768 7.600168859881815 9.252501830380938 -1.159644401724461 -0.9681704926487585 -0.04261269246420404
Ni 6.6945247344116865 1.41406662753055 0.46293264414205726 1.1014130288863935 -0.11835276360999618 1.333171753624072
Ni 1.9966960690500795 6.691914256590615 9.378945708895944 0.2198465466811246 0.5797241132766274 -1.1520997566079834
Ni 9.428753808272871 5.34778287753924 1.4516383403098274 0.38464346068627303 -0.3628230223770719 -0.13850584151910342
Ni 6.444758597713158 2.584665124294526 7.452418553472661 0.5168814669187937 -0.5824556532751776 -0.7517885074774665
Ni 3.5032064706079162 4.688317763649874 0.320219829723984 -0.550279068542633 -0.029648418994052163 0.460059315723427
Ni 6.338112363932074 5.990772773012408 4.858124782138108 -0.2649220988635244 -0.23277713869986363 0.8748001100157129
Ni 5.508427666528206 3.1576832611092045 9.632327266101209 0.3036539682160835 0.33564003420437677 -0.06645401785817588
P 0.25261758170308163 6.040180173171343 12.60528453669931 1.5875492442025305 -0.05002415443692675 0.39442522266338526
P 4.301930535952093 6.537731769340523 13.003064765852546 0.2705692698469727 0.3919896166386991 -0.8972072740663194
P 2.5378043091428584 8.865502144425136 1.209814993121425 -0.39938719465435085 -0.18482837873472685 0.6149610821020506
P 6.340576801035882 7.917323660052247 5.972886436165658 0.3765239169029322 1.9605214391984624 -0.5070038027937656
P 4.617241572067084 1.4658106791656893 12.70818938985502 1.1232267823273752 0.10549133426629574 -1.4723088009692709
P 4.236650335335667 6.599826456811656 8.15466538272965 -0.23481525217581492 0.21900348195453898 0.297950490073403
P 4.459252898623333 1.447473441604392 3.5362965588761948 0.6899853581277408 -1.1907629775061364 0.5157728072356472
P 0.30162154438057953 6.1469450650352035 3.6462688699929373 0.16356227026709894 -1.169823913360624 -0.34922265798481794
Ni 0.9113953914668299 7.767960516471824 2.3561013614790935 -0.11668334632737323 0.2838248493052983 0.4112687765832852
Ni 2.199236288803782 6.64182229056951 4.746175444811422 -0.34043154205574916 0.07929256438374085 0.36136315000209374
Ni 5.93065876276915 5.800052723812154 9.542688386599849 1.1659595453092113 0.5331465226274044 -2.1446628191684938
Ni 8.945048697609161 2.7180002991553684 10.409932930974716 0.17445937679557696 0.9256727284958637 0.40382851825515614
Ni 2.471355782788331 5.541213807553682 7.21231574848451 -0.20628449172597374 0.6592316218846518 -1.1797990222954648
Ni 0.8021240757929485 0.16623814846012794 9.18821835765983 1.4719347054593037 0.9359214028070655 -0.6333948633272058
Ni 1.9395576384210491 1.6017380767579443 11.045638132919922 -1.1829128853340982 -0.5541753182732456 2.6200456526228684
Ni 4.200742573978702 7.175619367254325 1.7569866612440543 0.44946302826481943 -0.03165722189396483 -1.3372544083338775
Ni 5.7267220286566225 8.615662987367976 8.241607072734066 0.2750913260870424 -1.1167632860902186 -0.697262094294812
Ni 6.927423168266372 1.2398217967464946 5.064842679160007 1.2396887566725618 -2.4350041294360705 0.7755758397050514
Ni 0.8304130754812158 7.588540367769772 6.838394921514066 1.3437078772687052 0.7438165450155836 0.3577438080819516
Ni 5.003400611144142 4.941607132652363 6.859836437071678 1.2426069587606212 0.2528721096775258 1.1080937833406788
Ni 0.7468175434110822 7.8522168827875705 11.135344556253017 1.6185341226198189 -1.730036181856569 1.4329488111144095
Ni 4.8759618302427805 0.9272764067146654 10.336912572343367 -0.678210991200632 -0.5823983176746808 0.7946559962649541
Ni 8.255234497163642 7.586194588748739 4.792010323924319 0.035893628572815604 0.8631203596849394 -0.19736739174200205
Ni 7.889365990241269 6.92651041378348 7.102638257065741 -2.8489404255491904 -1.037311056200162 0.19894476353145094
Ni 2.533587383431898 5.42931010795114 2.629188375215508 -0.40176700774043717 0.3390385183629645 -0.47803492636524125
Ni 3.7095620041001074 4.709174203583952 9.16433157284255 -0.7866585798817742 -0.5349321537729175 0.8246648839222185
Ni 0.9294852725632636 3.66632482424552 3.6522538011372587 2.623582976352165 1.1367654402437584 1.6075943357788636
Ni 1.408215871295213 1.3663386956201347 2.43811326452141 0.5222265332807909 -0.5880902258531355 -0.04441297889773641
Ni 1.0414619925244364 3.83082143715229 8.07381632889854 0.8672726912904161 -2.282312483334889 0.36235790981519533
Ni 5.504831413865612 2.922922808109419 5.199596274487264 -1.3899142006214384 0.7761206564649279 -0.6087852923086419
Ni 4.2932046030956466 7.29821142185153 5.986125939940004 -0.6621410822219629 -1.9731291006601435 0.1382369041284329
Ni 8.48633480468703 7.535947454465543 0.5188306414288374 -0.7979470083114 -0.4177788097876612 0.06083332923728877
P 0.29591500335353965 5.75703460503346 8.052362034778167 0.3637326786755349 1.833577077264713 0.9240351928924408
P 8.890082622649414 1.9457917515392007 8.298102011452658 -0.6734973877750465 0.05973958195247776 -0.2740834536478183
P 1.8415369345032928 3.896393719203241 10.366529629804242 0.5337931550724677 -0.07869889666379995 -0.8638878339785832
P 4.307799547277087 6.274575524377972 3.6754715369185793 -0.5514095826026504 -0.29115609285938887 1.5416550527735773
P 7.110813798969003 4.416700284630915 10.6706758530845 1.0341856231973028 -1.4471834666565528 0.483101028034239
P 6.761584806269751 8.148615646017044 10.468432278537737 -1.2862038695149656 0.632139650763866 -1.396385667278395
P 2.374749848319057 8.63825366081955 5.850704208331272 1.7960693101272422 0.09700977915784584 -0.45731337754717366
P 6.721697435367377 4.059502945296016 1.2653442375971167 -0.07364976427566672 -0.8831379404574468 1.5188511675051843
Ni 2.599342216379427 1.7504166544761988 0.1724293621175834 -0.07032661343970469 0.469136852544663 0.4503906822854114
Ni 1.4166223400826472 1.1335406647585669 7.02679839983674 0.43177949494212736 1.1846648350281983 0.5445763617309008
Ni 7.090176420110818 1.09755988304297 9.275680317719491 0.234549400108938 0.42832547495525586 -0.22549268922330842
Ni 2.834577301710316 2.039768953097746 9.09233988851342 0.46138549073401824 0.19923838351246978 -0.7222030805108659
Ni 6.543728566293122 1.970399612397965 2.9888008629121385 -0.6575403502251579 1.2064639331811609 -1.5810027013332644
Ni 4.485941839703091 7.349398693252106 10.2884991618163 -0.40401415190340095 1.80848928105815 0.11692323025232121
Ni 7.498980897908423 6.498273393045109 11.62456726776581 -1.2158641434491382 0.40266149453024846 0.17869604058474386
Ni 7.851532316925402 4.16168580965576 8.612174439734364 -0.3547063068072085 0.3371382160164581 -0.5701135867700569
Ni 3.4453652190270594 8.46590735935991 12.40253438341454 -0.050360968951055206 1.1057224548950246 0.15251218310052445
Ni 0.0414454428046705 5.435087843827845 10.480455993340872 1.3375837666488382 -1.5897141130643333 -0.9413605715447659
Ni 8.661328094147057 2.6897961856340102 6.012590343416971 0.777052424250578 0.40729230843404046 0.051957109793581494
Ni 3.699713383229704 3.3522094965031166 11.365468216479712 0.36794954497035987 -1.2198256992000476 0.42394945737474726
Ni 1.6237537148852959 3.911819269964113 12.50450366322529 -1.9198283323544743 0.12963167895792513 0.7952622623903852
Ni 3.2702167613049413 8.772072595556326 8.10627935483707 -0.32329642503735934 -0.40649243824056447 0.11528158088384016
Ni 5.622960099041476 8.131163780304151 3.5923917111312798 0.4935127102858662 0.604944835516629 0.2007512206125704
Ni 3.048444804596707 8.569158146464638 3.4040548638858574 0.41743428196404886 1.2765020688461692 0.8096385857167153
Ni 3.4722640936378824 3.0924395706720946 7.089158698862394 0.9224930452163015 -0.10798530433274306 0.08588512999959402
Ni 5.297097621104254 4.995423136963667 11.606372419903842 -0.5105907488140755 -0.2930247706370115 1.0026939803469248
Ni 8.014121272962928 9.208232325206199 2.847916295723298 0.21818972780399198 -0.43475117597594165 -0.3513983254798981
Ni 4.616894725363586 0.46940772444369205 1.3512180048565483 0.36176012833019633 -0.48228933076622105 0.8200996331490393
Ni 6.25180230002982 5.929170972962036 0.27122682010028076 0.25036965497064617 1.071875938659225 0.8973612831456803
Ni 8.42109111424992 0.40424983292797406 11.007899386070276 -0.6476876258007943 0.5689187951310072 1.6163574266834744
Ni 0.046982211497892494 5.334821763882174 5.717620953707707 0.26777370937970657 -1.088381906734048 0.2963934299989283
Ni 7.4074498783640275 6.243277173159609 2.597099578614962 -0.24969371194954415 1.0419629531498764 -0.3946710201256041
P 8.886431604717846 1.9650691262178765 3.7322476040179016 -3.0636763904766267 -0.5408333497487008 0.09638834352376302
P 1.7634599160367235 3.4301678568869103 1.7279437263529185 1.9933965926599284 0.6943896578430234 -2.1341048411469887
P 4.675712624241137 1.5376535845141073 7.954452686907322 0.03506496202393316 -1.1936567541141636 0.8249585039032373
P -0.3152480560556721 1.6999687142067659 12.741253920997776 -0.8136425646697858 1.639028643028745 -0.035708509145203016
P 6.649233856970592 8.039295041601086 1.4209661386667296 -1.5221169827406495 0.8925484351380693 0.5253684213438823
P 1.8309124723224315 3.603673356539823 5.930044479002163 -1.8025158370835344 0.2419940293124413 -0.9379086084404235
P 7.023417557232109 4.228882794686258 6.153782508866547 0.24215009527433135 0.9056649179153693 -0.7043544823652192
P 2.6730562684177737 8.832670365675517 10.373890081954281 -0.08753706378072021 -0.7252248980563253 -0.9997343834979685
