# total energy = -340890.93207168055 ev
CRYSTAL
PRIMVEC
9.06428024234346 0.00000000000000 0.00000000000000
0.00000000000000 9.06428024234346 0.00000000000000
0.00000000000000 0.00000000000000 13.26649036615571
PRIMCOORD
 96 1
Ni 6.174342872731712 2.0104029418586133 11.475209112320403 0.8054417740265483 -0.08848425818533794 -0.47963440964187726
Ni 4.605388500601757 0.36401242478200513 6.158729650248905 -0.1659269138445336 -1.4293299834148996 -0.9528950545469266
Ni 2.92856013092877 1.6042688074234301 4.928726781263532 -0.8769564942370832 -0.41521079195016886 -0.7993212629511073
Ni 3.116589557450295 4.2229574586441 4.7360437533355215 1.5377852854055258 -0.4279606354166694 0.12102825355963026
Ni 5.0747278602169725 4.445186414006046 2.664136951672796 0.6994285058185116 -0.8290879526905786 -0.09450269646527595
Ni 7.0911494840660545 6.106442350456705 2.7601729993972253 0.557765349617349 -0.20072113870558334 -0.89088210317924
Ni 5.15934291500768 4.462979595854375 11.571151797959741 0.298322528700841 0.5078242418125318 0.2182568335965015
Ni 5.513457145913793 8.352996981920278 12.268398884423393 0.7000561121001815 -0.6554608419883099 0.31872268962374783
Ni 1.8762153391674905 6.54569736439968 0.2980262784654126 0.9008523270180743 0.7499815361757148 0.6220429286494965
Ni 2.6274810029236138 1.55000096242804 0.6343663625114188 -0.5460251783622854 0.49386263742611725 -1.6674025661857477
Ni 0.5740943383737295 8.61653186172585 4.424122839895425 0.9460047551849966 0.094318862589244 1.0460502358453725
Ni 8.88361087505292 2.480168322638817 1.4767198834820354 0.3207541182314798 0.25600679865176557 -0.47889547459332366
Ni 6.716785651402851 0.8239503130711446 4.752441942475518 1.2738245220140063 -1.4540737660184828 1.1836438499628519
Ni 0.503706577637601 7.254025533293074 2.163260242284329 0.8877841809802066 0.5382208518265182 -0.08505723478165995
Ni 7.84648500958983 3.803408189651846 3.8516999547732658 0.3817283439220071 0.8416285083597506 0.4330897291131186
Ni 7.674635323057744 3.6748766977469476 12.761514757184992 -0.15182312745329982 0.22748915082804694 -0.37608322982108777
Ni 7.912500161602763 8.842903193096298 6.879709741314433 -0.2623437966133869 -1.0030410792736983 -0.6920720654534404
Ni 6.84185458830721 0.7518086141344803 0.5600338270731032 0.5173555783417348 0.5562358003467002 -0.794024276218226
Ni 2.0029249107710574 6.571974712427346 9.485633166861643 -0.2819363740333338 0.40049893966129085 -1.2882085586498202
Ni 0.020047468310723893 5.0591463627145385 1.1754241191823425 0.16243612708245572 -0.3219072579993166 0.5099657136355669
Ni 6.307279604768189 1.8866211327293256 7.078216569210632 1.054764218679603 0.6795081127455007 -0.2085185232628151
Ni 3.761431508480366 4.643340641406116 0.5059536126759101 -1.0296298855058204 0.6058863734942921 -0.3140134570735366
Ni 6.0294050338347205 5.745928737795665 5.015608812508783 0.6073516451859089 -1.715192689085833 -1.567419820442507
Ni 5.446299894607488 3.0866321116995414 9.258657248008115 -0.4099428586830101 -0.8989139723447809 -0.018272315946626597
P 0.23175098161343452 5.7623260205076505 12.380354527298215 -0.12309722027351701 -1.0312406816363657 -0.48575723471016335
P 4.061685786995865 6.641805926364958 12.547034854885775 -0.368243679172011 -2.2786324633801405 1.684258718511138
P 2.140257818659007 8.569587955056212 1.3812004997236558 1.0795031161871795 -0.4263205287100851 -0.229696700002327
P 6.109234148729392 7.8049071567430195 5.860312701310919 0.8306897499600597 0.03296951294748515 0.36581167269175063
P 4.677839291490041 1.3876234486068584 12.769487697966342 -1.0930312325806013 -0.7976361619392005 0.6705925554234258
P 4.039487365015957 6.1862261439508455 8.184509236879554 -0.7978675612237163 0.27255544703906603 0.6557341502543546
P 4.775271238350814 1.0656602192371822 3.8883812835067455 -0.34001013824761445 0.6433458038923308 -0.9599136519566048
P 0.21505548408595684 5.886361629479911 3.667362409538967 -0.7948514001052117 -2.3505829855765135 0.4388124905295088
Ni 1.4082628144085123 0.9712104205313257 2.7443195734916066 0.3056154628178285 0.48305114863291004 -0.2730640112443684
Ni 1.947415259401128 6.260208798177064 4.789415141028415 1.2269538256043966 0.7792504603431613 -0.25991796078071366
Ni 6.193504760876066 5.490161946041043 9.18188370193722 -0.08867529115022148 1.1341917659793113 0.8115656275360991
Ni 8.450075421856912 2.1950695204607644 10.315571343370893 0.6421450987160102 0.47448731822329904 -0.347209227099215
Ni 2.5368563304225433 4.898119426629169 7.19305102744716 -0.46714501892561483 0.12655329714291755 -0.2065691128459281
Ni 0.4105339359986979 8.956007280260566 9.404840518991689 -0.11476658892063461 1.2591352954329478 -0.4840585068515018
Ni 1.4502394955799924 1.2111691077808593 11.404246676225547 0.45329088665134193 -0.05130944890725357 -0.11926704789414944
Ni 3.9244797790294013 7.202875800654192 1.629920720123773 0.7479763328202279 -0.5565127081571707 -0.818385735781726
Ni 5.404450113357495 7.828673699181288 7.992370065757911 1.1079608573072401 -0.04347195514070578 0.3969053087727616
Ni 5.693165563297892 2.940733459111301 4.686453983302905 -1.3233136298830694 1.2168041387649045 0.8231972982377566
Ni 0.7472030534125566 7.2013892587167865 6.532923980874124 -0.658524311404982 0.5760152969664724 0.9470609643636528
Ni 5.093173670232944 4.587559061633002 7.220393428387295 0.4819892830272989 -0.3534274400947849 -0.3761410796422167
Ni 8.19138086762801 7.213580715459529 8.948712347631155 -0.39734111075859957 -0.6848668059542528 0.9688821740038024
Ni 4.522477530471002 9.053974019647601 10.083447819845098 -0.2820371612772562 1.3549631384675505 0.3322266376474537
Ni 7.9113671265894965 7.144529029611045 4.774383845328423 0.07929282149405699 0.6156565655071785 0.7437715507102609
Ni 7.5586941162202566 6.10881719184451 7.074395975145898 -0.5538827267334913 -0.6724717747240097 -0.9158403157864744
Ni 2.2365657947866198 5.25378364943343 2.5355311326710273 0.24214109641326684 0.952457709899192 0.20419418485584834
Ni 2.440883732658857 5.305259696156132 11.602606662784027 -0.25609858703462346 -0.5614651670664395 -0.20086357782071856
Ni 1.1606810675897248 3.297494459808403 3.5982173616053887 -0.38418914675767385 -0.21117035906336534 0.42537796229115776
Ni 3.3065859327548495 2.5808452817775835 2.6067591521729936 0.7887907957334286 0.7307376003444382 0.5354034369823811
Ni 0.9038718836228987 3.183357044712036 8.175872790794436 0.6957276599281567 0.17229605059567102 0.07551715650170865
Ni 4.045478854166108 2.5707476737393566 6.836195758236953 -1.5606580762386413 0.7784428768402013 -0.10765028959082751
Ni 4.193018141453558 6.521060651071223 5.937311947956458 -2.0056152462133072 1.8304719559768283 0.6098394446047691
Ni 0.9187191744367369 7.572671236143907 11.534708859793053 -0.4922035045561395 1.0734831352453449 -0.31045325052610406
P 0.5621639328980433 5.659781819667022 8.015997924710556 -0.6653529042910412 -0.7137752614584868 0.5543311271248196
P 8.544924048887436 1.4184148081273762 8.101566541768427 0.4110995979952727 0.7459945265035088 0.2894769053847531
P 1.7532674438079665 3.3320021741724335 10.35604788618481 0.432198584757417 -0.07138205128741254 -0.5846632024494577
P 4.1092913861132505 6.009934960166757 3.564613355967939 -0.6531900436762621 1.2869569456309062 1.3992521901929127
P 7.119194366714416 3.912931886174194 10.521083046933107 -1.1148478142350604 0.481041574402049 -0.3137226653059952
P 6.375424862606061 7.53714832240799 10.2308121665265 0.22504660282482536 0.33823941950043684 0.07519911104065759
P 2.4792165732276734 8.311346614832619 5.682740734747835 0.2613760333834789 0.053904720438255546 0.05558673612636878
P 7.185436125730001 4.075934835322699 1.6680224215498833 -0.6270979745749006 -0.08525623816634348 0.9038651457024691
Ni 5.5517446650820785 3.16330685711728 0.5929679824107098 -0.5004359197682607 -1.2785916043853462 -0.22821240214731664
Ni 1.2539343813215724 0.7107809630901119 6.6959296493066605 -0.580073011975614 1.3824430890553738 0.5196808840408017
Ni 6.972108293432273 0.4578386010165601 9.178222639202355 -1.2897545629807015 -0.11630179461823842 0.35671613814838565
Ni 2.9524354447283123 1.9773273837513512 8.987940739074457 -0.06256008212040838 -0.6659000350437628 0.32689442680126285
Ni 6.783045538978649 2.023111062567405 2.6900861727606205 -1.0683892656622052 -0.07500190742818696 -0.8259393797592679
Ni 4.167955406960113 6.798454815159067 10.465761932589388 0.9441067668313353 -0.1311252327843161 -0.6341764786882369
Ni 8.044766136911386 7.244743710464398 0.24817092502568588 -0.9662768751704713 -0.1506159945190761 -0.14221260094672927
Ni 7.67476222297923 3.6423540607261593 8.291901014720942 -0.36058719106801773 0.4130371813376177 -0.036961150605381514
Ni 3.150816279131035 8.639328526192763 12.459131279272563 -0.6983792386183908 0.13652686341586165 0.10119707776631603
Ni 0.15739125333480067 4.956330233470725 10.205526450742445 -0.14556969034442027 -0.3512265757887241 -0.14487472115992467
Ni 8.35458323093885 2.2968704503326913 6.149814024336518 1.4924443953768811 0.7445886472949176 -1.8335611364251132
Ni 3.661135249106057 2.679809091976292 11.25863354846065 -0.22848545330304518 -0.4424354319940768 0.8389113665389035
Ni 1.0168309423054693 3.3579713366764907 12.479840440031035 0.6723367918080422 1.0365680073865502 -0.17268428717302517
Ni 3.002044249749152 8.506409922716498 7.842313627884989 0.11977355521692273 -0.37434747807690366 1.0441949278041887
Ni 5.5764085712508535 7.988186900488933 3.592194147474866 -0.4917928993812821 -0.5730276750930584 0.1716432475030205
Ni 3.113063552489011 8.390069887554342 3.5645335903030055 -0.12277069017203372 0.1121270944152585 0.35053880569308016
Ni 3.593307241071899 4.584504399237238 9.591274632214533 -0.227099371588796 -0.8731198940998125 -0.7248050369100872
Ni 7.22165698903409 5.861099480824131 11.62855588387185 0.03455768337021146 0.7774776847134546 -0.9399446650338457
Ni 0.21934651428819796 0.06886042953824585 0.5420421374904493 0.8748260781576417 0.7441770136787959 -0.45822740472101087
Ni 4.653891463449649 0.6132293677319383 1.6980043408569236 0.010115234057130967 -0.1585974700626559 0.10839925194171007
Ni 6.008702218072323 5.715889713523956 0.5379260478942565 -0.4065001515500483 0.7348781048753731 -0.3908418761875011
Ni 7.7115450716498986 9.001473709272906 11.469583820086541 0.9770019748974592 -0.40406403130472995 0.1602357769970273
Ni 0.2915117803531382 4.663617436003525 5.801674966876364 -0.6224193381523087 0.5006380084767378 0.2443633008755663
Ni 7.886766670381464 8.667264637479851 2.7852602074469566 -0.9842496575988081 0.7122441695259412 -0.85067724882558
P 8.678803466054951 1.4902039065679118 3.7921603244681514 -0.7230348323835418 0.9957707708645303 0.41234169793248987
P 1.8702238500173398 3.6848655344239005 1.1896060918363907 0.3106108591498909 -1.2604226467858035 0.6408775448574963
P 4.88097887294848 1.0601038155321256 8.271908838518865 -1.1689165710550062 -0.15994935610486002 0.6580951942873634
P 8.697566525874638 1.7076831791542475 12.513590380578194 -1.4677250382533302 -1.1586779240461333 0.6004914277309658
P 6.158063425661105 7.934462912299911 1.3875155836735953 0.7918501513850427 -0.9626153671584841 0.28068733211758107
P 1.7740609023714249 3.0847739342777847 6.086174620139402 0.3456567950104305 -1.132123827706689 -0.04407770704550473
P 6.952402548481549 4.11800215929524 6.1829675352526925 0.7421065043030123 -0.5836391320603175 -0.6215515908353747
P 2.300668383697159 8.717081920943132 10.124441026625062 2.0228046135084004 -0.47425257650467356 0.5141933785636693
