# total energy = -340892.0588920932 ev
CRYSTAL
PRIMVEC
9.04294530282321 0.00000000000000 0.00000000000000

0.00000000000000 9.04294530282321 0.00000000000000

0.00000000000000 0.00000000000000 13.23526452560381

PRIMCOORD
 96 1
Ni 6.260331537067033 2.045197716677234 11.429193144629647 0.680806262731634 -0.06096059884377243 0.5272245007160146
Ni 4.392456934162151 0.38952667603482055 6.0457894691581 0.7748479604000914 -0.8288069311150501 -0.07934475777791496
Ni 2.5636297689271657 1.4606888633495025 4.66255885780148 -0.3290580101114849 0.7308147334392768 0.9337699036817017
Ni 3.393844488148546 4.392863866699239 4.817371367916658 0.43623058873494547 -1.8418832831375633 0.4331745755174411
Ni 4.931705846420444 4.625692578530375 2.4850664690224566 0.6554060774909743 0.5382558188295118 0.36233476988674373
Ni 7.315570906352731 6.371469334418362 2.5544991070894407 0.35792018575881585 -1.0536529878932952 -0.1769165800868179
Ni 5.224100438735973 4.585894576403182 11.103619081829027 -1.2897165106539141 0.2637465904981845 2.486348802456634
Ni 5.580256838140535 8.065583743986728 12.191359700704668 0.20499328371837597 -0.25409106968629147 0.3215354764821946
Ni 2.0586717051274763 6.2987550115133955 0.404015282944202 -0.014330814800375319 1.2703861857564185 -0.6556097088613483
Ni 2.7709392892102582 1.6170142582081206 0.4955298890626271 0.002985307880569052 -0.08074163812544159 -0.5309207186206791
Ni 0.41472213014224696 9.361709089337902 4.624110063108366 -0.4907132931638581 -1.4006231023985103 -0.2106106299051534
Ni 8.735765460789358 2.403786668359055 1.4384613038792367 -0.7715230097919165 0.6833917640706231 0.5796369528794598
Ni 6.597977027506733 0.6482317757521094 4.789180890336265 0.921356103398381 -1.0421827824701664 0.301585515722829
Ni 0.7202136200903173 7.445454729245906 2.5714799497148535 0.2881548441392199 -0.4295189810427248 0.1374354912730601
Ni 7.548490047636553 3.950889916695481 3.975728174464797 0.40179040477920486 0.13130315312307708 -0.2733455470405292
Ni 7.479501418182258 4.022699945073586 12.588840551397766 1.3560278322866388 -0.5542971885630906 0.07110977146263237
Ni 8.164938583653047 8.795756359701375 6.709193498481898 -0.5681554346024215 0.07706573193575114 0.46043803921908444
Ni 6.662507484943598 0.8598656324626555 0.45492254333389315 0.6652775709684156 0.24592910270078933 -0.6865711902398692
Ni 1.9508978834160742 6.3427218114094215 9.197899752974973 0.4047518014003739 1.3314360018798876 0.1460265753761808
Ni 0.29232857881506835 5.089279167726131 1.3002227038523837 -1.6537142700653775 -0.6529894976296818 1.2215609367235993
Ni 6.522405133896883 1.920658274437812 7.208388493261896 -1.6024688416268402 -0.14694548764602433 -0.9887220915478648
Ni 3.358378056805022 4.233997404220139 0.4741532707421385 0.576546229769278 -0.1644143338547491 -0.022331573617664763
Ni 5.738155705475894 5.501049680532701 4.844450467523538 0.9614779111199312 0.0708644882210457 0.20344342273275287
Ni 5.285266920532912 2.9201931008688162 9.34630714495639 0.963029057657135 -1.4092926051480503 -0.8997056150081408
P 0.24065538096112524 5.561375168419659 12.379631108313738 -0.05778785754274563 0.9157374716600228 -0.019373262320289217
P 4.06162982445499 6.043897685007905 12.5916863662738 -0.20857585886331173 0.6612136853116871 -0.8446999481962226
P 2.4570405730459526 8.280209006992134 1.4899599728894954 -0.9545444172248915 1.286296943449404 -0.23915501720174942
P 6.182526035975835 7.804893717782978 5.9881759605572 0.6840088288293317 -0.4207332644302948 -0.941688644308146
P 4.67234513317118 1.1557336200558614 12.73233762409832 0.08615175339741936 0.4052248843820505 -0.8475865257153984
P 4.13477820873285 6.155388157224708 8.120629056131339 -0.7764518145521015 0.6460349206887197 0.05020490298916515
P 4.5273143769530675 1.028996742116165 4.010364463432662 1.2690219584190403 -0.15105745293186887 -1.5420216920843768
P 0.2663518142364332 5.540268934162702 3.6816136139591764 -0.9481927639752509 -0.5727361119945685 -0.7777211681828283
Ni 1.4798870361547807 1.0471097614892089 2.5001546232031475 -0.043309718531228635 -0.5384296254032147 -0.12879015689323625
Ni 1.8295867726375492 6.251677438444965 4.8912377620488465 0.07966126057706925 0.9022738899559493 -0.4481072855678734
Ni 6.062842655345661 5.44257799642581 9.096425246937692 0.08911443557016911 1.4500939554351284 -1.314649012229536
Ni 8.552419745468105 2.263277384775251 10.304368311501925 0.309795305227131 0.12490290602368812 0.2715018089635711
Ni 2.3928356616387574 5.307295535207268 7.0586183294285005 -0.14434635946028043 -1.0355341668053972 0.15586490162284125
Ni 0.9313510191056161 -0.0836155934262863 8.89117299670321 -1.4685866149226772 -0.7742234394422151 0.1687535846600513
Ni 1.5793413482190535 1.2286649736472741 11.442627344120707 -0.7627738028443767 0.39512173450977756 0.24360688232551597
Ni 4.102006575079375 6.916116885002021 1.6383800249942868 0.41088079711624725 -0.5152953533785964 -0.3482060437948455
Ni 5.456386573850991 8.139998140602195 8.044526341634223 -0.48842398290904915 -1.5681245598190152 -0.31330820347639593
Ni 5.510852233203884 2.773688344571918 4.971337458354694 -0.7564157218368328 1.1147819939941317 0.02339343922327584
Ni 0.5607096299697797 6.897135742883188 6.985281851889053 1.5634297254465073 2.087999305038178 -0.293139956058637
Ni 4.835036761498906 4.52198808218985 6.886414426972713 0.2910319085766988 0.6090241477923254 0.6601847298265404
Ni 8.509999289213013 7.179745868418072 9.373942385697289 -0.62353365426241 -0.5792039791070992 -0.07739997534671832
Ni 4.476393552145473 0.6425509975343628 10.343385907452435 0.7693064617565719 -1.1853520909032103 0.9658904383653301
Ni 7.996197224940614 6.9920052816962714 4.839699304079406 0.20821461886915107 0.5585024848936897 -0.29783967552715157
Ni 7.479836007157197 6.126848621956947 7.054369049446777 -2.2776356466845096 -0.5421525827807565 0.4049587752048574
Ni 2.4049079935723636 5.100212088555892 2.6670114321215994 -1.080885341246687 0.07417606909278193 -0.3970248650697614
Ni 2.4224332215029474 5.244899212853797 11.297741275026892 0.3226981293317281 -0.1597848055025377 1.1630840235336293
Ni 1.0629801304356354 3.1396020819213204 3.799063387108001 -0.7507772926041328 0.9838452230715379 0.18145611982838425
Ni 3.852819175257307 2.579283107187145 2.697889473035826 -1.1907961447369169 0.29589746419911617 -0.17883076639039525
Ni 1.1840018669655645 3.0967746931291407 8.066152545244124 -0.9459073103751838 1.2917985899939235 0.5780027597101465
Ni 3.6663626867636507 2.567228861144076 6.763087643693813 -0.6716014563039143 -0.0038391712404320976 0.5155146684782541
Ni 3.9953450356360127 6.9602464579128815 5.893689842623506 0.6073981821531281 0.07519808259939306 0.20333260818650142
Ni 0.9774067393586932 7.605722848241642 11.562591960348735 0.0103970269636079 -2.020408602472398 -0.10761917924257597
P 0.1876854247556621 5.24710569149934 8.223188715600855 0.8045948526452207 1.3663865498131436 -0.8580244332192707
P 8.464431888004443 1.4548923354323178 8.157422991840297 1.677694692140375 0.37988949094105545 -0.8154233107192924
P 1.8619514737539369 3.194257643124854 10.1254672037802 0.6078486394269854 -0.2706294336609468 2.0707585156798594
P 3.9190949211310167 6.153516267554105 3.7680135302336706 0.18302037899171059 0.4069223266891314 0.18445531166602425
P 7.093548514117596 4.0225643008945555 10.326417724950398 0.28417683332807836 -0.8015678928934389 1.2085848361789056
P 6.487933426532908 7.796492821628431 9.995113147733056 -0.23068708894005432 -1.176196135435555 1.5751752960182097
P 1.9473349629802383 8.25463555777248 5.775564561463116 0.2009941898613119 0.6465401424599124 -0.40668141432291893
P 6.99797362557356 4.291447235511676 1.781095787223633 0.17481701724531182 -0.41926876406962627 -0.48920894070418974
Ni 5.5339298295293995 3.195234281213865 0.5360061120849661 -0.36326756611365824 -1.022556780709123 -0.2552670922722636
Ni 1.4483904577841806 1.105102169496863 6.934219957135269 0.09394888084433498 -0.34619055602671345 -1.2373325977355594
Ni 6.8287258619260855 0.6227966835950646 9.138209079845872 0.03599107338262834 0.6736377700076527 1.6716492572772434
Ni 2.6780591983562716 1.438741635182564 9.17009269627397 0.1751576884141822 0.772551965277063 -0.8526716535477896
Ni 6.329546240153044 1.960112644644797 2.7459861860360304 -0.6609262359782553 0.6619158535850342 -1.1201777110884061
Ni 4.29901618070151 7.001943478546483 10.172108002592157 -0.1558186217659381 0.18641269250271122 0.5686426586514852
Ni 8.088417180789992 7.2992936048692165 0.28925036024563044 -0.6993909677123569 -0.7549424797254161 -0.0142793927371496
Ni 7.7673745378634775 3.664291852297137 8.287406287131429 0.05948735673235561 0.027857645642216544 -0.15728775011229687
Ni 3.101974386658597 8.496244969459443 12.422883515533542 0.7424507750163085 -0.3546008915775958 0.8253876210208559
Ni 0.38286383396090196 4.761517616465033 10.255013724814855 -1.7382526562290903 -0.5283583572101417 0.8669780428681327
Ni 8.518101768173697 2.171184030159635 5.9050721978331175 0.19189145622909534 1.0486190250138134 -0.50717683803652
Ni 3.5644486935863133 2.852578999095351 11.574913877571754 0.13618593513667512 -0.17824506909025434 -0.19682874562971261
Ni 1.1402701836465228 3.45216244218587 12.848185891640075 -0.6484383879238897 -0.2139607773243089 -1.695056066236958
Ni 2.9693686372395667 8.369354361450181 7.6349604988841415 -0.11666663415682489 -0.7785698893363688 1.7452159749208007
Ni 5.530990872317099 7.632363365002995 3.568055020159439 0.4858708774698922 0.8695450322643605 0.6780927204552128
Ni 3.1635568439378927 8.311615155910047 3.703266946404885 -0.9368462286141801 -0.2835358573099698 0.2026265832584123
Ni 3.60441851167361 4.351374833806815 9.336274901475383 -1.141695530555524 0.5618708871452903 -0.7195558726960058
Ni 7.1278664914120045 6.1676051762826125 11.381520545762541 1.0168954686582874 0.03377786778139344 -0.25780811352656247
Ni 0.6462558922109163 -0.09392545532703891 0.2979505778885689 0.676853448731473 0.8289293156255273 0.4494188052904453
Ni 4.573017422340668 0.3767417600140469 1.6745391459453869 -1.5412385340614487 0.6392605780793637 0.5639773919653319
Ni 5.9436385508147245 5.70863953211912 0.3650501360762493 0.1542510201685021 0.8353735285889743 -0.1087566352811288
Ni 8.099766077102108 8.74169763288557 11.474325580170797 -1.4537888877882124 1.3541195595203324 -0.3300561123586961
Ni 0.060172662111918206 4.676116041348195 5.919815815799074 -0.49301777292731863 -0.24549921425222235 -0.26568314539926496
Ni 7.846400836565939 -0.23008869941474386 2.3534816681242536 0.10706844894542851 0.8293898002017136 0.6566780022248626
P 8.259618220615488 1.764803112733162 3.501971889019951 0.8146712630446162 -0.5295582910555138 1.285998952593011
P 1.7672537509009578 3.215354834436543 1.64080263003175 0.7701474696006284 -0.28394080605787225 0.9102903325025226
P 4.591754404937247 1.1166590535501582 8.137476967461303 0.5155828027120282 0.3529754401590308 0.3091211619782418
P 8.529287891470977 1.6760375619763974 12.676881762238514 -0.17884927833315648 -0.37173549437535336 -1.982845042396327
P 6.032657304039011 7.9909704025753525 1.3870159882460629 2.4983003183915558 -1.9869246117823396 -0.4692512666353402
P 1.793197960876626 3.385931911038504 5.992120493283371 0.3269435348716434 -1.309388278051229 -1.2016685686750468
P 6.793042399896115 3.9806592925197752 6.321334341554611 1.0781746271837431 0.3506642755273509 -1.1716604523487306
P 2.4413420200596296 8.47727287028588 10.322566334560493 1.0633792140421234 -0.20501153855082113 -0.7904825816135547
