# total energy = -381159.77157246455 ev
CRYSTAL
PRIMVEC
9.36746694557570 0.00000000000000 0.00000000000000

0.00000000000000 9.36746694557570 0.00000000000000

0.00000000000000 0.00000000000000 13.71023475292774

PRIMCOORD
 96 1
Ni 0.06823731260305495 8.492255096333162 2.314685145278805 0.1899379320471503 0.20174186666061383 1.6386802585503908
Ni 0.2447400606019597 6.78545579056892 9.84881605582064 1.4293148139062481 1.198740339284658 0.9733700345718269
Ni 1.2721675767290939 9.452336145959041 4.517810317054478 -0.9472170303255429 -0.3260891572911481 2.550077965184479
Ni 2.486959418720908 7.116202311728734 8.176592070369098 1.3849458008725697 -1.2571357485044157 2.142282234751459
Ni 8.814355445548077 1.3755001040575718 13.0966742020669 0.6161710432497517 -2.17376307896856 1.6155022777720307
Ni 3.4248583067373364 6.0223257324289685 4.373235643223499 -0.6974775527397278 -0.1620437767400435 -3.6574878350842557
Ni 7.761180509910921 2.711338353277978 3.594577135210243 0.698953365954306 0.09020843996529626 0.6888286188154782
Ni 2.802596215777664 4.765286614736725 7.178719849045163 -0.9533923058983194 0.26537744123338813 -0.13628749371154592
Ni 9.316273689296349 7.6400591629471615 5.13452405737172 -0.34897454652975385 -1.1042510125558207 0.04789990900507234
Ni 0.10651746607307816 5.175825218915665 12.038984147385928 0.685383083469039 -0.028521247368144428 -0.09111269694712051
Ni 8.167269567314316 4.292341946097417 5.622155977357081 0.6801742855745898 -0.7558824750411821 -0.2030176480492439
Ni 7.9940838393432445 5.094065967848403 3.4160828637492737 0.15916182720655814 0.6934869435230959 -1.6650492354622226
Ni 4.799009495561902 4.909508135065729 5.735032079959084 -1.7470918517872749 -2.015707854562619 1.1635679051485832
Ni 6.848882908920939 5.392148131942276 6.963414242923445 -1.3698585675221442 -2.5734536637959424 -0.6473806360833366
Ni 2.1388175115354406 4.947137249586489 0.6918117856748406 -0.26535867218031073 -0.13296717108906134 2.097414427704491
Ni 4.746102042533958 7.330314502567917 5.642159266166548 1.444614677488112 1.5795821668366539 0.21455213105140467
Ni 5.877120628075897 2.9826295620496266 4.895568407577967 0.1492239992675559 -0.5599214767284034 0.41316650782663034
Ni 3.6431952251465622 2.585842399273842 1.8898873829909528 0.2774225453233803 0.29840377556073766 0.12343094946385194
Ni 3.869644369887622 8.834214475367348 0.8168758994550762 -0.5292574719856433 -0.6312580194898612 -0.3436047975774082
Ni 8.044003070431401 8.781091570600799 0.6525349337270955 -1.0291043520196534 0.7767909430590751 -0.3009226853278495
Ni 7.934778406425412 0.2483727642641829 8.693398966001686 -0.21672548455363966 -0.8265063080063313 1.1202795267735932
Ni 6.724632828013956 7.41761929403754 7.388692556263056 1.138788384211058 4.266152285544318 -0.406981462061841
Ni 6.588233142543013 1.5286581878052483 7.176868837586537 2.430170455492853 1.1407041131765323 0.012811035721739228
Ni 9.24929630099079 6.366214809643706 0.28963832943392376 0.08545267044786574 -0.7663687192844866 2.3857626188014396
P 1.559814382700953 2.1123637850214694 0.9359823042895307 0.6951455621724415 1.1470128290033794 0.8105395002644299
Ni 7.009141532575694 0.6790298770954091 2.8993855674793685 1.0745167187161817 -0.9465840247272345 -0.0002316563948318591
P 5.544875312212742 0.8422907738902946 0.24822382154053838 0.655171335772349 0.09137340680767488 0.07759049409096959
Ni 2.6162304618840846 0.25387521431882415 7.082803545258154 1.3421310196998886 -0.5606408713929312 -0.4697603450612748
P 6.945367817948527 7.633267749447647 5.131918964827975 0.49748583600100127 1.2376365021292235 1.27809923812996
P 3.8943089102244803 0.8242743248094441 8.821397907160401 -1.6606997002442754 1.3620868939965252 -0.10724791194608627
P 7.448906633469788 7.813422872789257 10.13627832269465 0.1519462832947254 0.6864722027681597 -0.31069082045820684
Ni 5.2388401687242645 2.250908620411569 12.05695844286575 1.9962566878165426 0.495479861314566 -0.534589425721518
Ni 2.49924016782141 7.193324666682533 5.959345442247883 -2.4405803379722673 1.464227566623033 0.016739938462500204
Ni 0.6878371694709177 5.442198507566975 4.700978954496493 1.252649687708604 -1.314479319420891 2.3080479404277803
Ni 0.24448339200901253 3.9646398516787644 2.551845051668616 -1.241558977112081 -1.559673857948501 -2.235173877975873
Ni 7.4031559251502985 5.886225805898694 11.119946653964359 -0.05407467035721655 -2.653675424862172 0.05175836351921408
Ni 1.984900662969198 7.27163668993211 0.3604751141005861 2.3894333827848073 -3.2371034693529475 2.2779575488003023
Ni 9.202608845981713 1.4371942410338532 2.123578516389219 0.7457808678308059 0.454508818218843 -0.07283575301480359
Ni 4.070342348131901 8.302301602618462 9.729275937268905 0.9616738291808211 -0.4761472224242251 -0.18391049490614778
Ni 7.43991386524974 7.566262258741402 3.0607551727079754 2.1377141557648023 0.2217694747354503 -0.3177346146788657
Ni 0.8088536008054426 2.7636743908252726 4.693082179903264 -0.8453779480998538 -0.4628808443326222 0.048718034030993514
Ni 3.8659254855299565 6.477509683833684 13.084088073545592 0.8147160002396227 -0.6137814599716526 0.3777709019361558
Ni 2.682177428831096 2.989748836890497 8.967782375595666 -0.2817692523278502 0.4174779907177907 -0.510643713539198
Ni 5.573830152387914 6.34752671318642 8.897709039481018 -0.19327213862670584 -0.17449100136446077 1.242692319385576
Ni 5.822761217679091 4.032244860266347 2.5952098661697245 -0.1804546751470634 0.3866954581192953 -0.6287154555736657
Ni 5.513943936522538 7.052531639237421 11.39753748422349 -0.9644357081966746 0.6896264321264253 -0.11822189445908672
Ni 9.052429616706927 4.147136841744345 9.970507881518358 0.7054765117848043 0.49422233475838107 0.47999307853287654
Ni 7.289022708490867 2.476168096856852 1.2345946670097097 -0.9020046954549626 -0.15476086992538507 -1.223053719219042
Ni 2.180868070431057 0.840745141852474 2.7848776521441025 0.9918158999818403 2.3377189851296514 -2.1009885182089945
Ni 3.4746089234213677 1.6485523966056466 13.436551193210132 -1.8084640842471693 -0.21709212386443902 -0.19931808771046963
Ni 3.0480144809828853 6.592870038656475 11.005259820011384 -2.1228953455844146 1.8577210215007682 0.09466801839854665
Ni 5.943667112904245 0.35331836939213196 5.253693224234376 -0.20633102869319303 -0.27227005458816333 -1.7509032551135653
Ni 3.943460009027175 5.0596311595391406 9.871834732223892 0.542321504258453 -2.615540051443031 -0.7431454870904879
Ni 5.007941477207662 9.22329221288782 7.275966333131386 0.033342322905871614 -1.6413009840026895 0.8861705566361835
Ni 1.0859048649713692 7.488109482429055 12.281518169533907 -0.46033133843789104 1.3760335859846045 -3.719752754561749
Ni 1.8662054899314728 2.2892871322839987 6.789362961011192 0.313846335368053 1.447999791910261 -0.9250109265421489
P 3.3629206156217624 8.831807036375107 4.2920300094497845 0.8004281228620409 -0.4459524440083997 0.15675990263328488
Ni 0.666203941421567 1.418656024046902 8.495272357420326 -0.1090350857534961 0.16071580195723933 0.9052126608692992
P 6.739573937712889 6.168476950938524 1.599312306867441 -1.1629210155932037 -0.5002960517562868 0.28259971864894556
Ni 7.969325624337427 5.674980059929651 8.878734298536719 -0.8331466961409846 0.9503537761823116 -2.0978389168364195
P 8.415320090717282 2.2793576173743637 9.716251411296872 -1.6701305066398722 -2.862478312134625 0.32412586291719014
P 1.7652897690621323 0.5631168417257609 12.133324843241049 0.03465101441496613 -0.8671937584233647 -0.038290925160398566
P 8.310900937228881 2.18823089941122 5.810123568089856 -0.5701575526341148 -0.908543782125061 -0.1594204801845835
Ni 0.5696675113260514 4.056937503003893 7.664487643118244 -0.9776758610360322 0.5472657356376058 0.07060120725733003
Ni 3.2764682636396643 1.6793338928255157 10.79312135444716 0.27262203861094336 -0.3777955845265042 0.3128400055907257
Ni 4.514725610205664 2.18743466472507 6.971613586697411 -1.8169299556263354 1.455584032015422 0.14103323592664743
Ni 3.1960017230040347 2.0091624022295336 4.794633951774834 0.716534826481495 -0.3605681649046242 -0.55203256089863
Ni 0.8744830106246838 8.490934283500843 7.743594964307281 -3.0319266088688557 -0.6241049533848478 -0.3478214067619171
Ni 6.280352608076048 5.660769612648598 4.50028847022573 0.1485125750228281 1.219244886995913 -0.5188306202253645
Ni 4.873967965662752 0.38547126276555854 2.6863150389590076 -1.649376304811656 1.0543302164659778 0.7311201804948377
Ni 5.249734532724176 7.426593327323796 3.113278559593187 -1.7260260322559111 0.8785266669376804 0.6068816475280258
Ni 5.81923905012624 1.1172296742711998 9.584496115912907 0.4050749890677475 0.28923213636379863 0.767877185509213
Ni 5.817852665025649 7.8737118897311555 13.763156357255276 0.9161084818461965 -0.5768213378075356 0.24170118066237084
Ni 8.212036691609738 -0.16905748531005746 6.421833207591318 -0.35192977250333585 1.1581996988581345 -0.8335765845895515
Ni 2.484046136516289 4.449574877944802 12.326570064822965 0.5253072290886437 -0.409500628939269 -0.8343083205492534
Ni 4.316687992559815 5.996949264608023 1.6764740051822031 -0.20964698044030344 -0.754064705106153 -0.5477848413658695
Ni 1.8484260377630881 9.03604591710603 10.213178668683017 0.31974573157162356 -0.9241300665990924 -0.9320184682082334
Ni 6.317016873506532 3.6211816779412387 9.868380010432691 0.0926443031002985 0.4211474691495779 0.23577735897876811
Ni 2.2590676840778823 8.020724915195133 2.3739821474764295 1.870911037828481 -1.7176241813454614 2.6524664921557353
Ni 1.0443788842219228 2.4762898739264982 11.579005926423902 -0.20182697017525242 0.9038378920089596 -0.8598977389825836
Ni 9.034350405597875 0.24024554998531536 10.98106177952594 0.06705874132171032 0.17008335921506837 -0.6144692300672966
Ni 7.380102589119531 4.922425871915151 13.717364432081444 -0.5853167768730565 -0.4598163464746855 -0.8441541029950816
Ni 8.06384336531688 3.055695803837509 11.982237906424052 -2.1288088828553726 1.1534925231904523 -1.7793756515216452
Ni 4.53304837545401 9.32355221107445 12.030209641144555 -0.7596702242183884 -1.2027183500957996 0.00662213330220795
Ni 9.471445778426641 3.4959948503446667 13.792496200319869 0.7404468572124021 0.7178098365391767 0.9640896377111654
Ni 8.217507292276933 7.5129894745045185 12.45870942634966 -1.1710755263795378 0.6464349843406157 -1.001798722226165
Ni 6.863037151400618 -0.027502882806310566 11.830122421741889 -0.32239473915869643 0.42777680154063746 0.21316707777841998
Ni 1.4263186119677338 -0.07348684105150742 0.5099311749310098 -0.9253356568714193 2.955141384288001 -0.8262260577617514
P 9.764741166936718 6.19490257505181 7.1327358907999665 0.37385074094614323 0.3872035081039654 -0.1782592101576414
Ni 2.2412320271081225 3.9390385646523183 3.1609627130799867 2.2034868312852374 0.4366818173397512 -1.4439551895272422
P 5.459575158658836 4.688679470462199 11.881097366349211 0.43352604531958894 0.01790824773898851 -0.707629039351433
Ni 4.341549249701488 3.8620473542350613 -0.1463872786753326 0.7567257968780837 1.2045613168418094 0.8492209759950278
P 4.845949872177168 4.578574264567997 7.741785169702997 1.164163372640737 -0.9074772885337596 2.7497439231526712
P 2.768573576011819 4.1566354531767695 5.080381972206899 -0.10785932027784004 -1.0300525748655358 1.949571882165494
P 1.718574211652367 4.49398603849818 10.405574261017476 0.7937579099307168 0.3320407468888927 -0.8114985217435896
Ni 0.5634493868005648 6.278329235226537 2.7331898433060027 0.4712022197141239 0.9766047394590407 -1.7668237829985636
