# total energy = -340858.8836225598 ev
CRYSTAL
PRIMVEC
9.34213396589907 0.00000000000000 0.00000000000000
0.00000000000000 9.34213396589907 0.00000000000000
0.00000000000000 0.00000000000000 13.67315737646751
PRIMCOORD
 96 1
Ni 7.296776621466117 7.4354045497405234 9.227508007282468 -1.777807535703577 0.005883455363970512 0.7833536838782573
Ni 6.883209685905792 6.007963824043635 4.704359625661731 0.21811953668768885 -1.7031789524544088 -1.7205544676183788
Ni 6.2107722137537955 6.6603997870349385 6.839723919982771 -1.1647845511645036 -0.6001972935293147 2.068168129244864
Ni 0.9465730559032026 0.8655066870372982 10.253227623488977 4.06700543330439 1.5866580998468285 -1.4205404101477275
Ni 3.038276886393092 4.600496581105065 9.240046085491045 1.4859202211051183 -1.4125558492803543 -2.182841901341376
Ni 7.73750114092655 3.667123960719872 0.5632578190650402 -0.9712478460225015 -1.0433343795761063 -2.6644318920477277
Ni 4.479226338034099 8.145219900524898 11.243287379528613 0.25277672175024213 0.11120329704940848 1.405383242791315
Ni 1.9343262390274836 6.521024488030568 8.406270891221242 -0.726812040037787 -0.061151374698339846 0.8889136665989594
Ni 2.330049698409892 1.2722491936196298 12.104764804117986 0.13295534401451942 -2.846088815033008 0.9217263422536061
Ni 4.930442074116418 3.078812406359576 10.216883919104186 -1.6556865633004 -0.11218417290543904 0.12602750654643458
Ni 6.141584368427274 6.231072671206474 11.066684610251269 -0.12858755396412694 0.28633347465976494 0.03303867562252374
Ni 8.778719357645711 4.375435227910193 8.74732044485305 0.38843789473169876 -0.13478468391377432 0.1878630517959926
Ni 2.626036533878455 8.927408764372272 8.69574532499157 -1.3419245601160374 1.3094435567691964 4.156492678832945
Ni 3.1430208941977043 7.161353045196437 1.1341089247465261 1.7623675469994229 -0.3538125913483455 1.7535036688508898
Ni 0.4629728118780826 -0.08963030321789235 13.315727729453652 -2.5086017003175636 0.16339951943698955 -2.5890283783057475
Ni 1.9762630791126516 2.742047155437291 0.4275707946130472 0.6401617497373943 -0.2176114867030188 1.4346483103040193
Ni 6.910871745048626 2.324154811777292 7.3895486843901 -0.47236307279144457 -0.7172557638079196 -2.2654355050738917
Ni 7.1254231973533635 2.291167736183456 2.636718330036481 -2.4246420694754565 -0.7606526427363157 -0.02911080132302728
Ni 0.5381237414163131 0.05914878799626479 4.476194815510679 2.350607925277177 -1.8852122849425015 1.9510546373586077
Ni 4.410281388194816 8.708718746650353 2.767501668286491 -1.5272255076118086 1.8137315032936958 -0.8506132283568641
Ni 7.141164693353254 1.9482740452754579 11.82905880762044 -0.003831200820632112 -0.8974687552578222 0.7025158864945837
Ni 1.634630576311469 5.271560759540749 1.6373332557137055 -1.2094579828124783 0.9074654614592178 -1.8888002594040758
Ni 4.7945794175428835 1.1878056432676956 11.99328698603639 -0.4487374629527046 -1.43864431883729 0.1133509395200306
Ni 3.873267492312502 5.495930794810405 6.637278939290056 -0.6573110078231712 -0.8742293251139073 -0.2515791018977151
P 6.529591225022793 8.705841369339987 7.747374842482802 0.08877762105604065 0.4092756574126565 -0.9044055915869714
P 1.8804501515311227 3.7774358804627237 2.983414269533177 0.10535352313685081 -1.5238123681652014 1.6011076996132554
P 4.316336887438201 1.7752483791544071 5.276321511090627 -0.7397092077154294 0.7778211840958024 0.4841551803303661
P 8.95466911174775 2.495265340402807 10.407023440728027 -0.4848684043473069 0.27998979182992423 -0.34472142768035474
P 5.920549475040088 4.188770045967279 8.175933100672816 0.6633559284656705 -2.024095821515998 -1.6038014443953348
P 3.62065618558429 8.727104066607495 13.440454562150705 0.27017486262203144 0.085193246138892 -1.7365958373519574
P 8.469233138367153 5.916504330964154 1.079888112500969 0.38791056147331904 0.09058947745379883 0.7680126826458128
P 6.586083110074032 8.83424900288212 12.36374744631915 0.45404679098075995 0.4196747412587934 -0.6684888788168615
Ni 5.777007584216163 0.562694488377329 9.994421547622768 0.5278935017585813 -0.34801706771249097 -1.242784621989066
Ni 1.5748969707190066 7.948624030007573 10.971970317642787 -0.3390444319002355 0.9163668777139057 -1.9722829506097648
Ni 2.6176566395687204 3.3380005755114803 5.113733811426952 0.42863066490050056 0.17816793599541575 -0.8538816146954906
Ni 5.033579234851604 5.769290981429273 8.97419884313515 0.26267315492834764 1.3487079015864578 0.993917005485243
Ni 7.04020424986909 5.511606895871423 13.076556951090451 -1.4952332709759282 1.7592482846441506 1.421388617080636
Ni 9.06684011618139 5.302866250992165 3.8487201006867977 -0.7792288630766064 -2.6452332076320895 -1.8129804840602841
Ni 1.284842390419542 6.42435208410958 6.290965093079054 -0.584018112666291 0.13793402817603342 -0.8361721132308697
Ni 6.060830961054543 4.255491567884915 5.855584274337871 -1.428295114392482 -1.0734324845130676 0.8298456567922097
Ni 8.594529841245807 7.859873755824214 3.0589996083082 -1.4105161931425063 0.797455156276646 -2.7582650732498046
Ni 5.671385415803841 7.415739357408316 0.25381083674980576 -1.2590093113780445 1.2240456508186661 -0.31170254955217286
Ni 4.149019265267259 2.8777229693283344 7.232581212615763 0.8376103883392929 1.333453803640865 0.38233049628238025
Ni 1.7171216206313695 5.25741676847616 10.765136402338353 -2.255627517844535 1.4060170197205721 1.7291347530882222
Ni 7.852035705293706 8.014644891865867 0.6117976795494502 1.2743873364960114 -0.18325923447539408 -0.33184817126211236
Ni 8.345375124143684 6.184987923569999 7.2751178177117275 1.390690930886463 0.0244380784377063 -0.011401814079038428
Ni -0.07892795436479179 5.209613068160766 12.838616531791454 2.4391202084869734 0.6315560103462543 0.5957544272666128
Ni 2.8886345819858255 3.3073583755829103 11.624795847627086 1.4530065010962332 1.1617349657049023 -0.7351645257675403
Ni 0.9769163075397866 7.760333316726984 1.420914310797467 -1.7632640906717632 -1.3201671138342879 0.633663029386928
Ni 4.789487954444996 0.5511307947579437 7.43990652417515 -0.3219450532157875 0.47358049013831344 -0.3485634271342642
Ni 6.1463955675014255 7.449445777329743 2.5821350429868906 2.8743997461625597 -1.2867216896916485 0.30212904693112486
Ni 3.93888664240344 5.169740839717126 3.933043137508525 1.1259824906956413 0.07786380235701428 0.7352740547622111
Ni 8.65549660854271 7.337340167834974 11.768145290488047 -0.7511940684265773 -1.9136427723690526 2.4230968364755237
Ni 4.2156286815754 7.576881828922921 7.875575080647369 0.3406269458960069 0.3172569037114988 -0.7261628364895623
Ni 4.332171804779337 5.786667350900962 12.980995326916872 -0.04612507649283669 -1.005589813837481 0.0001339544747029951
Ni 4.9202591479206434 2.9316737938976916 13.377024274085153 0.2854492722825987 0.5676111320631773 0.7723388208249924
P 7.471222291974101 3.9036948231562065 4.034962083953869 -0.49889762874686333 -1.2081600899366614 1.9873768688284097
P 4.735994894447742 6.031954424475516 2.1462207883871955 -1.223387448409377 -0.7506369103715266 -1.0391375678859391
P 4.3972024004204275 1.5724306473101215 1.2017216862596458 -0.8165736222736518 -0.318936862517083 1.4924770483870298
P 6.810144854917576 9.417058040243047 3.030668652362047 -0.31869235060644474 0.7475562145636738 0.6944385088030879
P 4.778221340690772 6.960637293530177 5.219126163339809 -0.17434239160173845 -1.0775069116927571 -0.4941351743612135
P 8.711568097558345 1.4833160298959052 5.818543646747387 -2.310995710202194 -1.4048543668710385 3.8685088130539507
P 8.822907652054898 6.209996816621458 10.031325780055033 1.2889246108802384 -1.431178349477548 -0.792052754314152
P 2.591246426398578 8.863200276534144 6.764548700895816 -0.3405683247439296 -1.47353881672163 -3.2221828434873734
Ni 6.992251075407703 2.8333198058342814 9.51126692339539 1.1702064935110232 -0.6882339226542727 0.4167673378040112
Ni 1.8074413733476549 5.9422792790138255 4.016394592381298 1.1443370819434293 0.7699644070555449 -0.18707398023579394
Ni 6.241255597402248 0.8532143069561968 5.233031929984223 0.5543367835517743 2.1231835662487955 -0.1526602786426145
Ni 1.4113348864661395 2.8158967256919696 8.912916311704835 0.7776694890092866 0.46933611303966266 0.09996706201395686
Ni 8.976604442672226 1.360663150974504 8.235725561710263 -0.2514006673383219 -0.07210761659952743 -0.6973132592477217
Ni 2.2226805509162775 1.6228408030462693 6.838110533419458 -0.6821293524184316 -0.3818756681331488 -0.043546260022066935
Ni 0.28762562542707776 2.469621182230879 4.424291786741426 2.1783113604608744 2.602261332056254 -1.8275794649203818
Ni 7.834706046492639 4.174373817281325 11.344468297378118 -0.019318240712637696 0.7189907442211553 -0.7811983280981514
Ni 6.510355770860316 0.7201785801687549 0.7741976023172217 -0.44683973170935953 0.2287515624802383 -0.25520461446544435
Ni 8.947008561765609 3.45929884498482 2.3017663873477745 3.7387313525467802 0.7744710366766469 0.7587227727034546
Ni 8.847711018155618 0.9076144881769457 2.8618469465970504 0.24631708216782744 -0.07030475906283376 -3.434909491294265
Ni 3.9624568467997148 -0.4020256630628392 5.045586679841907 -0.551666950029095 0.24119775866339108 0.29002712146126824
Ni 0.6107672421555107 3.0157903695552664 12.287082156839329 -1.2741528518877026 -0.5282359726996645 -0.49373948158469155
Ni 2.028653767283207 0.3286133046851901 0.9272311014117052 3.076763819788204 1.7884547310047778 1.8552795019388113
Ni -0.01188412881985792 8.26486461225819 8.712221112733653 1.6848297605232598 -0.4687961813757926 -0.38587476199021287
Ni 3.028047249526695 1.6715039797011233 2.953279347487571 -0.19266253006716497 0.048769970314851495 0.2612461926738339
Ni 8.378287462664522 3.8958380883574484 6.097079375671264 0.9514302970759422 0.039057628123094025 0.10739395060564731
Ni 2.2863471949751815 6.9121889859601895 12.705672357918433 -0.8058780902330185 -0.6493680988270106 0.8689253964024906
Ni 6.546285618703389 4.790907958831929 2.4017449725354463 -0.22110767278173532 1.0624302198652928 -1.3590028557545628
Ni 3.870072482441901 3.971798980924279 1.6628064528311544 -0.12775605920176705 0.267814589919971 0.39362560958022536
Ni 8.698853453014813 -0.18198383853309513 10.777428782419454 -4.753937349317788 0.6427251395891963 0.646689266443267
Ni 6.867477532040025 8.097640411428493 5.147739179640365 -0.39541766848364157 1.0717669238851866 -1.3912799706207137
Ni 5.09145375575328 2.993565432472929 3.6442245215537405 -0.03365316927807108 -0.05645859720836083 0.4860950776655564
Ni 8.629544159944672 8.643856309423505 6.398491188425961 0.44294939551601775 0.1832216963692393 1.2519464909939924
P 2.3841873656617403 4.650561077878604 13.211537710202627 -0.7122739943226121 1.2376290459300556 -0.12878655734881048
P 9.099948639518846 7.03742029389997 4.725525164734344 1.257078927124551 1.719409298270342 5.704642081081614
P 5.545154499512732 4.300044205524961 12.00365114963418 1.201787096530782 0.3915458442330611 -2.1807006866286573
P 8.619678866309133 1.645859821529195 0.6774794219390226 0.4337150214019434 -0.27630694366169833 -0.34345875891784716
P 3.2002321235765345 1.4042909173362181 9.888673260399765 0.5986201788501819 0.7811031972811838 0.7645378367233349
P 2.1700843357949817 8.7719836789419 3.0993081144154564 0.23373333196554585 0.27622698235338233 -0.6463213415808869
P 3.374958058108256 6.896596964106291 9.985083150351853 -0.8484522161498033 -0.6396778681224403 -0.24600495024404728
P 1.9010121887392881 4.0011332820754095 7.055786929588862 0.18901901977730673 1.0905436902720573 1.0173333275266545
