# total energy = -381169.7428394499 ev
CRYSTAL
PRIMVEC
9.21335918882339 0.00000000000000 0.00000000000000

0.00000000000000 9.21335918882339 0.00000000000000

0.00000000000000 0.00000000000000 13.48468247345789

PRIMCOORD
 96 1
Ni 3.853533627518882 4.434915031121221 1.5102437348887758 2.410670694897029 -0.6368046603397033 -0.8207897172375285
Ni 4.6993292319703786 3.819352064218754 8.697674756881739 1.4835051839057225 2.2613875602567637 2.8805562526822586
Ni 0.7948309857045999 5.671357073288468 4.2772735307919705 -0.860788626227969 -1.2702794849752252 -1.3979581539718375
Ni 3.642750391621219 9.109487966437303 3.005075362206539 0.3852834082631171 -0.39874133354023583 0.8834955809071816
Ni 7.46910460896884 3.5558684126669853 3.2915168626616125 3.2047556491498614 -1.716136026835709 1.4619045749168114
Ni 1.6790057599897934 3.265518605162879 0.8903136356401462 0.15223553240037008 -0.5696890976381286 1.0570072490775086
Ni 7.496772327187246 1.4893303304319128 5.900965045071527 -0.7898611459794719 -1.0702669423008921 -0.8571751978450981
Ni 7.329872322016945 7.964608289789376 6.199973567721041 0.4513383909106614 0.015979149037075705 0.25508505816844457
Ni 6.1253361433829445 4.797230388743198 4.648641935340823 0.04353906093321534 -0.27122850069752646 1.694186262037495
Ni 0.1774096842151686 0.0751616644868233 6.297252822735705 -0.20730624812226878 0.22180392751781156 -1.1295514389938226
Ni 5.262311556890682 7.301117427391688 5.237652921845814 1.3784689348989745 1.3473408460356022 0.3800118754515327
Ni 5.61850924388428 7.432859253167573 12.15129054314069 0.9164931188791249 2.3779300101308984 1.4541668399529213
Ni 8.223780089151262 2.915097694500596 1.1696838827710012 1.6838087754579132 0.7005716182840193 -0.20629246214577374
Ni 1.308343098769456 8.175935113890464 7.800295395933002 1.247525221997845 -0.48395951937979237 -0.9744514405614637
Ni 1.5218811291217653 5.798400085780507 7.716218884910005 -0.8719544130368015 0.6513213658986395 -0.35709074787898504
Ni 7.108383162519619 0.8583368292396734 0.4398743382194994 0.40827986915829045 -1.5881891917793747 1.2650197792381825
Ni 5.897839873569802 2.016481900723052 9.74295341195122 -0.1412193837955245 0.13582778046630803 -0.005657712506409612
Ni 5.8063143614880035 1.3168378161178975 2.3918452178991103 0.7700713649470544 0.04387458989576315 0.5077303965471449
Ni 4.047465629110363 2.434832910094727 13.234447161293591 -0.7834683550792507 1.017308644936306 -1.3213873593946341
Ni 0.8422936065511254 3.1190077643007132 3.7328165075772115 -2.3175013725311957 -1.7391795389187341 -0.5308906367136922
Ni 8.865564276849462 3.6400600906822334 8.89318869227878 0.525951804651178 -0.726138153899214 1.794193176150452
Ni 4.171689353632095 3.691489062741887 6.69116723902357 1.6197949916101135e-05 -0.34345207404962785 -2.7077724638168914
Ni 3.8842970344889975 6.110908022593726 8.184487875402999 0.4871330320117675 0.987938419304305 -0.11395746275577792
Ni 1.3928664577223873 0.9532602282608483 2.4381119446981008 1.379653699235695 0.837658467968409 -1.0984858279372696
P 8.599979979359032 3.345444497785146 11.546852707689679 0.1681545176234717 1.7954833557167853 -1.2249347382918387
Ni 2.199855392464952 1.1369193341435309 13.452265718413889 -0.17898914634513044 -1.0537185510239078 0.4486801273522079
P 5.637461124129122 1.7663391935536514 7.054956734146361 -1.1751175576593955 0.06813526221534073 0.28960648898408187
Ni 3.8298092271151543 6.404335092130782 13.242753926110678 0.6083613173973458 0.989049907200929 0.4074915689290401
P 2.5896726278364928 5.282018932604691 9.626094846917931 -0.007792756571541418 -0.8238788976858135 0.8726689226053228
P 6.374235047036033 5.726296335271935 8.86139154638622 -0.6365326376252392 -0.3379951647001147 0.6243713196723569
P 9.100385167369776 4.81712203164481 2.236569708258666 0.3989249103059517 -0.7063725412365126 -0.6398033379567111
Ni 6.107701773529455 7.482731167491991 1.105666697790333 0.980258534161544 -0.1222875798880281 -1.3124311786426108
Ni 8.4983842654748 5.873000656681083 8.729498621516502 0.27012961120639284 0.08039402497803574 0.19626618825802328
Ni 7.747467835919451 8.920973420161314 11.980371670608791 0.18801243288966332 1.0976373638940453 -0.6264171464577921
Ni 6.918468185617855 5.312846833090467 1.942819249807369 1.1218982933239388 0.7344425599998512 -1.5765150978755558
Ni 2.5148601496701746 4.290090235025612 3.3885123462073694 2.379523322759947 3.215211297265547 -1.5696206847485676
Ni 0.312494116774149 8.676073114479184 3.766056465548695 0.34737223503964043 -2.589338710457315 1.313533410567854
Ni 7.962433936975675 6.932794959453894 13.027929710788909 0.88151660280394 -0.32409295279672573 1.1975092950910342
Ni 1.202251265507738 1.3398251477712182 8.7009777462195 0.34631551164035196 -1.116351909584413 1.4123002816261225
Ni 6.693035708305852 9.144415811847217 9.821986530049557 -0.3094096397529381 -1.1289534003985073 0.47118550754357563
Ni 0.6653473543127753 5.548487712595609 10.695416684625691 0.12555159535128055 -1.2172869919385938 -0.10199463396694693
Ni 7.342144516711222 6.8345897618215306 10.60937127870317 0.5747423437913198 0.24764068607525738 -0.360115907858554
Ni 7.6705639251738535 6.699199445731132 4.222027463941147 -0.3018968763156607 0.14795258875430004 -0.9226874206152949
Ni 3.605943020897766 2.0891476661538095 2.312757740980431 -0.5503646862779037 1.3525537576951094 -0.3002032906633217
Ni 5.2412498173478 5.699301192288276 10.881842562330215 -2.428642448884101 -0.8884061308349216 -0.6847570198492658
Ni 6.037781589193965 3.06661138950615 0.7977442499405839 -1.086891695341767 1.167110628194519 0.13954225320341773
Ni 3.6132768549643166 3.3788429255379664 10.894774433556107 3.0400993744876352 2.6722963823974686 -0.1141451532865518
Ni 2.061719495279286 5.572903114952842 1.1685487968953745 -1.6927253612212525 0.7194165189046643 2.0094513321299456
Ni 1.835826349998278 4.200149420757189 5.950183732215898 -0.8055394759466771 1.233328875892805 0.3522452468612256
Ni 0.14607597029942587 6.942966508209511 1.6980718858909483 -0.9931433605440121 -0.8272951224562141 1.4328163993016034
Ni 6.779475446009842 2.3061130661955116 12.24898716333527 -0.3924303037205435 -0.05580836521887163 -1.750725077664488
Ni 2.451951331822931 1.129207752342397 6.661338988030534 -0.22571123299201773 0.5616510578250005 0.10954982060638553
Ni 0.13920741088156996 1.9350265904436903 12.842812130116357 -0.1198871979766516 -0.8480228419218686 0.06732202228542598
Ni 1.223838166535285 0.22934262703291297 11.231675660664047 -0.5136084525944767 0.4857806317489311 0.6457497853481331
Ni 0.26645127460809515 8.840651353085704 0.5176240353561896 -1.1815784827933908 1.462773864895642 -0.9841825518062984
Ni 6.967363483847985 3.482686699110943 7.527716316001211 -0.8800729283788779 -0.21624365982121466 -0.04112145263065821
P 5.3246399330969805 0.496097942500551 11.959619499941082 0.32197796333625195 -0.18168983310574516 -0.388946201826685
Ni 2.4478882403363125 6.790476197109668 3.297180314672553 1.4761705979175221 0.40231670959632 -0.238876309619066
P 7.575684750277704 8.526125690568245 2.1180527385369605 1.7695704925057651 0.5617811556449616 0.6927680630792004
Ni 6.004806975972628 5.580347509331954 6.802226915663033 -1.32083971442128 0.8181926459343134 0.29755865395162306
P 4.2044612729470705 7.241276658218014 1.7190000317228191 -2.132287842542908 0.4351538107309989 0.8109040826927003
P 8.548357526752397 3.140364331343758 5.2054384107733345 -0.4710350980086404 1.4407888759841185 0.3917980694531833
P 0.1954383858501256 7.491364085231134 11.329264484553882 -0.8993294626156446 1.7314176355851276 -0.6056513746653504
Ni 4.465438890747454 0.3944589258272296 5.51880871802453 2.0852299698231573 1.8796113938159562 0.6054626556933121
Ni 8.382461777754525 1.1746848942425134 2.96780363817033 -1.3521968885763227 1.8043526331819568 -0.6307160309434622
Ni 3.5382616828916365 1.2348481309944908 10.853686536064664 -0.11837204688370583 -1.6051399607011 0.0736245674646861
Ni 1.4247078277399727 6.727770073168785 12.835395375815388 -0.32054405910320277 2.8066475783182505 -0.2911766616846792
Ni 2.1026820910831594 7.778774831092992 9.838909628558904 -0.2590062475997217 -1.4014155163928188 0.89067024427875
Ni 5.198444549667909 6.163009569888126 3.2028686827142154 -1.519872923901479 0.4931550698361313 -0.5532533206796084
Ni 2.967807323514082 8.088813587592346 5.277580857391302 -2.096654409610015 -0.7682661934175156 0.6365557775536907
Ni 7.903063049130385 1.3123785501779346 8.196515916073706 -0.8806997633295994 -0.8205104954342128 0.2820942397674368
Ni 0.19197047737946032 4.819480651646113 13.258072978751951 -1.6978284867757727 -1.0295964611647237 -0.0041988685726959945
Ni 2.117893347419685 3.6090663497276156 8.232655318242102 0.5253126284052825 -0.5619012261625935 0.5680867861480152
Ni 3.479388316452871 8.74864674631614 8.163519190789856 0.8846044977006443 -0.24660041773620106 -0.49157641249510176
Ni 4.352731865450833 7.944348112512562 10.246133663807246 1.0446546410494268 0.1967989208330417 -0.9868336162759005
Ni 5.627510695998627 2.3625541057579333 4.47939620887235 -0.6371831267250445 -0.09288444413556261 0.953015639285191
Ni 3.26456041578735 8.582188982396083 12.184516681073102 -0.061652482704474466 -0.8889992843342303 1.2631197340019922
Ni 3.0623824575506893 2.8283447025776836 4.801827855073863 1.6682952532033464 -3.3816280062623054 -0.0889614549320726
Ni 4.6018058229321435 0.4616980225831149 0.6332553809200513 -0.2457979764395638 -1.909406879910834 -0.16507999246320604
Ni 2.438039159158998 4.788422417175834 12.48175992406539 0.03775587859253497 -2.4772478685966304 -1.4761112054344965
Ni 1.5392851649907524 3.0620968434099067 10.596667898789903 -2.810303944123915 -0.6360433566936465 0.07709787072526722
Ni 2.3174731383111604 8.115642890107164 1.2416761516310744 0.31479147289014175 0.37810077447174884 -0.7843456154778814
Ni 6.976844030650096 4.946431530544351 12.577419470501034 -0.8961194403187793 -0.6618703450590795 0.9053173047679633
Ni 8.424087735433766 8.064711439454037 8.337767771401717 -1.6408512980597805 1.1044626143459946 0.7066301657732734
Ni 8.270768221989714 5.276417210101597 6.535189671398364 0.7780538689318988 -1.7942885640777355 -1.1768453389837796
Ni 5.785879130382966 7.7920973487566005 8.083163955620478 0.08485360341128613 -0.0771498070091252 0.025006035126034352
Ni 0.2756950380741378 2.508742479041796 7.042469868178528 0.3642931791646952 0.9006255557192488 -2.0645482731040894
Ni 6.718483006913657 4.089653601711788 10.469359541547718 1.6900141329376768 -0.7983514428386702 -1.7525690728517622
P 4.609950432624141 4.449499779019901 12.77285324967147 1.4878544620133538 -0.25181847160203086 -0.6329523764731486
Ni 6.659195039302787 0.021913975285540305 4.083108431208173 -0.3766504151784675 -1.4261652125336728 0.8078164449063119
P 0.14676697225293253 6.859963353554295 5.768868504959509 -0.10711884256738971 3.4590740043556103 1.5796271611419763
Ni 3.770069804894661 1.8166809892064546 8.651098461207578 -0.27765780126263795 -0.8842537992294448 -1.2187715469039204
P 3.6860623940670147 6.021262035825465 5.242116794465466 -1.2987588233618408 -2.0466297409524556 -0.2458594258051185
P 5.516517355546701 3.7632242788752555 2.7571862427415086 -2.508991222446498 -0.019196627533108874 0.21204273436598964
P 1.8941561282336181 0.9825402843707693 4.598047693641005 -0.03832074995706949 -1.009133051104049 -0.6230667419283205
Ni 8.467768272254764 1.4124632731238354 10.37217518413467 0.5274839250249883 0.9980233143441327 0.7486131950732785
