# total energy = -340859.6936430073 ev
CRYSTAL
PRIMVEC
9.35247028113580 0.00000000000000 0.00000000000000

0.00000000000000 9.35247028113580 0.00000000000000

0.00000000000000 0.00000000000000 13.68828561862892

PRIMCOORD
 96 1
Ni 2.366249733250905 2.162917682680931 2.635611157365291 0.8586564103763148 1.0702481732478148 -1.5487016752077136
Ni 1.07805921849045 3.4101724361909937 9.385030638150642 -1.9258184884996379 1.7311875218521928 0.9934560066884245
Ni 8.717942333241496 6.438156185268149 12.834615318226783 0.3741178785646008 -1.7877762168805145 -0.8019067642900963
Ni 0.8570453881123906 1.1529444458909275 6.401135367965532 0.5373425629866229 0.30145104702749376 2.971093022521251
Ni 6.915356615252158 2.273323591193812 0.865353187225647 -2.38185222800344 -1.016097398237024 -0.23934219351189104
Ni 5.372255177795635 0.3003396105410881 6.754539022870905 -0.30130937924330686 -0.8982825094083691 -0.1428682322528572
Ni 5.134103881364293 6.027012250991591 0.8788703121365887 0.2474668795015545 -1.6951504257229772 -0.04346707004469934
Ni 2.4593629247082736 6.769785419487397 0.9418591976795156 0.09160789141598416 0.4787648625527303 -0.18131959425051997
Ni 1.2400439991294248 3.530641602438721 5.063912658663741 0.02081282298029319 1.0095017472973775 0.5448149601042681
Ni 6.817698123368083 6.890797028995925 2.6383345966333094 0.2343336845537061 0.11559859790362671 -1.455721843144867
Ni 6.469991993195116 6.966084412606996 12.808375093109069 -0.9993921696672016 0.5660916100948573 1.8293108457891916
Ni 4.48526692168707 0.15894896887249585 11.456533537928712 -0.2954328658578718 1.3329408685601882 0.8579449861315871
Ni 2.327408925283603 3.1485838499050747 7.260416931658222 -0.5512733141351022 0.5220110748358752 0.3562800790522316
Ni 9.125999952413498 1.225893711998549 2.2040189826505676 1.3398242259435826 1.7076429017630332 -1.9273464951083905
Ni 1.5560452559556182 8.868769617154008 9.58216948307748 -0.0992497242319581 1.306317095325073 0.40606357823326195
Ni 0.8299793398924603 8.270875561641942 4.004357302095589 -1.8181394025534041 0.8679990279334793 -0.5535078598925758
Ni 1.6663950496484161 6.49943356879855 5.492068735895395 2.0884021969035516 -0.44897991798081377 0.6185652545135412
Ni 7.054053745556777 6.9381485846757815 10.694643920724703 -0.25094712474067105 -1.9060125095173044 -0.4265066765789623
Ni 4.9689299084506136 5.212019309049241 11.95403443932467 1.6165237770580094 -1.5959510951129805 0.2419608620816607
Ni 4.6455495527835335 1.4823103823668378 1.2978852851767573 0.5240103646540911 0.9287349123609554 0.2833031724738734
Ni 4.613002957135517 2.7286485938155485 6.823514424469664 -0.19049149055777514 -0.40845830371768366 -0.9423342483119448
Ni 2.430099046035101 6.563872087193616 8.991245823466697 0.11470642510666053 2.275081255693772 5.018635505095963
Ni 6.070959507586426 9.26042300392181 0.1486836977853516 -0.498175148758542 -0.37192652734023685 -0.39858912423308773
Ni 8.785785150721582 6.672650665924095 9.26142558870729 1.1746079650128285 0.8401164425905984 -0.8345962841033173
P 2.0782871815260764 5.284267139905827 3.7490704101049666 0.27255930369380804 -0.5871180917478535 -0.31157296595284406
P 4.151047053273999 3.7896208495907904 8.74774491418746 -0.03977445168446054 -0.10655319987190683 -0.017413824601073234
P 8.085472196088418 0.2746380876961709 3.591217550718088 -2.2697863258434197 -0.7681520364371546 -0.4232316053721163
P 8.56275679830255 3.215397895683645 1.4326160329485242 2.057812497042153 1.585013108044238 -1.4662065447262747
P 6.590115118052332 1.0569974560193778 11.040355169043728 -0.9183895645708893 0.42809716099453377 -1.0248566324868928
P 4.859683706219444 3.9636235541974947 0.38379731195621236 1.0803785768135976 -0.6671351930024446 0.3123484106662879
P 6.277471397961092 7.050658798941768 8.141983560899789 0.07101026977029061 0.008305948762534083 -0.6247533856021241
P 7.252578626539658 4.8824102083529715 11.424365717316254 -0.04719954050393806 -0.820033041577162 0.591962050103716
Ni 2.7708282335777756 5.543040632717593 7.326011415346992 1.0694758138581646 -3.524693185017317 -3.220134445598777
Ni 0.14972182195688313 5.128043480795353 10.69516391805747 0.04127674726159988 -0.24275738984102707 0.9236086468779836
Ni 4.955116310240235 5.848380073728058 9.40108695867033 -0.7723102815799022 0.05135367188162768 0.7023269104122292
Ni 7.359598940907544 6.297382806620467 5.75395286023375 -0.9365497804196837 -0.3234987708561526 0.2980908723060092
Ni 5.115632753087042 1.9579676547985705 4.137037988440332 -0.3293909679708714 -0.32230269366552233 0.15879570211639102
Ni 2.636395829599449 2.015560165143536 9.298712016158298 2.0035905024737946 -2.236571529654348 0.7635279074015818
Ni 3.654571182591553 7.643904676856977 6.891380623124786 0.42234843143621453 -0.0015321203738102643 0.5774913672913667
Ni 6.7177015139805585 3.1874901251624728 8.20976839306579 -0.5471736901444318 -0.6798528976794292 -2.043467284064074
Ni 1.9448929017192813 4.50701141446915 0.13723720973546472 -0.5277104392134976 1.8038080735323967 2.5420355544959765
Ni 7.4874097961161015 5.251804716487936 7.932703339401039 0.6571940226293328 0.6691486238880475 -0.0340383205316317
Ni 2.870039235484141 0.12613021634707866 13.48791621184159 0.684763447607169 -0.9958296491269236 0.15382601681594155
Ni 1.284851682965529 7.942304585117204 7.52878979969215 -0.3132809497828863 0.38139281495945926 -0.8831801065492918
Ni 7.262183613243828 4.935756697311674 0.6435958354814907 0.09828787453932104 -0.15455158212805642 0.14101215288072488
Ni 9.221759892884771 3.389325780530239 7.445509795207287 -0.6815328564850133 0.031711215060351836 -0.9110835178277793
Ni 6.085390368817717 -0.02939481325336588 2.6468490853338706 0.1395293976876113 0.15675707441980744 0.4231295325766132
Ni 4.177243321782646 6.357650123389379 3.302805145185596 0.28984714423997826 1.5753737851822611 -0.9504998148418726
Ni 5.767630847628929 3.347819518609005 10.289018879003288 0.17441155427677704 0.5030666725228884 1.1061227756572372
Ni 5.632543770749637 8.457737912517617 9.712783273549174 -0.41700490773611404 0.5282796814534063 -1.2946969945876412
Ni 1.1276086046235498 1.131340240159055 4.130727876922022 -0.4612919025789475 0.07158105467209608 0.33872947176297796
Ni 8.43907973484009 0.050349957566280794 5.544138612697213 -1.1454994776826468 -0.08839709778817034 0.9628305684930838
Ni 8.207344232838214 8.286727998315328 7.61343807054003 -0.49370528591264645 -1.7250569834744225 0.29858478122329224
Ni 5.13217727254145 5.049744601839839 7.057487972545842 -0.08332379703032101 1.4783984588067764 0.4430566105178434
Ni 5.126453560893006 7.814119631108094 5.098831040707255 2.2286561314620137 -2.2367101121147415 -0.9674014756932178
Ni 3.2138547381313685 4.086262493488422 10.849937009068805 -0.14657319190827015 -0.2921894192199097 -0.5868301281937894
P 2.905662793766696 1.8741882284149713 11.899691912309498 -0.7118273937034967 -1.3237424898903718 -3.294028721785082
P 2.9839055579021263 0.3060165598394632 7.469478305358647 0.14429879405179663 -0.17016794850907468 0.9158732259069388
P 8.070573711356438 8.45146240513836 12.134185457718445 0.5509084745965158 -0.40167187692346956 0.19131707178286408
P 1.782758481560086 5.885612256852985 12.279021549340118 0.16112897823525799 -1.8057901369594318 0.0933143325841296
P 6.827237642782157 1.745563708315213 6.0127712449015815 -0.6415277768469855 0.10295236989452593 0.2595420654985337
P 2.7910295688075784 7.815578616430247 4.105130166494257 2.2777716580417415 -0.2876326530871627 0.08764787832697163
P 9.194272983514221 7.3700269449729285 5.999616060580175 -0.39314918416443906 0.32502034970700155 -1.5932969453195849
P 4.396596153486255 7.853961153366872 1.0711150095052056 -0.2517822190474567 3.550232209828686 0.2437128117757609
Ni 9.246085667390659 6.195431531000059 4.042383509924688 -1.411991492136452 -1.654518768244544 -1.1187684894457055
Ni 1.4166560428699786 7.776569464002696 11.67854340636324 -0.16631000821556519 1.0593004159870594 -0.66848965014781
Ni 3.2794903726882 4.6704177705502214 2.009412786603467 -0.3179930105465749 -1.5420582017492668 -0.048824477701870754
Ni 5.5535153991330475 2.3051781040608064 12.598711420339754 -0.45572392157286673 0.12839086457228854 -0.15706843501263917
Ni 0.47299275372480154 4.10253579131243 2.920628616282775 -0.16226257761906893 -0.5435237520966704 -1.204852879940299
Ni 8.077157850246152 8.484925542847726 1.639733028133082 0.16491235653709016 0.1686327428114709 0.24854777127055905
Ni 1.2067211484702638 3.4887705941869487 12.137922704735958 0.010666478574910664 -1.6443410563805938 -2.7225825322465305
Ni 8.02356819706709 8.83084535124806 9.922515219349588 1.4787846385016017 2.04426715425755 1.1709186890866994
Ni 6.161930983410636 3.858024815271706 5.4166186193060835 2.2521814682774632 -0.3359387963917182 -1.0724284687285852
Ni 3.193681460311607 2.660169808374522 -0.02119363229826676 0.725074745631706 0.5695911386076835 2.1952986390474902
Ni 4.950627124633612 1.460818406275131 8.773136870274922 -0.14631325337866416 -0.30116822567975227 1.4469206999134694
Ni 8.067627683302092 2.262035159887158 9.861232224337177 0.6301645293153664 0.1517904744431515 0.6159455575025069
Ni 0.5071208520521504 8.038822075659596 0.1949812300946539 1.3269327146928953 1.2715156713751714 1.0098799565724028
Ni 0.05450338949940831 1.1908313019168217 11.673355591246587 0.9145421658003412 -0.3144873113861616 -2.0257842649620144
Ni 3.8774498954903636 4.544973090255154 4.6863076171036635 0.04828686003084587 -1.2500500453022279 1.152894484595137
Ni 7.468873200548755 2.7226910704167593 3.2223046947888347 0.17255444646338022 -0.904062863535572 1.4472986520781783
Ni 5.683757896545193 4.036628935125199 2.7522074657803044 -1.130844703883949 0.27290794528247836 -1.0338012432746906
Ni 3.682348018532532 0.11615019559535524 2.8125729834843614 -0.7815703667255895 -1.2941362369881648 -0.2647639760191053
Ni 3.867872966196235 7.0382293662934305 12.46437441155557 -0.9382081419587133 1.0933029981847495 1.727836860212405
Ni 8.365372918661352 3.2196532695399225 12.768405442011103 -0.7435872026135968 0.40599081601379755 -0.15842674881274652
Ni 1.0189141981231942 1.6025550893342337 0.042735176481046785 0.7799292315777406 1.3665300173695434 0.9493261062487458
Ni 3.6836573643344632 9.3610742862103 5.225886216338698 -2.3248868663619895 3.156649537671254 -0.03033824597222517
Ni 7.170707104038874 0.8015141621584659 8.085943560577112 -0.5691838758669359 1.852071793634791 -0.15438703152573413
Ni 8.403044667876928 0.6630807715082365 13.565761496001434 -2.358130201796152 -0.4085680898226705 0.6010287882916746
P 0.7367352138548982 5.445718829754015 8.098154145427127 -0.7997318681259646 -1.85282564108168 0.5014106249767042
P 3.6034038191460662 7.752991887097912 10.557883686959944 -0.42169665678482854 0.10197869312734695 -1.8151324974062804
P 6.169366197071605 5.661162328991857 4.049008799682463 -1.3692404743221709 -0.7957893385384489 2.3622843331738417
P 1.5590380463600335 0.10672010008044311 1.7047803923260458 0.795701663920649 0.11740274099190104 -0.2572229304470538
P 2.6004075249863554 2.0084148780529945 5.48955011572068 2.5102500345542635 -0.17930770602681378 -1.2175124776858386
P 8.467240022051636 3.8816585069965726 4.794349221197057 -0.09088129766260478 0.9186808705590629 0.4618061232112046
P 9.319960828029647 0.9203821855398308 8.526022166582356 0.9779823365328577 0.17981472757021938 0.44469311768000186
P 8.981672635160573 6.423968488257217 1.6239918858528593 -0.8062053916654501 -0.25164697902117306 0.1068802441940224
