# total energy = -381169.74011586246 ev
CRYSTAL
PRIMVEC
9.19860184689570 0.00000000000000 0.00000000000000
0.00000000000000 9.19860184689570 0.00000000000000
0.00000000000000 0.00000000000000 13.46308361185325
PRIMCOORD
 96 1
Ni 6.4432617356485915 4.005807062263635 2.3868430470478548 1.6833156378715783 0.6405255608347163 -0.2783836236850689
Ni 3.585743717666108 5.021608646459863 2.6923608041491986 1.2550217874852063 1.5601274005461518 -1.7673637146624337
Ni 2.141002138245265 0.9149968678987433 5.670987611930898 -2.2241834404026406 0.40831097950654194 1.7350899422303925
Ni 7.764024561544153 1.528890387645303 2.156368402361898 0.06337615026380053 0.42589501113689227 0.23338803281098514
Ni 1.0985981979728305 1.95216404423128 1.61748212048415 0.08716631070486279 0.4445087695833377 -0.8570566699893627
Ni 6.719652120510894 0.2794388014610766 6.193543616235309 -0.7535142319193217 -0.8235870774770075 0.21171440449229342
Ni 7.487247835411035 7.1516460514952955 4.860832726609669 -0.3677482275928312 0.30226325851614394 -0.3855533740950521
Ni 7.842645010155266 4.334279929872647 7.118646067946404 -1.5521590376286947 0.930985398958029 -1.4061450606580042
Ni 1.8330329537945749 4.163480293765107 11.471650671411279 0.901745528256305 0.5030723289498433 -2.8826902683061255
Ni 4.697210759397795 1.8981958481389205 7.8811135624065445 0.9627459791990776 -0.0383055804484179 -0.3283550705071893
Ni 0.41920051575937095 5.3762975288742645 9.734509460753642 0.09712290769694241 0.09321200267831044 -1.2230508910055646
Ni 1.0039629838262147 6.85027226445354 0.4480822853333935 -0.2238934630569886 0.06779356260520583 -1.4960583379803847
Ni 0.815848819764926 4.137273477561403 -0.09117010089146131 -1.635089712985655 1.736067218541997 1.8649172821388915
Ni 1.5698793567585732 8.16443049433848 11.256941510155134 -0.12267093136937585 -0.6581296470697245 -0.4374109821962918
Ni 0.8533036861103955 7.766489786796028 4.527392614090163 -0.12950980866808018 0.17474374080521518 -0.35634821328600563
Ni 2.8765407262693414 6.136083630942905 6.494200832205717 -0.2883412491184131 -2.363009898485956 -0.5484003634626813
Ni 3.2492772651918744 0.34000515454287705 3.9707079578099767 0.8834115058338076 -2.185207059139443 -2.7041294677476655
Ni 3.8699805097666555 5.345684582462918 10.011902493199731 -0.6001224744273213 -0.6235151423196488 0.6793229933178881
Ni 7.823015194157125 8.580566036016043 10.707499832842585 1.2462250151291827 -2.514856422978024 4.054084611477663
Ni 4.559516890758537 3.6781436716030016 12.10471223735134 -0.9296165436349603 0.2421107573959637 -0.39411103385707613
Ni 7.441751551471575 4.666478231164529 4.815529613305618 -0.20168607372201394 0.16592948494769488 -0.48475964668358446
Ni 7.271172681804502 0.6623857882551829 12.893715857955545 0.3997854585340341 -0.2043206831313836 -0.037343987866096974
Ni 1.3402086698599818 4.30947130112523 2.290838161110178 0.45801554582052084 -0.8457173337171435 -0.8865341106231893
Ni 4.131413968287356 7.3804796656404505 1.6998758355069015 -0.7273013209693797 0.603272847130845 0.17127403708905986
P 1.8726697284599878 7.813448648403579 6.852601350400461 -2.160347834003918 2.3062535675315186 -0.6906918972764621
Ni 0.19600012528678387 6.057040046654232 11.746284123351538 -0.44526210280959444 0.8572487313955106 1.71046365904128
P 5.304658818942904 6.042000332897455 4.0557269537539415 0.2273611098906149 0.45831636489039124 0.03593656599560908
Ni 4.669835720779957 6.032442985745597 12.21038393380094 -0.3185146873779998 -0.30246791832778225 -0.8584057278180894
P 8.289908619938597 6.998682504057108 9.313034130797298 0.6562478566659795 1.3344953575315017 -0.4380784405769617
P 6.210895858455972 3.011971738893819 6.621696211155595 -0.5416666442832736 -0.9351991799290604 -0.10976425061003678
P 8.32784365329208 7.987219432855729 13.24650246954126 0.9171940016008913 -1.0020401488130097 -0.08129596796701483
Ni 4.425612846013952 3.5147581084544606 1.2044271905112638 -0.4053076739038439 -1.8909990668276078 -0.19396813625246595
Ni 0.005917460464669322 3.225535674240046 4.144273613444527 0.5869561122486924 -0.0015550031919457088 -1.3298110646819548
Ni 8.135721658476157 3.8444819858927812 11.393121288956861 -0.13141962409628336 0.8507605525680058 -0.3206790420191703
Ni 5.4874258358440615 3.162681628918912 4.308469573401614 -1.1761652821976196 0.2489231523321068 1.9879036878661571
Ni 4.7938328715086085 0.7550598605223218 9.866137771441087 0.6570104458636168 -1.3866710110937925 -0.6726170420526222
Ni 8.597850208584228 1.7512757820085016 7.205361286041287 -0.26241655883285125 -0.2944705019446025 -1.2419970930907642
Ni 8.966916505434007 8.700745767044964 6.434020820394733 0.010038872293240774 2.216526438078015 -0.890210273923196
Ni 9.32738210970728 6.594367165546186 6.462926506333139 0.07589587999736606 -2.7962428380451585 0.17010264248877802
Ni 4.5592409327079535 7.758257038286968 5.827683951933306 1.7349410753573538 -0.06731328053467762 0.15183058365246754
Ni 7.388942379191664 0.4618654700998486 9.04480934465175 -2.450502482181986 0.07543616675212815 -3.490183838386537
Ni 6.082023448833685 7.798611303883897 -0.07997632249964397 -0.5648060585142144 -0.5037881240699452 1.045966932102947
Ni 2.9623452827973 5.227224989949298 0.4320288856708086 -0.07803915159261399 -0.028673456675292558 0.30654311683842045
Ni 5.1850585998202074 1.7500615665859363 13.236068495648714 -1.159456454083371 -1.0106772556627175 -0.3755016462860049
Ni -0.051545284408240355 8.575157258224616 1.7812328681196294 1.254421692007362 0.42138735307452585 -0.7532823184141737
Ni 1.3197417811084051 0.2864058223781301 13.184114793325612 -0.3393092555258479 0.2619578740288779 0.36217767548358915
Ni 3.0097732730908406 0.9165357939608282 11.37856726136911 -0.6010958940841841 -0.05724612610666271 0.9885981643754909
Ni 7.525504819823532 2.0474615576992954 5.03749555143193 -0.3406472576109811 0.18567298612320926 -0.36879209547631325
Ni 5.454053308926883 5.038175328096532 6.076064594661428 -0.6159275597803779 1.0532179572384055 -0.1032534460747125
Ni 7.180069730705349 2.609818071779132 9.00019244703348 -1.4432807891680368 1.7182132210797119 -0.5300077198881066
Ni 5.524643378266029 4.510037612288995 8.353115891564478 -3.319297009433567 -1.5253378036707923 -1.0231059683443735
Ni 2.627690954855228 2.7797346421248053 13.097775798039692 0.2929314395922568 -1.5557444409871077 0.7143411612642859
Ni 2.7775361763218274 2.5868215675638773 3.571661578344855 0.7412932643730976 0.09653566773490471 -1.3485415512119225
Ni 5.455267524349449 5.544815911763651 0.8763029499061559 0.016892661990280583 0.8884979192177795 -0.034606277219959757
Ni 3.7182403763527194 8.057929084016793 12.645981876925957 -0.5923456586953799 1.5003546513628934 1.2132444464381043
Ni 1.9247246154016382 7.298943260294844 8.94135911050934 -0.16457708468485852 -0.8974055061200544 0.16762692725477585
P 1.5193698349001876 1.8607667378781718 9.96615508743424 -0.8609117820693948 -0.29939879248415535 0.22731534425434402
Ni 7.828966689448032 5.490038238722914 0.6473525135195866 1.3505328706103386 0.16433385832580086 1.3480314443447234
P 7.736815097756664 0.007806853250994643 3.9268048716825494 0.13228377186879153 -0.2816458393761085 0.47570962066617434
Ni 4.239074402421492 6.632578156950253 8.160958022201978 1.0790634575465996 0.6307710525511137 -0.338529697047346
P 8.523856656621225 3.5344615132660904 1.6121910847943044 0.29956514285869057 0.5385237277789178 -0.3987991833613648
P 5.834967404748362 4.436329216978261 10.589711738252051 0.40572882060166254 -0.2680200210625578 0.7196186076131413
P 1.7878586209141287 3.1469520200356778 5.29070913948593 0.8454445396717309 -1.10866816778691 0.43003474433687877
Ni 0.9015163171277611 4.42847361113833 6.612083672393618 0.24806774631034695 -0.5641182884185704 1.3752015770016122
Ni 8.597859407185915 1.6221182157339453 10.822474995037508 1.6632211811145488 -0.0898302306902711 -0.6592010257570324
Ni 8.648902447942094 5.493064578677641 2.9975961641787787 -1.0229234200199222 0.6251639907769815 -0.5532132114702923
Ni 0.01770454866524024 3.408661436606961 8.514565149058093 1.768168469951916 -0.49402153160148465 2.807418909266636
Ni 3.4477738909762667 -0.24617573790396366 7.553692094970255 0.1338133211394405 1.407264518974428 1.0499539417751529
Ni 6.982603348309802 6.139974639456127 12.189125965304358 0.6106519132037355 -0.9012909572173897 -2.3730420859109773
Ni 7.162436011273092 7.275339648368306 7.296264627483851 -0.15546020998525484 -0.9970031006097344 0.9750240252354823
Ni 7.303781724781733 5.122452916744598 9.21160298972499 2.539631058819542 0.9960451075718395 1.9011191859807453
Ni 5.865571152558022 0.2724441847389647 1.4735617183635692 -0.9558153135175153 0.590644616843873 0.5724926285251947
Ni 0.35563541852790126 9.304937521593192 8.556018647556511 1.6626997613934396 -0.48874022859788735 1.7262597455332722
Ni 3.2792555080868806 0.9093590449253316 0.9975000462815596 0.5882002690684387 -0.44333763209337196 0.5636122953164294
Ni 2.0759404285194663 1.8740771145179613 7.861875606840231 -0.07172117979438615 0.27417189959656657 0.3482533520930131
Ni 3.4836300403486917 2.737881004453042 10.015618728280915 0.5563144761034354 1.0374851198841808 -0.6859412699653541
Ni 5.93516777291507 7.269986062186995 9.713170544562225 2.534382408826094 -0.33566625945662193 -0.29449467031431864
Ni 8.872943590608791 2.243483759630126 13.099297246758573 -0.05356122105590775 -0.2987791566222854 0.3908231071344237
Ni 3.4149808759653135 4.668170773874772 4.716037537468741 0.6916437196667702 -0.5586984029545797 2.053129746854503
Ni 7.196452440308297 7.6715326215904 2.2659044313798304 0.38453701701539583 -2.25018732066557 -0.9833410297416098
Ni 4.481062016977774 1.0730720782938978 5.501096797669946 1.9918570160869502 1.2671589370683725 1.837763861652551
Ni 6.216093068408619 2.0784792425848306 11.062373607150876 0.38363738801926184 0.7818120504227504 0.9721796138081515
Ni 1.2443960346975451 5.276869843249189 4.494260170676993 -0.5204933526397681 0.9357131434510013 0.37425080459803933
Ni 6.592674622835943 3.5843823246165654 13.267733762092954 1.0045436319611538 0.11342138774664984 0.349372810409437
Ni 2.068461965348666 4.2507842223679 8.737527295747011 1.9835392402498742 0.3727415670423645 -0.6590778699156068
Ni 5.606354557043672 8.398672886275065 3.543268254520364 -1.8795028932625502 0.16107652773076775 2.2563785370779463
Ni 3.1438888856742055 7.040609730542359 4.176679367324495 0.8955946781635608 0.11133776574474374 -0.3179739843831814
Ni 1.5556491199501734 6.586079225427008 2.5683654931408824 0.6050379094510676 0.9758714608374418 -0.4960557884226941
P 5.387464631321192 2.0819931084289216 2.571718383455467 -0.5483443134137653 -1.1976288513880342 -1.2851340334895545
Ni 3.5378925916950066 3.477430182812259 6.7126795804328285 -0.5127962411058266 0.30655391547169786 0.2030107060707084
P 2.4297922381804327 6.228823933142185 12.127814525485984 -0.632585222941717 0.9532382968189583 -1.095717521163513
Ni 0.6299248427650981 0.7855035526626446 3.5007385196246723 -0.34185670453804995 0.5883432224042061 2.508156128139713
P 2.1289519700364714 8.883218428692166 2.3945303184769298 -0.5941875970001251 -1.4356484694337597 -1.8252947826512627
P 5.609224520769736 8.692457826925786 7.923549471565038 -0.8577446971953229 0.1327216307371585 0.24955564370978314
P 5.719846904646796 8.911283362436462 11.606954743332489 -1.0376674110983162 0.29297514834599864 -0.9289051193902325
Ni 3.947147579311364 7.779846156444249 10.310581089947458 -2.6554839388258205 0.49517904224469556 0.7040156109685617
