# total energy = -381171.6056513321 ev
CRYSTAL
PRIMVEC
9.23489321132963 0.00000000000000 0.00000000000000
0.00000000000000 9.23489321132963 0.00000000000000
0.00000000000000 0.00000000000000 13.51619969208893
PRIMCOORD
 96 1
Ni 5.268303396233905 8.32003849453615 0.3211203233876564 -0.5545108472357934 -0.5483551120470427 -1.2402364016459155
Ni 1.1405277785325283 8.703563608643256 9.856864167944423 1.6263651886284634 -0.2770595055570067 0.6355641030643828
Ni 6.763838938708292 4.41755733105478 2.369011450257696 -0.7519191195180598 -0.704665842958051 -3.2327392788469806
Ni 1.6994789236432133 4.2957490899020545 5.0400149896422715 -0.3143518142495618 2.4705406317797842 -1.4098147962001073
Ni 2.4950649718090507 2.346891110603934 1.6609112392212169 1.1414823861034535 0.13227143057361737 1.693788255268128
Ni 2.9944233511761014 5.158860677060215 10.216651912600506 1.0145603927672076 -1.3754879978937793 -0.12739996141392898
Ni 1.9959928741308361 8.518662577228556 7.761718092630219 0.4039948686296913 0.3528268303963085 -0.7215950146132218
Ni 7.553810171815687 6.471249817825665 0.6740594712553521 -0.02212691380602641 -0.5583896134649092 -0.13395756002678866
Ni 4.070417696109293 3.5279323655532178 6.14201756426147 -0.9969745613646442 1.183014186798653 0.5524192548140874
Ni 1.1069958813660727 3.865292248612373 11.787247743419492 1.000911177414889 -0.5991883926488262 -0.7859996061415367
Ni 8.034975811601928 0.03269983329019635 3.616408183232355 -0.1496356328836778 -0.12304708376187197 0.39578507912538935
Ni 1.3929358791531745 1.9621469905959807 13.382091633282807 -1.4632281788242412 -0.053938916110300654 -2.180582672993554
Ni 0.48105482106798214 7.505003761315903 4.253520693820245 0.2383618318764927 -0.6036893658429732 0.4723389044217285
Ni 0.1477425916932272 0.06808240305157291 5.870166319522329 -0.22818797666728444 -0.17328823930561127 0.15099368957346898
Ni 2.825387866258777 6.536595922025566 5.8726264950676725 -1.0411286301740392 -0.25120989148375444 0.8836097378875427
Ni 8.160173258554734 1.119407577811051 13.237806585599253 0.23518214859693043 1.1412257900079572 0.16956965280344344
Ni 7.178088542452634 8.897339372411842 1.2567239750947687 -0.13001965842496319 1.0122628549822823 1.7121441320674966
Ni 0.9801638583189499 1.4924695579358955 7.755676625506481 -2.201198549471693 0.6184539257466575 0.4690445499411729
Ni 9.176611777317044 2.6050156101080932 4.950524257201749 -2.094462801275335 -0.5350383403334785 0.9166867229471697
Ni 5.473585836915023 5.523962179256807 9.744490293672788 0.2597855489679074 -0.5186922948752873 -0.14152277396855628
Ni 5.556699875609075 1.7805058764767252 7.451143093774201 0.5005588184993701 -1.7895006557707889 0.1754158271715753
Ni 5.191441380228283 5.851339142779487 0.39590171795796986 -0.5330328798676756 0.036834395219530115 0.8213713007726111
Ni 0.9404907571823227 3.5143016632073936 3.0941417278225862 0.06265598426832435 1.4156848818276393 -1.726321452009143
Ni 4.457285841550537 1.387967506617908 5.263275920382234 0.9026024769399617 -1.406788607779274 -1.023073058223909
P 5.863298329458243 0.35873773730058417 3.459457479541145 0.02343380554290803 0.39108458832592646 -0.15636292430518234
Ni 6.210613427374308 3.9494128906639414 7.859764953609635 0.21327557833182623 1.9149398939139217 0.8374949458073512
P 6.606430184314947 8.827532814802026 7.458400796330829 0.08882647201610509 0.00975347984233804 -0.46442556311192273
Ni 1.0420099380005126 1.0244267013701265 3.5282685156652698 1.3404574886522076 -1.3660129685238087 1.0428165593994234
P 7.763774703343238 3.143751574029747 0.6433451400006248 0.6073706713493023 -1.0928988207677952 0.9070378870034961
P 5.932199867535612 2.961842648008033 10.142178039973363 0.6703192471573811 -0.15453024197181772 -0.3250486318417757
P 7.79399127385512 2.773127605706595 6.791471586106107 1.877809050499895 -0.3518716655718908 0.9328569049491289
Ni 4.182880225355532 3.2120713138362573 8.844028181014838 -0.5593473493924883 -0.23390122500197782 0.9353786429297182
Ni 6.129937400481949 5.381911052235484 4.225704272047983 0.21366175802665138 0.2254736630599149 1.145218713217434
Ni 3.0870031553880866 5.103820713658377 1.3228347284506552 -0.05818972096685462 -2.030760378020367 0.9540060282229184
Ni 3.2413182205633757 0.14195323715352712 3.0218842295606154 0.8081018373572147 0.7671688465882788 -0.5967473873075012
Ni 5.06784156979704 7.920647833931666 4.767731551901921 -0.8186076219845451 1.164461620607446 -1.0436205433579575
Ni 2.79133881507378 2.2532585285684905 11.33044098139584 0.8227748659883571 -0.9837027839564026 0.350338516756816
Ni 3.0252771293179705 2.543271114251601 3.9047760344386417 0.3790091452186311 0.22429455515014918 0.2293614281500953
Ni 1.5849847178955632 6.5364758684141195 11.238976752280994 -0.6168446722780085 1.643555584364821 1.4658627882336108
Ni 3.176895605682297 8.767090438885075 11.455168372285366 0.05970410072885202 0.7931279896562018 -0.48903307724795775
Ni 7.6531314480550785 4.691371914085741 10.390213418669381 -0.8769228127856704 0.44304941142899185 -1.7507574735643203
Ni 4.1960584179351335 6.766821809208089 11.967418662543182 -0.5680016826333766 -0.770614381934718 -0.3062050167727114
Ni 7.624641802569395 8.23340596153738 12.606167596204026 0.2765172599002915 -0.6278078561577316 -0.5503292050542781
Ni 9.051931484382777 1.9011689908741116 1.9334920405222282 -1.1904626726568983 -0.5004688298887252 -1.714072716548777
Ni 7.246020416745237 7.595367191162713 5.583866160900886 0.6551047442004718 0.8961425802472309 0.061049044792520664
Ni 4.698242674617782 4.042491379108091 11.554606931668248 -0.5759008828757953 1.4429948824965018 -0.8108454615406229
Ni 8.55449396279888 7.358132020050325 10.52563204540292 0.5769393514426386 -0.09880132384062985 1.5704313535753212
Ni 6.14004037362987 6.3514732531743485 7.493746426519452 -0.44500524960378196 0.8026485275521273 0.3251450482103239
Ni 8.375503263024646 9.268692897296864 8.79470738696447 -0.442384009930851 -1.274339771087528 -1.700462324854194
Ni 3.7034138059159254 5.354354130961813 7.8741593816221265 1.6233623972463975 0.5029170343189016 -0.4762559800879475
Ni 2.662816806573212 8.881676993564607 5.546777906367643 -0.5400563623733602 0.9492528298086489 -1.639516895519073
Ni 0.44138171993135483 4.126658195625601 0.5056547295427838 0.7998563095189709 0.16319794494914475 1.8586954695988958
Ni 6.825075515439431 1.0234108631194214 5.566836094372475 0.8714828727170217 -1.0993877709262487 0.06876055450416546
Ni 4.577127050454172 7.122845411400653 2.414776810430597 2.4707728023952478 -0.2662539303010705 -0.6576611920737383
Ni 2.84423628325595 7.251312010542092 0.8707423793995935 0.9223624331757083 2.0967860500918727 -0.6767462337296474
Ni 3.563108073707178 0.6998266702291459 0.0577670273603223 0.4212217740309391 0.31408210552794297 -0.35343952427964287
P 1.7851972022163451 2.502554470184704 5.979444657597267 1.1205762320784056 -1.4467533210976695 0.454172775035663
Ni 6.500764536455242 6.2053495382570185 11.869926818644378 -0.05920170717113674 1.6558135757965675 -0.902067430372098
P 4.742856443610111 3.5629972549889195 2.5329899076651468 -1.0132840971579453 -0.2590576696629474 -0.27893589664411317
Ni 0.7213042613170076 7.220024192420375 0.20041011103501002 -0.4299948922378788 -1.04768417190437 -2.344966410720684
P 5.739079781183389 8.669690020428835 11.476888841064078 -2.2507069406144655 -1.2959545211438261 1.0841298163259134
P 1.414093019447405 5.697273419720281 2.5768768905635624 -0.8622058182904698 0.7637539073694588 0.9162051553250607
P 4.910442050296883 6.034587128313495 5.7634829864332815 -0.6840522804727575 -1.056002461962078 1.4725738817051992
Ni 8.048467990549929 5.435325674436195 5.9326117437718064 0.715061327259762 -0.7874962452917212 0.5946843341308855
Ni 0.0255797306420726 1.42475008618662 10.296113551038616 2.4492575540312918 1.4641820580970784 1.4738699748088036
Ni 8.763664293512242 5.361409589357619 12.362092139707118 -0.8779311994455267 2.0738394685980284 -0.3165105124637775
Ni 1.7423472978229675 3.2727260922965384 9.399638141770023 -0.9620906050032656 0.45980940449615004 -0.2878347417956397
Ni 1.6428597935061877 6.413744137942571 8.61115742042321 -0.39548683115868016 -0.1578986442234184 0.08737097051650115
Ni 4.794156275270717 0.5017853092969162 9.68449211611819 -0.8004281228620409 0.5814763200810437 -0.45722570292937387
Ni 5.757254050977822 2.0566938270570585 0.9324056081960291 1.3609540659436625 -0.6823291271340637 1.1549274558647658
Ni 9.016303266462595 4.3127505282615815 8.105286594379821 -1.5711332647383522 -1.7623027551997585 -0.2849304236646512
Ni 7.662523334427506 2.2644050446466815 8.890874947180084 -0.25641611827504224 0.46275717427056434 0.32945755954274875
Ni 2.864885504424828 7.222480674008444 3.651968986432264 -2.442207846273362 -0.9737482438468521 0.4634405734908342
Ni 3.753272994239168 4.908641246125179 4.077107452734845 0.23776687860497117 0.2788014279487779 -0.9706253819471541
Ni 3.9360315304341995 7.180886715088666 9.429360645496335 -0.5167737376963357 1.64599299016172 -0.19280085541724215
Ni 8.082932611928396 2.9837201099709447 11.741266286745986 0.25955440679370784 -1.473847091990668 0.5959074079047092
Ni 6.544380936983242 7.9763711794294325 9.520919070521701 -1.1416183974606855 -1.093190383866285 -0.22988593319499764
Ni 4.449205310010838 8.475683384330543 7.037830831688464 0.663413006955851 0.007079018333968453 1.1612893935270516
Ni 3.210870777721788 1.5338603492055332 7.290219539033416 0.7382346800524319 -0.7003260779321164 -0.3404425977993427
Ni 7.103793826753339 2.3622395030827685 3.3962427886890874 -0.5690139259479748 -0.6001389294875534 -0.020767314454338427
Ni 8.418556335068164 5.373267192211304 3.4810837524093374 2.66889995512141 -0.011400271417141656 0.6265205048048759
Ni -0.12475232510113372 7.923723053363346 1.9971130666745684 0.3631945467838777 0.36499971831341654 1.510133070905896
Ni 5.305030566443487 1.8175562679478956 11.973244033166317 -0.23922006611172994 -0.8081617440608727 0.4064042494021323
Ni 6.568382424379448 4.265421700671913 12.95370987249252 -0.5574753291807562 -0.398013711345592 0.6533530516166877
Ni 6.970266506144751 7.014991093855339 2.874112086209186 -0.30151069662083557 1.6057670527621377 -0.10691521119701586
Ni 6.3213952060602905 3.3646502190921597 5.584393473301933 -0.8489731216502799 0.7883840472133132 -2.3340482211462836
Ni 7.151547459429666 0.810360030288365 10.919291531294787 1.1915646474718253 0.655811026238877 -0.714889063347956
Ni 8.374847585608281 6.412035682702748 8.501811667627996 -0.3522642730246191 1.1060243024061598 -1.4397750900076236
P 0.642703314924043 7.125532765318428 6.590093658264971 -0.5254285851578564 0.007987903301483017 -0.22358261668478915
Ni 4.101844037628832 3.208128014444884 0.05237569671703482 -1.3395506605672218 0.9398701030421683 0.13932448076565682
P 1.792972982280833 0.1871691211817288 1.0767109726445978 -1.000889065927702 -1.0834258482803534 1.0286286979348156
Ni 0.8249197628889252 9.193973376510913 12.250934500868373 -0.1142323136837194 -0.7960791018647257 -0.14780629298442285
P 2.5748359791689643 1.324283683191888 9.325745143924417 0.353075713182321 -1.785533186482609 1.1479646513936876
P 0.5270399716987633 5.073419445282729 9.992769473548979 -0.2215966966030119 0.6492765675544688 0.45933400752162823
P 2.6684131518452783 5.08404880734238 12.67576267475983 0.9819886294787735 0.20007527759146834 -0.02822222807048688
Ni 1.7465307044372347 4.406577043053978 7.20047115307294 1.2938205055199588 -0.23071074308913816 0.5641280586105833
