# total energy = -340887.33604920685 ev
CRYSTAL
PRIMVEC
9.11395481192057 0.00000000000000 0.00000000000000
0.00000000000000 9.11395481192057 0.00000000000000
0.00000000000000 0.00000000000000 13.33919411991769
PRIMCOORD
 96 1
Ni 5.377324606678481 3.3134694903544486 9.591908147267763 0.2342858620349062 -1.2975774014592298 0.0001318975921739664
Ni 4.715214001729448 0.3009099848204935 6.3531648855918395 -0.39232848803535664 0.42575617156618284 -0.7109210798391434
Ni 2.7286543380066273 1.88049145509496 5.195402773135002 0.36873244588297144 -0.5741934132663853 0.2788147976852166
Ni 3.6038674394444583 2.794502663091375 3.083475189614844 0.5136081954841606 0.6640555256358563 -1.323572797081727
Ni 5.119445249132053 3.385706697914547 0.4660502929690176 1.0349901213764692 -1.1452292547403953 0.3011841665193522
Ni 4.981068069926278 4.976374383086326 2.4967907650905685 -0.30799167635948893 -0.4436147970141586 0.8182163000833972
Ni 5.278429080658467 4.909514408993356 11.513111639477403 -1.1171348104970245 -0.1395273408050823 1.1212359771495914
Ni 5.675870431564443 8.124507615259127 12.617490583142699 -0.6348544785918679 -0.04710132436317694 -0.13647029914631337
Ni 2.4872165553325716 5.35738327307496 11.664191849202641 -1.6069610730702388 0.3442264903218072 -1.029215423676221
Ni 1.132263089076616 7.9831866285789745 11.704635936039468 -1.3800334511726169 -1.4973017234691826 -0.6246160886933114
Ni 8.115940497531838 0.11634145873658436 6.9231087975187915 -0.7052767370691725 0.25563733112748876 0.6456088888948945
Ni 9.053329000177717 2.4472609764853 1.6561140848397473 -1.8259882091738617 0.008695985112101153 0.01301440998179694
Ni 1.7431714946725525 1.2686169702659464 3.1842254054832653 -1.010374122600002 0.08604633816780664 -1.935641388127331
Ni 1.6957607006115343 6.878320088319625 0.6801051977583502 0.8739233638377142 0.1315677196383734 -1.4668750315482093
Ni 7.937370776648037 3.840137609617053 3.9832431086918896 -1.956939892494791 0.2158610796708153 -0.3210449099990213
Ni 7.712894064283008 4.24622810384558 13.255730828475198 0.4140082870016354 -0.4221828523926277 -1.2892004902494443
Ni 6.774357203303471 1.08342140407604 9.264871187565547 1.3114495314556318 -0.1138330213627717 0.473953557207016
Ni 6.883059344934721 0.5905186654049888 0.6888117589975833 0.39521609399579677 0.8255747973309976 -0.7555551736087504
Ni 1.6163599243986178 6.9107657682229755 9.290255375112402 0.3944085104928368 -0.13101467534838082 0.2789196986941971
Ni 9.24100356213552 5.402779883074563 1.5976216328589303 0.6111159973243474 -2.0566033072254 -1.451944635490622
Ni 6.270009159906963 2.0913519186466174 7.134895238901398 1.5676471059619648 0.9290023070897291 -0.8846749459272636
Ni 3.2133891501806606 4.681966293783544 0.5907273749751536 -0.5350550525040269 0.21204967634452512 0.39660448970289114
Ni 6.025007820816556 5.90083018354601 4.946053166100244 0.06076853743762438 0.9420367716761842 -0.5370746540372169
Ni 6.561573695240688 2.1377692916094713 11.972033908218215 0.10083326666899407 0.5164670050891944 -0.06848518935559172
P 0.2440343484618266 5.885072155300817 12.372209445632901 1.130216326271331 0.4211934918961649 1.6274000576508811
P 3.9670494333963076 6.405506329323564 12.714653546311695 1.0992103648081197 0.8359463703733088 1.2258302535229146
P 2.3459137965624777 8.79883091994706 1.6875681664359385 0.9252526102393098 0.4092036665241405 0.6290242450633361
P 6.430196033497208 8.026605510337278 6.079498335144126 -0.40638728012126785 0.197635300691408 -0.7278523083768432
P 4.627902312551332 1.230639119659975 12.886929169852447 0.8305773927519114 0.2713344301477714 0.3814874315557946
P 3.9835912617739986 6.4998357638740325 8.509618696406328 -0.18515310906399726 -0.6027537414025813 -0.6418059702090366
P 4.860025633185719 1.6074009066050803 4.39286343770316 -0.16827767346489728 -1.948918307741895 -0.1612063684404127
P 0.10230596799187687 5.610714767061902 3.6905684936356282 1.3529563924501666 1.6691966819716928 1.6449388378655927
Ni 0.700043797175361 0.2637733522637016 5.095585826261553 -0.26475240605487954 -0.9246931381914139 -0.6186943238922378
Ni 1.8414654996606503 6.610415380241265 4.951241740698271 -0.7384804775146507 0.5641591689588349 -0.1328321881730938
Ni 8.033377178923848 7.173530205664964 9.242247616996982 0.26540212382373646 0.8487926302083576 0.057080289952759766
Ni 8.76685005175019 2.1794291800471717 10.619386272584604 0.007048422206349151 1.8647609590666852 -0.7499020890880311
Ni 3.0834150375116525 4.4872101887681834 4.730011419114583 2.753161433474652 0.22911125981250222 1.1161775887900776
Ni 1.4638287730327577 1.3150434571838294 7.301194842129616 1.0338812045830066 -0.8461467079450782 0.2823994297126814
Ni 1.5368042109502076 1.341246077892293 12.06127319888497 -0.2437585774120318 -0.9834132777404418 -1.762447765418055
Ni 3.8998795848323504 7.361933884025088 1.853147767216862 1.3822764815705226 -0.8507065594016188 -1.1561644135956606
Ni 5.641939176991362 8.063243609553982 8.437787059845022 -0.16762538459287904 0.30365988175335445 -0.4023879291538876
Ni 7.057919686121707 1.0665059035421587 4.936942856653224 -0.9931035084450122 -0.039728686048189646 0.12802062571706338
Ni 0.5589360770428883 7.588160475755691 6.943330840937205 1.0125004249143852 -0.9240153953980991 0.5515695052192824
Ni 5.06680304488437 4.79193527516383 7.046216456468929 0.28123266309808986 0.15308708176738797 0.12084056302885639
Ni 0.3182784489193175 0.11724738586647002 9.264457414007229 0.2866517772311321 -0.5877037890479943 0.23408043089231942
Ni 4.902724512496729 0.828000991596445 10.652867297779252 -1.6270691566740239 -0.5666102016024887 0.41259700847640557
Ni 8.228051258343946 7.525328869785553 4.758397743448002 -0.4545697533637655 -0.18281263385627872 0.6901103137413793
Ni 7.207743992843945 6.3255587158089055 7.077576664328321 0.6330135687283872 -0.9909311833840417 0.23654971836841843
Ni 2.4762615813876763 5.615745670237926 2.7821687477505876 -1.900478981293585 -0.6785974280057732 -1.1136926175846948
Ni 3.467577355940331 4.4802288992159465 9.285666498755285 -0.6793448476947591 1.347715969986834 0.16232531253620433
Ni 1.1111551692293806 3.635565775035427 3.95006922378172 0.07240380768370756 -0.5293675152009464 0.3323338526492793
Ni 0.5607315261836073 0.11489142849146555 0.7696087931209474 -0.9789516424246625 0.5235539938429629 -0.46750291648566583
Ni 2.469307633700526 5.500764013591674 7.0761494189707745 -0.7018612836297202 0.7678373334102131 1.3642291371505086
Ni 5.568025001705921 3.535084420840362 4.751434681805823 0.02238659522531628 0.21381936665043821 0.5099184053373992
Ni 4.060914056240296 7.009816231478482 6.194335079905417 0.6946192573553264 0.5142540565982756 -0.19605355802658492
Ni 0.5594801801581214 7.653352596078349 2.765801907309454 1.1631462442301321 0.2309441992561829 0.318972857961341
P 0.16492704160084481 5.632606487041634 8.068985401222271 0.10008867519348569 1.0329214117728986 0.6519291746859674
P 8.62628552333745 1.829863434908694 8.241114290087056 -0.6721863822731068 0.2807436392768133 -0.08347163546209495
P 1.4613680051749194 3.5244757771865705 11.028112522607527 1.2213390505207804 -0.7046265050796833 -2.1305983706556275
P 4.063292798502873 6.429977298576512 3.8896956514829113 0.7435486360661776 0.5430568397625809 1.3759014312821143
P 7.051731310656995 4.0895501029415104 10.846485981206989 1.2070665997621663 -0.21922485393672567 -0.7474418004729966
P 6.5098428864959095 8.328058686877501 10.52205014427006 -0.18160678647363562 -0.5094607489746903 -0.31534683117297946
P 2.484136038532759 8.678289750733098 6.122569975215822 -0.39396756630067636 0.0729995322861775 -0.4292238183998092
P 6.854468868008651 4.045110458219956 1.8767583791150693 -0.10062989240893637 0.8051908343580069 -0.21498536193408135
Ni 2.7936732931837334 1.7162853273369119 0.6672198881383065 -0.08305331697775374 0.08686497741436007 1.0000583424962906
Ni 1.0046950605352716 3.4955025141492815 8.157344283833222 -0.6891600340129679 1.2844107821702846 1.3172391415542153
Ni 8.22923607249772 0.10591053720585857 11.55080878026848 -0.5865077118573641 -1.2821785504056562 0.270437886475431
Ni 2.6548768720466227 2.2486587824476896 9.491036715797454 0.19548148757319883 -1.317226543148725 0.45299443845684567
Ni 6.317656916798736 2.1255201360504543 2.6839923127823644 0.3691001136350353 0.12890894185928767 0.35175905125342644
Ni 4.451529054829528 6.983914371285977 10.612209944394746 -0.0990761747685713 1.0893296153592982 -0.14479553118255709
Ni 7.483860374403463 6.586363652919651 11.655334907705429 -1.04168578822909 -0.551636868122108 -0.9287716791361617
Ni 7.518374922098403 3.8313426430140383 8.480672775234126 0.8686495170332846 0.09966598583377029 0.06585880747633818
Ni 3.131527606109906 8.520900861336765 12.503280878487406 1.5540801659108074 0.4953487350533404 0.6114281292481276
Ni 0.14098650453058661 5.243012251415653 10.262376248978414 -0.5234434364070275 -1.3699513843462663 0.21226076391406667
Ni 8.97815709909827 2.3045637825957646 5.915386081122876 -0.7030756156527956 1.9558569438432574 -0.22744827028778247
Ni 3.5135390311517334 2.973573651501773 11.896080029797279 0.29957696993323246 0.27058649623815334 -0.6098906095576787
Ni 1.052397501157219 3.2780982308867803 13.096541021565127 -0.3136401328945179 1.9100758809534006 0.7815824509104474
Ni 2.9418024042705713 8.601422654018252 8.283306433498453 1.3272070514002046 0.18944350890923503 0.03120033686220433
Ni 5.782531047269191 8.415388603965674 3.6166287992761066 -1.589324076714766 -0.7524698498152074 1.3982420037608436
Ni 2.9971149973417592 8.501050667283536 3.8898159556892944 0.9999858373871423 -0.18886655335984245 0.3740474303379816
Ni 3.9318331111641323 2.6557700396394677 7.09343676886984 -1.606609089047459 1.5448596757538038 -0.3020511425053379
Ni 6.0635963064094724 5.718724248110946 9.19155853331202 -0.38189675117907135 -0.30948214486208636 0.595967057498051
Ni 7.7478551957743695 0.003008516555083077 2.825028032670108 1.6204243976639963 0.17356437578513334 -0.5217930452877981
Ni 4.6806083144842185 0.5879904542799356 1.7888123586669333 -0.5819450321873462 -0.15126211274350726 -0.19111189775059345
Ni 6.064462132137231 5.887696974349178 0.569950291695472 -0.8310713016691946 -0.13324767844395763 -1.0193009927759864
Ni 8.253552104515174 7.35335765234277 0.4517842191620757 -0.26024166266871956 0.10538514770573465 0.023266940947740577
Ni 0.028515742494831662 5.116346504422181 5.969663328902767 0.12010291353188347 -0.6001749249318116 -0.4823037289439242
Ni 7.5199425223633956 6.476358215719249 2.6454421058005697 -1.9264118991092631 -0.7847238247529066 1.1263684132801506
P 8.692370811252951 1.8064132286189976 3.6154020609291995 -0.017830086202885422 -1.2677662316350682 1.9115167271649856
P 1.7360170399747636 3.480355120891032 1.916521653511228 2.5247510563839164 0.8052988206907807 -0.9156353988645198
P 4.7026549716994435 1.3812381125596802 8.474563691178167 0.11251275988945139 -1.2508645707837232 1.2698706795725807
P 8.532995079660289 1.7037536391719943 12.964749586263329 -0.24542079560580313 0.6976690999252436 -0.21986634417546652
P 6.243113878616293 7.755082562112392 1.5169467257329554 -0.5374382080242228 1.8154397442340542 0.0954321502580808
P 1.9186698127115704 3.6871689884097996 6.278772227667376 -0.14597463909232278 -2.5884527083079356 -0.9294694765341347
P 7.232606862163141 3.9874829205713946 6.183797525100851 -1.5796667561306603 0.6005073685705659 -0.012711534029397462
P 2.2752441892673727 0.12467799340163885 10.270632580839214 -0.016223918058030123 -0.40511818360085716 0.8211198468834375
