# total energy = -340897.08468285366 ev
CRYSTAL
PRIMVEC
9.04826865155538 0.00000000000000 0.00000000000000

0.00000000000000 9.04826865155538 0.00000000000000

0.00000000000000 0.00000000000000 13.24305578456917

PRIMCOORD
 96 1
Ni 6.4438603437811715 1.84657069493567 11.331870868892269 -0.48863275648574556 0.24908127517652587 1.078684476940626
Ni 4.523627692615242 0.3638146012157605 5.901212138865946 -0.08629059296812881 -0.09220310179782185 -0.045500555534960345
Ni 2.732604319789578 1.6663020358059004 4.682850983363244 0.06932979674407415 0.32224278696186437 0.5372690294362102
Ni 3.4525026813657824 4.3090479982287295 4.786662676033112 -0.1736739047798041 0.340639030080865 0.4197673009725996
Ni 5.051259390644367 4.435859485339291 2.8552427453335762 0.6040176957166695 0.25469656448077427 -1.318070379206259
Ni 7.296460615451096 6.00821334628476 2.765958048208198 -0.35477726925445996 0.041515859855599475 -1.6327785483539752
Ni 5.097767492231829 4.46105891392316 11.69568456528115 0.7125321330800052 0.0686808503061656 -1.200326195714539
Ni 5.304791882177577 7.816627491727369 12.342144462866242 1.579562369342312 1.0259475515582268 0.41382471023591955
Ni 1.9532045426415543 6.425257103146186 0.524708202382644 0.4948106031616833 -0.1153733692666981 -0.7693897654989975
Ni 2.6550606562478363 1.7518624654967654 0.36689463191233096 0.22698829993222844 -2.0464425646423146 0.33454474425766895
Ni 0.36683853264582467 0.04462877615950218 4.856970439022423 0.924633231487756 0.0647851147961852 -0.44596658507578685
Ni 8.745368945276379 2.255986761206001 1.3283184323356434 -0.3359627076511182 0.8050381108302264 0.2662953250619672
Ni 6.844761989118856 0.7804629487310059 4.9142468852984535 -0.5278317952827103 -0.19934251319050186 -0.9394443283586594
Ni 0.7989485618717035 7.39191080293089 2.3931919946771694 -0.38867854998759516 -0.18814407337152114 1.0207878617341581
Ni 7.546889550788878 3.773960526715545 3.7340250875781082 -0.352667936220941 0.05884458094203414 0.5012383610648979
Ni 7.562651635023384 3.782782588787097 12.591577183810097 0.3007380801208691 0.38093721547927945 -0.05036354005421649
Ni 7.9789624821127125 8.912716676572122 6.825908111438351 -0.047580320882124515 -0.5179685293353854 0.8223750594467772
Ni 6.865183931780899 0.6001870509862033 0.44115920284409305 0.6858044872771737 -0.4196886252158643 -1.2385811254306798
Ni 1.9668945733228442 6.466254809039726 9.25647217070437 -0.4386656805389994 0.548599623957681 0.03009424828221914
Ni 9.369934746867076 4.889774937525408 1.5133636725603588 -1.3737324486552536 -1.0145799331512333 -0.477042737655301
Ni 6.383924611307367 1.9308100773829997 7.101774444829213 -0.14856631107889898 0.487160028594961 -0.30808500740424355
Ni 3.6064951679255146 4.269697077255214 0.6238871814313474 -0.38700424760896573 0.30445666662303694 -0.12459488786496604
Ni 5.851081110454434 5.58973091468551 4.737597533685219 0.3826968784828635 0.8791319046218473 1.250478391088898
Ni 5.280660149311085 2.7218730730030547 9.265875131632328 0.3934548883303159 0.612130811742107 0.3488107672583799
P 0.3623397334027729 5.426083925325424 12.530566517003884 -0.8832778084694208 0.9933032831606441 -0.6233541912617523
P 3.9717647307629216 6.131242657040542 12.689920102822482 -0.5022526612620253 -0.6178209201483489 -0.5437638931319344
P 2.3514731417609602 8.524889779637917 1.4064122306198985 0.6463923040281383 0.4263071589736464 -0.13516263607848336
P 6.190092597259387 7.785962908793534 5.8307849387285895 0.5848519214214959 0.11707749644199836 0.5132739520731935
P 4.6967120263246915 0.9736208667540323 12.576917178714377 0.11928890227102036 0.39560690167631224 -0.2333129565986756
P 4.081085914299833 6.075668190124162 8.223792348722416 0.2747815081561074 1.3095721119272608 0.527901215068065
P 4.88192104021453 1.037981202666799 3.796704255149445 -0.9152620746855011 0.8053772393372001 -0.10403660409764016
P 0.24320117822726345 5.6565795245158945 3.6119639415829976 0.131260987031232 0.03914273163773259 0.5299894650556615
Ni 1.3708308184248523 1.0759839315904063 2.6555375000131396 0.08040199539783573 0.4483119453795118 -0.4263770929796334
Ni 2.001829939126189 6.56014869428741 4.824776698662853 -0.11059625959302888 -0.36991772444032417 -0.6320846291562147
Ni 6.15304898482766 5.827474177177841 9.149679978294639 -0.8317978954225739 -0.14704910310342414 0.8005178543623698
Ni 8.535141468178498 2.3464694491193523 10.238789328593757 0.8701104178495274 0.6684922212509712 -0.24464586511299155
Ni 2.42994877698821 5.228044466289472 7.209255210493966 -0.5962786752011988 -0.008134713291992442 -1.6849480312686786
Ni 0.5505681545882799 -0.0018340840840036273 8.988605411751928 0.3426252072729583 0.13576607399043714 0.20309606669566313
Ni 1.2458018402661837 0.9375092260078137 11.385942418362408 0.3191322663573407 0.9988380969359443 0.04265820099015879
Ni 4.2657882251373564 6.769950902752097 1.5518477693836654 -0.51296336281131 0.7624069064232611 0.7314958186667014
Ni 5.663338581303021 8.157548163247293 7.983562621966227 -0.5725075409235301 -0.26336143924462385 0.08041947889933247
Ni 5.359081494925587 2.987403568953575 4.921344347338377 0.4046008776448064 -0.7581411891683717 0.1567424191317881
Ni 0.7977225214504776 7.297012559847367 6.726479400171007 -0.4450186193402207 0.11194120365669755 0.8836470188833814
Ni 5.232885290092836 4.447287448822748 7.2857203203957805 -0.3419384656185789 -0.0037715512272902788 -0.11259323541839963
Ni 8.231553953691623 7.129203366843267 9.154368791182307 0.3312948698618036 0.7079923362281225 0.420625792318153
Ni 4.578758794360846 0.49797961637304017 10.220593260054383 0.8707465087716294 -1.6022896357364984 0.8928284282723333
Ni 7.923487546153036 7.29561007818471 4.636367312101519 0.5444303230713399 -0.27067519929721773 0.5722360324296983
Ni 7.276744437754776 6.2618182239683 6.990956677634216 0.12360655580976776 -0.3610268497085976 -0.38708703713075915
Ni 2.3168906584404776 5.237753258702575 2.7172765524570566 0.7450948975073749 -0.33211016667424736 -0.13033693255506584
Ni 2.313660426481971 5.131083217921525 11.480577356824103 0.27405208618925064 0.11998207168330305 0.10535583712969598
Ni 0.8473269406183349 3.403162471646632 3.761425055132029 1.1753240172432469 -0.03026959751781884 -0.3516137839248138
Ni 3.812180414090145 2.5296787956063054 2.5484675257515126 -0.6269686480858879 -0.45284788557665234 -0.10215069992883696
Ni 1.2008138478356656 3.368969063884177 8.088434771738438 -0.9385665537393965 -0.08078303288633829 0.3010134452694429
Ni 3.5564220484342663 2.7814287781876224 7.02628835761062 -0.15533705414382926 0.28422388451592984 -0.2652257461468722
Ni 4.112872482563793 6.953856965935984 6.084601545901847 0.0109842669256456 -0.4082256188815873 0.06977228359813145
Ni 0.8256373354986255 7.351890310066815 11.435697038792203 0.6151698556787469 -0.7306699803312965 -0.041912838183702006
P 0.19423104270167865 5.5886089293553844 8.039621171262944 1.0326869271645893 -0.02169651113682715 -0.7009454566836703
P 8.45876503131084 1.706847328259873 7.953289829071057 0.8771542120701862 0.26853347036386654 0.2475815507025478
P 1.8477469698785436 3.1414593933948467 10.292092680043512 -0.9344329911869972 0.32521549643694314 1.0721808714941534
P 4.004845201464043 6.2060265986009275 3.7353235141496652 -0.5033561787388493 0.4646795881042578 0.29488085000914377
P 6.9331273821350345 4.083854684549982 10.379669064021085 -0.3314267674539776 -0.26945881039161335 0.13544777141906994
P 6.353106207804079 7.823703237922192 10.23541251468083 -0.8118610472893308 -0.05025966748650054 -0.19249875079579104
P 2.3764644601626284 8.58597464224822 5.646441844162083 -0.34244523005166827 0.30468832301786886 1.0104697676376018
P 6.907629360681052 4.031818090731013 1.6035749124099699 0.3821911424910386 0.11279686678877347 -0.08245167883801284
Ni 5.507210703308534 2.8134777462465315 0.46447749634624275 -0.6939808524403791 -0.46472072575483836 -0.6977120373480371
Ni 1.3996857476004199 1.1888429882247293 6.909842567227413 0.16245592457679764 0.02976231886409713 -0.21110813836686224
Ni 7.022252829729685 0.7335485798748125 9.233257027466443 -0.5228327994062222 -0.832267893080457 0.020476265576480863
Ni 2.7602920222910634 1.5270220343008791 9.224304670324296 -1.024080930663133 0.16489795835938695 -0.4383183245019096
Ni 6.429681706585148 1.8986525300985948 2.5267353937684844 0.764905761585715 0.4165073992744052 0.5598700546651778
Ni 4.052375757424926 6.77539796056448 10.513105693540663 0.32010131513882933 0.43594956715941696 -0.5819293484580623
Ni 8.184620583470968 6.935072759925172 0.3772295645257939 0.08516419267316945 0.6892032285460776 0.7261106430953882
Ni 7.688540198717229 3.9434255529084603 8.179096615373858 -0.10254767825693953 -0.5075432202370033 -0.06223355201892508
Ni 2.9315576539734542 8.307351301356638 12.550298076757146 0.38149514486527847 0.629803803541838 -0.554692110008664
Ni 0.16432832400007438 4.766112247954231 10.072019781673779 -0.05984936805746466 0.16380035441983404 1.0249144823080218
Ni 8.492804618503841 2.3243554801933293 5.735660488925284 0.5524560215892936 1.2330406552284248 0.4960958976320102
Ni 3.556069165951404 2.7559126601960573 11.727878305640722 -0.18460546409064335 -0.4707121674515829 -1.4359716571011334
Ni 0.9868403874581727 3.3898434199857865 12.606303241267996 0.2628415621854118 -1.1131390590740702 -0.21995941810990505
Ni 2.9632084982055447 8.41016677963258 7.884094098316201 0.3660937227085437 -0.24723779420988387 0.15354550946104523
Ni 5.601005057599513 8.001121692382693 3.713154350784015 -0.6274309324342872 -0.8011549737257364 -0.7416398490792389
Ni 2.9877926445116025 8.55981609717247 3.513237375973861 1.3844076689809124 -0.7644658458348189 -0.1392504329946118
Ni 3.495273847942424 4.310577155654465 9.44441738107671 0.4062363563657004 0.06370268036528384 -0.19015133360953704
Ni 7.412414180012056 6.240346682126462 11.467440175365963 -0.08006492377339114 -1.152110555241261 -0.7231960405517546
Ni 0.5135326855984661 -0.11264551749084735 0.3251395859209568 -0.22856464328041282 0.5154925569910671 -0.12158566872499704
Ni 4.82343303074734 0.36772073885297984 1.5301292098038235 -1.7482725023589374 -0.8671639336266938 0.36456931564421724
Ni 6.086453726523434 5.659257812078129 0.2622577371286943 -0.1411509924514343 0.11837333243528644 1.2065541789021221
Ni 7.992362968192679 8.646733767182035 11.380539697067102 -0.5217570498435402 1.3308721589566177 0.3944157095816884
Ni -0.008175110852971275 4.8978731380936535 5.660135494150889 0.5697366630466123 0.15170665648009357 0.9044973799698294
Ni 7.9731263487423005 8.791497019574605 2.5360849699105708 -0.3645798571671786 0.26399084529850664 0.21057746267437283
P 8.492496977364937 1.6319095661300356 3.62340638229652 -0.4929095294842285 -0.08140832517516303 -0.5033600353935911
P 1.8731816534509866 3.224812045500626 1.6320208598361692 -0.6077789625313147 0.4719735506625098 0.6327456597789812
P 4.519130703025948 1.1309883575729325 7.964162228850725 0.58931458517854 -0.8172907029453343 0.8840941337231291
P 8.45287460832768 1.6580771594745767 12.469145058794542 -0.2532539184969767 -0.7517964778972664 -0.37348692984882126
P 6.296491189976696 7.664761348333601 1.5234678743196426 0.8102245401271724 0.032052400449854475 -0.7977379776243874
P 1.8166390217739334 3.4085280950398937 5.831924115769419 -0.9781556288859282 -0.7475677845278996 0.378221102099697
P 6.946953136848194 4.203002287994282 6.058049401133674 0.24100364037471395 -1.1664462551376427 -0.7983802391940766
P 2.4029668394524486 8.535503398930153 10.234975483298209 0.0649810328570752 -0.7979948308302 -0.4376326112887947
