# total energy = -340872.9951422813 ev
CRYSTAL
PRIMVEC
9.22730188221509 0.00000000000000 0.00000000000000
0.00000000000000 9.22730188221509 0.00000000000000
0.00000000000000 0.00000000000000 13.50508901459260
PRIMCOORD
 96 1
Ni 0.7671956879580323 8.8996401317549 10.487214905972033 -0.3939397983865345 0.1961612872490428 0.5506274530209873
Ni 2.741495900035566 5.487180995002979 12.53590931456613 0.878613827334848 -0.5790096037081061 1.0494209520898186
Ni -0.20034409532983813 6.059836560345119 7.153483106573668 -0.39132087270644866 1.096757789502569 1.8593215332186686
Ni 2.303282119180221 0.8867178484683894 13.011437380410229 1.7596095246383114 -3.647543322277034 0.1803286910921604
Ni 2.3904339829055314 3.6622421913886782 6.118696594597886 -1.6550371026418595 -0.5495442472591374 0.9039659329463915
Ni 4.916850709667061 6.074941653083958 8.225908704554946 1.0992304194127778 -0.3439300421273109 -0.7460886288792118
Ni 0.44010999133661066 8.582405502334446 6.4999317879991505 1.994265882638759 0.4033353806688215 0.027256264612791768
Ni 9.310900964601604 6.607643002446151 9.676787464501471 -1.5177098548118895 -0.9222963558244632 0.014432116264929984
Ni 3.4962891718969136 2.0218494200143153 1.5008612073183905 -1.0339889338054644 -0.9263502141788627 0.7222992397690979
Ni 4.489174507252617 5.55007428279035 10.561830557727284 -0.7691097723647334 -0.24098564265258496 0.20737978167268156
Ni 4.421335385801216 3.8490396852219435 0.47851494337590295 1.0375439981465746 1.9975034157394502 0.004090882239921987
Ni 5.768604466867273 9.094972879579263 5.018139722192114 -1.021379215461254 -1.3743839661963233 0.3718501655763467
Ni 1.66098810857234 9.248339859672264 4.369328468455679 1.014777136763704 -0.4238517554546184 1.2149346896563336
Ni 9.394869409270774 3.8844725234120117 10.09318974980638 -1.5929660443427276 -0.16360186525578277 -1.2632896839209535
Ni 3.7084063813534986 7.932563559007952 8.642216871383411 -1.274130226179883 0.47190464509778723 0.6749438904135859
Ni 3.3514482184933976 8.971972949091343 6.638979841450654 -0.9479284545702708 0.6526665670726244 -1.6949766191492743
Ni 0.27286514961916664 6.858210377719928 4.805326774193984 0.2893676335003984 -0.25893759914531533 -0.6565347917787789
Ni 5.406174514151258 3.1984872396713255 4.1228201831610205 -0.2312229068388663 2.159016002566372 -1.6800261684870292
Ni 2.401322198807688 2.7890072760357385 3.9291972543253606 1.2762891815044148 -0.9446392422960377 -0.22989364650448152
Ni 4.219728072880695 1.9662641551036457 5.450964758906052 -1.0856074293127047 -2.036110329478371 0.3112145541721608
Ni 3.34961198547261 8.705183977583678 2.5964750142506166 -0.03802353043162484 0.20751245059580392 -0.12039293396847651
Ni 5.7455915766469525 9.53171029217669 7.442492343093184 -1.6728317076211192 -2.609471733761764 0.2663351771609671
Ni 2.237251548844771 6.406478600003007 6.530223173731014 0.5706031248119657 0.8862232642509899 -0.8982711965544594
Ni 5.20226960312935 1.9819413405424284 12.622652408830028 -0.010090294356466493 -0.051234886915576275 -0.5844968520749224
P 5.848042306444954 7.866366897243486 9.15923180800521 0.09864705765095268 0.33586654839288604 -0.4886260716175262
P 3.432187107598371 1.1898697701686136 11.157120693923652 0.015916928340572584 0.21476913215821722 0.035947878849518736
P 1.4083169085310285 7.5311205750764145 8.37081886272055 1.220370515959924 0.45666494532989743 -0.6139056442543427
P 0.0191171234797352 1.6531356749005306 9.247150460494478 1.5310831907950018 -0.7572456739372959 -0.800926402654698
P 2.01355407586513 4.509668344132862 10.510118914033331 2.466897635710558 1.1687839021318838 1.3841641855115387
P 8.385928569110197 7.7259642759153415 11.661374272416058 0.9909067579040096 0.033604061207690515 0.8402984766944174
P 5.788433938031454 4.658855356595628 12.258298563727912 0.9873928312134802 -1.5360780729064318 -0.4038339175717949
P 8.184321256189676 3.0386057846402545 3.1551669040633223 -0.7022150674247132 0.4104460235716737 -0.8959880569472375
Ni 6.934630889670487 7.069847767492689 7.160019727035607 -0.5786349939775067 0.05002286888534611 0.8783621163353583
Ni 3.7717887161263053 6.304655326714621 1.2460944870809945 -0.034997856231423596 0.20582503559105197 1.074251637980253
Ni 8.55631992067733 8.629953787541066 8.52445251183014 -0.7303506493186648 0.5319594442978386 -0.020199357766010374
Ni 0.9694479892612314 2.0359948733855067 2.2485568387797894 1.0077472265001162 0.48695588300395487 0.49909508946965003
Ni 1.8955553428509133 4.485603541528774 1.4670440696405829 -0.9510322903065751 -0.49703460739619554 -1.1858786528306415
Ni 9.062972597588859 5.259866419791435 2.8372033178155207 -0.5170131074006515 -0.8906157368917307 -0.13406657480082718
Ni 3.8224835111826163 1.9257932102334272 7.728273869508825 1.8027099553722112 -0.01370346562902156 -0.3493733246300693
Ni 2.1854033410869604 5.1560777312596935 3.979260901951411 -0.1421796908262648 0.5473269278928444 0.8992487299763803
Ni 8.093469244517953 1.94160880519639 10.964579204836918 -1.5402720563831216 0.19078331076658112 0.7414755555872327
Ni 5.836212905778374 2.1042953599175074 1.740887313230621 1.1448279055369188 -0.10020334639447905 -0.3945164968256109
Ni 8.594631676970343 0.7629049927084538 1.3860809571064383 -1.7072114706525694 -1.0707891333529496 -0.09405738139774124
Ni 7.74656884041493 1.0081934287300065 6.467343726896061 1.9963294500360071 1.2955079205247109 -0.8240609317896325
Ni 2.1819707848872976 2.7762643725095706 8.806803327506438 -1.6465642892841579 0.9610189692056417 1.9096012553098274
Ni 4.225052225910818 3.1789345875555037 10.315375790781975 -2.2657206404144787 -0.848597740588732 -0.06557392924606771
Ni 6.410796977157422 8.985933856430295 2.276093874980472 -0.7116317327529228 -0.8502118791533873 0.3242305068158545
Ni 1.9545823912628575 0.5253905582950085 8.531691329944751 -0.6370527717947674 -0.8499555401682071 -0.7437283561771514
Ni 6.338676387758054 3.3600296089925554 10.137189214813024 1.8166844152744326 1.3376752979213802 0.35065296267344126
Ni 4.626956574922955 4.292549937202574 6.311467843494758 0.09874013158539124 -0.1815365953573325 0.3234206093200494
Ni 7.190587009085669 1.7319737398734323 8.590681469150246 -0.4162214926028703 0.34062925988885207 1.4280768277340887
Ni 9.069256389986627 0.6399235168237589 12.595629333329136 -0.16608992178495913 -0.8587469132075921 0.0019648370358546804
Ni 6.923714991863494 1.4746335252164504 4.208388641929712 1.4511437368558813 2.2754283546205456 -1.3807050233183447
Ni 8.359944487770813 8.970302807499573 3.6577992456625013 1.1083334101553106 0.1620383774234048 0.5761770193553174
Ni 2.8903045931322406 3.126597332812257 12.403424640751238 1.4852849015139646 0.8741197961192366 -0.5541413797115167
Ni 1.263411364016229 2.06743228997758 11.206360343515753 -0.06599096217882829 -0.4351599813785861 -1.1118280535721303
P 0.46467122276742406 5.812378785714586 0.4355203315148034 -0.2876280251014724 -0.8438905649210499 0.8972083025075839
P 7.736252717212717 8.320340909252122 5.693840255556068 0.2101977107374509 -1.1730622177922636 -1.256802533534713
P 6.154121128216503 5.48492030610804 5.3638701044507355 0.4447481392876534 0.32897470636905923 -0.07276350501597147
P 3.091265994939921 7.241420213666159 4.310729566838531 -0.007291905675722926 -0.10672829199719037 0.9717265854311329
P 0.31279814280540563 4.769564521336368 5.695487328893809 1.6594732840363422 -1.18633965162746 -1.4300295805850858
P 3.6156166363432574 4.02526269140786 2.586683924510127 1.6532206182584108 -0.049668827980037036 0.7147877618834013
P 1.3572161122037896 2.5308919680433486 13.625553980085554 -2.666582619842143 1.6655248895470607 1.9129367474409638
P 7.1910114649598205 1.4380380470232708 13.290114807314792 -0.4884792616270168 0.30268774764807227 0.27195766555406714
Ni 8.142659989411511 4.164558036542566 11.979742937204628 -1.6239936030724937 0.4423421009493221 1.1465042647980772
Ni 1.0149847227164361 7.905665974808981 13.326889295159246 0.1917335904949924 0.3509656088178536 -0.3009486534697785
Ni 7.088579189765042 8.966971751617642 10.536791352072969 0.1145812123827059 0.7159113339648832 0.1446219817191703
Ni 6.908462262298863 8.2843267510605 13.515081956996244 0.6679918845757851 0.24034209553131508 -0.8735731795871472
Ni 7.406967231886996 5.7443828001357815 0.4787041030589489 -0.35612606997287055 -0.8673832487263514 -1.135052828428026
Ni 8.475894759827167 3.2508152671129595 0.9943414035500767 -0.19469318734394858 0.569862132880883 -0.8050190846668329
Ni 7.27274690263889 6.929952647753204 3.7625309644189886 -0.6421798086086875 -1.0288418423868864 1.2174026915808518
Ni 4.703746178937993 5.741568473144122 3.4893770002593665 0.11242919903670959 0.24836496583579162 1.176699814544851
Ni -0.2512335864501623 3.2640010811165032 7.728881025954894 0.26963493095816143 0.1540504741219218 -0.8975985959674672
Ni 2.3250954601909815 6.966289761501248 10.780666165487563 1.4332524583977573 1.181670785396881 -1.6662314286957818
Ni 6.841010687515166 4.469483445612616 7.384163801413268 -0.1553177708701196 0.400579158079923 1.4461743086657481
Ni 8.761129107257215 7.418279903663304 1.569575076962609 -2.0409846268515364 0.8298700822722418 0.930473749428933
Ni 7.620431627378932 3.6762307806324652 5.38790907061031 -1.006625454190847 0.2583668142435099 -0.6816549838851744
Ni 4.89276745245975 7.243450220020799 6.038341561239973 -1.4487469544889306 -1.411687330632472 -0.7089930095784951
Ni 4.576455553200495 8.132223911288342 10.973802815528272 -0.6803691751942154 -0.5805106137336649 1.5779366608134306
Ni 0.6533686180025997 6.029654056772277 11.825420008664624 -2.583906740808466 -1.3054254367487388 0.6803930864536153
Ni 1.589208929332616 4.892638270237182 8.247112120929154 0.7278291684483916 1.1547927300591145 0.44064208753907985
Ni 6.627509382816782 6.554761336907798 10.902036554510804 0.8667363591709718 -0.2155618032628417 0.014651945585219926
Ni 1.6078480785888496 6.938967721428125 2.431807357873404 1.1700293445032108 -0.4034785911149051 0.4277876001739149
Ni 4.584169577348125 -0.06949819028123833 0.5041299326508064 -0.33951314400653787 -0.335852407325499 -0.42443179632780453
Ni 6.4875404446644 4.48036243421316 2.383459065617023 0.6367537524971099 -0.4083935119180192 -0.11331005897976613
Ni 0.19311358178667734 2.433359390004541 4.794131289148147 1.11937321290924 -0.7291702558573184 0.7754133459852581
Ni 4.943222337674149 0.80185896919366 9.760154289105541 0.5379431726850993 1.1514996611301396 -1.246173593065957
Ni 4.980316090154377 6.497616658024701 12.839584424267754 1.2514384410093222 0.9989211435680538 0.16777913656192395
P 1.7097913067981914 1.3452667566162537 6.019393297379737 1.0059669946712417 0.5727520528341684 1.4347485833273097
P 3.8721448484583836 4.315987283297047 8.44019432989035 -0.981192101719407 -1.299847428440329 -0.14757437947927488
P 7.658623428750987 5.058176061156407 9.42056928972051 -0.3920425813638216 0.19268721265751332 -0.715307124721981
P 4.768411108634868 0.9754180534041934 3.406213176290761 -0.11014631653980386 0.6673005149357152 -0.4814267256556096
P 0.9695218076741274 8.972683451315469 2.4955108027423076 -0.38363790223989414 0.2372454588838624 -2.553541241142731
P 3.1115014673750303 7.68802161168681 13.014732449815874 0.9168127070020725 0.5541771180454584 -0.12350036924920665
P 6.03557798440718 2.2707097444898716 6.714946370161903 -0.4523907434345757 1.7084813385039286 -0.2727444231214206
P 6.131302011330035 6.6625546743391455 2.033825534776526 -0.8431506014312317 1.0297340151838523 -2.133158675183636
