# total energy = -381170.96149665036 ev
CRYSTAL
PRIMVEC
9.20399830808956 0.00000000000000 0.00000000000000

0.00000000000000 9.20399830808956 0.00000000000000

0.00000000000000 0.00000000000000 13.47098187829136

PRIMCOORD
 96 1
Ni 2.137435306179131 7.620192626943399 4.824402690193803 0.8076102424327769 -0.31178611040491466 -0.048715462927832236
Ni 7.2176189481308075 0.3490165334813622 10.14178993386528 -0.017482987276111823 1.687739735081203 0.7292016233158861
Ni 9.06919647711884 8.325071627793518 6.3521467452720035 -0.7920905495306229 1.0824282602537747 -1.7174213213060359
Ni 6.711307005208459 3.929196050636127 8.16574581634183 -1.588370197441929 0.6143478739980839 -1.0804366837450423
Ni 4.093340155163979 2.1513609555090984 0.4686335353466125 0.7200104437349212 -0.8103433250932237 0.7586569524625257
Ni 5.154579559687386 6.903495692359188 -0.012499029603500252 -0.6871897976604746 -0.5717068993991057 0.7961726900197966
Ni 7.095518707541681 7.83663384944407 4.457426394955954 1.2864522380803458 -0.4955191991929337 -0.15252041063064053
Ni 4.958792109226667 8.636838660016908 4.251832084375551 -1.7867017528694131 -0.0016933285420228901 1.0798599853059663
Ni 4.554000266839375 1.4962755851118033 5.7123289671473785 -0.6039017389640955 1.6366436877363364 -0.2384569626934603
Ni 3.6678485207455607 4.549508715700562 10.082410339250417 -0.26453026274174446 -0.16873764382045134 -1.0889645187103956
Ni 9.134185908658102 5.419489036895003 4.821183131611105 1.099744640045035 3.3054343925188623 -1.144246836222468
Ni 7.58516220965995 2.0260945395270378 0.39342674536637623 -1.3915036565957457 1.668336647964243 0.0654857404076356
Ni 6.880973508677476 9.059918846897688 0.9472754983742605 -2.816251934177234 -0.8809018520380765 0.4025653352720164
Ni 9.072758424435891 7.520752630009513 8.5525373993804 -1.0424656038179079 0.3243086683519576 0.6163872730256158
Ni 3.3387227478504458 2.8415503751757236 11.792160698231665 -0.21630125253202748 0.5732737296655933 0.493236316696028
Ni 3.475282469667186 8.74843713861959 11.77037851600807 0.12354484933389691 0.30307906954922 1.141921530523401
Ni 2.984801403709507 6.374643157758657 11.280371455959507 -1.4504181715437665 0.4442832838360929 0.9765412332109569
Ni 4.467270991468402 9.275973501472476 9.503427307861653 -0.39209734586115697 -0.374262117451949 1.9377304094458756
Ni 8.341795292587008 7.2944631293971 0.08051565616234156 0.36081370525652695 -2.944024705549549 -0.2921225705377163
Ni 0.3521394500825902 2.1603624657831952 11.949502127663827 0.4075095666511691 -2.2116814512808878 1.4279580427680376
Ni 5.8919486743080185 4.626509364936853 5.826496281657524 0.16148661868499287 0.1952320905665541 1.0325622286612668
Ni 8.524540677548346 1.1677480721019813 5.008349196924844 0.9035005632741988 -1.2440598891570638 -0.09425767033400542
Ni 5.958419949563157 1.7722206562035123 8.105880250620148 -0.9927551239666579 -1.3590679046645433 0.7924875278587254
Ni 1.051842122325193 4.397817620785034 12.065231360674499 0.6310613300980228 1.625066267311382 -0.3845781546659764
P 2.1063257921439096 3.2792925312452903 0.12631475138105824 1.4815197780445775 -0.8893062740516878 -1.1290364470306167
Ni 4.931575886444965 3.6755614712667186 3.9005900241208997 -2.267969070129023 -1.4974410772605242 -0.27014915159041863
P 7.581121654434666 0.6567614184759384 12.361727119025925 -0.8763162895499231 -1.3116747600925602 -2.6972993321997096
Ni 7.912907382819774 2.472865817865407 9.516965468865914 0.7062990076860998 -0.09368302877745802 -0.6210715658751627
P 8.790103638630669 4.547539060078214 8.834310442154683 -1.0515176867178473 -2.493706785483602 -1.2348255150429894
P 3.5485186836252507 7.922157401046223 2.5700204620374745 -0.7547329348177712 -0.9939563433636107 1.2716126019643519
P 7.726222686613739 3.9557587895431237 4.688615183829002 -0.20817450965983503 -2.517850215499025 -0.25552754502250186
Ni 6.150396944754474 1.4985857886688565 3.9507426105049004 0.17529935619836906 0.22718113266932488 0.2664711885181991
Ni 3.5870190082433964 5.315723160790539 6.56481340809639 -1.5371754197356686 -1.7807275375638494 -0.9735358707257299
Ni 5.814497029158199 8.22501496297787 11.676754525559053 0.3274713823506554 -0.015096746432122388 0.4224998694124143
Ni 5.730022733354867 7.306925343007658 2.567204958977305 0.07438844221390414 -0.010514783488394793 -1.3796727253990884
Ni 1.8821348031291383 0.9081704710720577 5.352290645779277 -0.2358722326854196 0.7988021572228436 -0.3775682990070465
Ni 1.2076474044518883 6.405283267883879 6.810308891826346 0.3963270676717884 -0.843144945004277 0.2619010526490135
Ni 0.3379505664030939 2.8482877018839434 3.641664066166033 -0.17133882888872426 -0.02609001221883249 -0.519453341411028
Ni 4.857097132725139 6.753148381186009 10.141156698786693 0.9847980739031104 0.36392062631662486 -0.7542670509249462
Ni 0.4764237994529473 2.0083584349276675 7.260212290764179 -1.3614893696218424 -1.2992478471831173 1.4360642168149398
Ni 0.9213570393437328 3.5326141746746997 5.728158003312401 1.7742681550917507 0.02035285262473914 0.012705106271494246
Ni 6.250646893533064 8.02145933800658 8.795203574052833 1.2952765212401949 -0.44677031192400474 -1.3023935919009506
Ni -0.24078671823279119 0.09767559047218388 0.35727620149769584 3.6427708405890558 2.056231268597962 2.0755867903064384
Ni 4.827773194347561 4.204809777791366 1.226724531594138 2.2481335234603343 -0.02446353235900303 1.594240540179777
Ni 4.574129410979917 6.110801344346331 4.367413133014634 -0.7500291015841987 1.0149427158072908 0.7894649389823178
Ni 9.178466344167997 4.870424522169813 2.5547040885741574 -0.13028525338152402 1.4505297574209666 0.7180967716519762
Ni 2.3192418833204713 5.166885305327946 4.25660159626107 -0.9045220625601776 -0.4514620609727193 1.378482304635413
Ni 1.2742383316840862 6.803549475522363 2.4226883806861714 2.1943511875325563 1.590483901350822 1.448191339095777
Ni 4.239195915198345 8.860974425042269 0.88271129155347 -0.09289909942358195 1.2276472521269954 -0.7629910610615053
Ni 1.9239577711102172 7.654781252311553 0.013214180266380935 0.5025311117343926 -0.3716146525267729 1.0068884780442464
Ni 0.6409581535059752 8.960607705939095 11.772816655140591 0.21626705685998238 -1.2140944531432252 -0.10271634262431988
Ni 5.375383477351576 1.2393827903671084 11.56483758861743 0.11305937642154076 1.2930152360098441 0.42411606485959863
Ni 1.893363680976171 4.130726795995657 7.932212769118259 0.13986775486363653 -0.10685761848620307 0.16537926887117968
Ni 8.13611354402337 4.443911243947279 0.28121251928175567 -0.8200638948150973 2.9936973901843285 -1.7201634028275472
Ni 6.513899651058333 5.167538789202649 3.526123515119185 0.8205855716465222 2.7896860107632473 -0.5105089877335467
Ni 3.7020873941807744 1.3385558713521712 3.3900129484163264 -0.15284899761465287 -0.06465013188021768 -0.8767634043896707
P 0.5137368082987426 8.58504776194703 3.853199557607305 -0.612568413500158 1.3412283053799612 0.946051806372848
Ni 0.9077866643456468 5.684978365991443 9.70185538541607 1.7086952542869476 1.9343509514506816 2.3062545959727827
P 2.383531810993851 1.2026404294119002 10.806691368380493 -0.3803918844987707 -0.5410428946563456 -0.26226383530507086
Ni 8.11057244892049 1.0794265050363052 2.7291539099260445 -0.09400493089325102 -0.5740363188632307 -1.2789916680372424
P 3.7563633717741776 7.385895647866298 6.342353691149674 0.03567071392873212 0.3611458917849651 -0.030091934289373984
P 5.813033593438791 1.6380815859226487 1.8193368435696968 -0.24795076111650843 0.3269075394273854 -0.1349713460032837
P 4.3538409172169015 3.579867501614589 7.850618404362743 -0.051664261143511025 0.2867001139705643 -0.29287024733701816
Ni 5.867291163035723 3.4363311491355124 10.312036289223117 0.07206622183863072 0.28004712743042093 0.2061255975506063
Ni 8.292333006070654 4.707578181393135 6.727300792941893 0.4523748025949757 -0.18232926646195696 1.5002770040474227
Ni 2.139460185790891 8.267813554771887 9.923183010579848 0.1005113645532011 -0.9140426004561033 -0.3535611374591718
Ni 0.5579675422181688 0.675655386053306 9.702811680832715 -1.1194002094924334 1.2760747515007635 -1.9114125974869534
Ni 6.401813360549182 9.166970550372142 6.175637069115062 1.1082249096019043 0.7428860627815141 0.8986249803494524
Ni 7.8793127892610295 7.563744505766471 10.910821722815074 2.0147742870047556 -1.0641757418014899 0.1568817729231298
Ni 2.782221402551156 1.6953120469495742 7.578815132476906 0.34273550759857746 0.9844250068344079 -0.15542627142352589
Ni 7.141824022663338 5.623339189809822 9.599313641076899 -0.29070743535774446 1.4278096901156312 1.0555198658987048
Ni 2.928537362497285 6.360330940502808 8.796106486279713 0.30801018830225013 0.7293643741459954 -1.720706676925527
Ni 2.1363492343873687 0.9139708307599265 -0.037298282448618866 -0.32273643876883124 0.4229634393123941 -0.015032725963406369
Ni 6.924223096385022 5.8932832540521325 12.324318388598481 0.2592654147983793 -0.691013542281939 -0.7915639876031916
Ni 8.451976355461458 7.669820585427988 2.483928103344381 -2.1046898783199817 0.04733555186117009 -0.7875224705439664
Ni 1.2455218571900353 0.9503680417813122 2.4417093634391858 0.8421954366068141 -0.44842018882260193 -0.06166251000680348
Ni 3.2821641786946953 5.423538796118523 2.3113374896360193 1.0980196869341283 2.4961812151660236 -0.7723236513163408
Ni 8.08206766638585 3.720081210730733 11.554182119860455 -1.6539536397696937 1.1525157610994796 -1.1087069914446455
Ni 2.4138681891773097 3.3278712339310594 2.260255299430256 0.04589753386306289 -0.9317176491383632 0.5248359458791799
Ni 1.6367654141750048 8.810472086725326 7.63994624795594 1.6349539587387392 -0.06314500808960094 -0.11858879088020222
Ni 1.3448514061450976 5.233246132604261 0.8569851960860595 -0.34943863065036596 0.53135034995893 -1.167710466562047
Ni 0.2816892863903428 3.0222616765270667 1.068031034821214 1.8407537975188106 -2.8108073661228943 1.180766785525373
Ni 7.432624346906777 3.6174014064180313 2.1608125412969 -2.3333825625378264 -2.7114776805826204 1.5537220112404402
Ni 4.374614341233912 9.173321309154481 7.337859060676586 -0.7206084823302364 -1.5654580687304458 -0.6136572756889626
Ni 5.265036742508894 6.1961039999908385 7.772298822179338 0.42934851690313147 -0.07160393749023153 0.403064386395622
Ni 7.143858106273333 2.419289344137885 6.211927513756919 -0.14704293245583708 0.7710956924465108 -0.29195442039096814
Ni 5.862633939928675 3.4856277636836324 12.645964992527613 -0.13063286652892986 -0.0801474561848684 0.4493105618473552
Ni 7.288342470570643 6.846071947369322 6.637247033408339 -0.18822943399647582 -0.3355901548030479 0.5386299143394788
P 6.6175090591927965 5.7986661521935305 1.2985249218275 0.5181852733318818 -0.5305718199216927 -0.6599327617167344
Ni 3.3765603845956518 5.154975331611503 13.281471617878838 0.5117400319271702 -0.13786872215573676 -1.1499659980944323
P 0.9302112856460651 6.678329079531478 11.898689614606358 -1.527600888673356 -0.2444933986955273 -0.3914643402628484
Ni 0.9259406304648985 3.1962172431737197 10.006379791428124 1.0891918042298534 -0.15602482423947323 -1.237207642121921
P 7.812390518092362 0.3741149162691272 8.011542950307897 0.7887920812850092 0.1300199155352793 -0.6740370623286004
P 5.079787870027561 5.236955343893077 11.616108460787018 -0.9989633096598989 -0.5261662346548293 0.34446688846738743
P 2.7410427144465466 3.0321927906229256 4.45997222086783 0.16546462949613439 -1.0123387025255404 0.5007812189228215
Ni 3.9415570202660986 2.3299277252716233 9.585007866619815 -0.33055850591641134 -1.1104561129252681 -0.3764884356793064
