# total energy = -340852.4486940954 ev
CRYSTAL
PRIMVEC
9.42591981034584 0.00000000000000 0.00000000000000
0.00000000000000 9.42591981034584 0.00000000000000
0.00000000000000 0.00000000000000 13.79578642901283
PRIMCOORD
 96 1
Ni 3.3096006860391016 6.2011429766510195 1.8359844310214846 -0.8551052026899466 0.1547652408007593 0.29280596975798606
Ni 8.840212005143595 7.41404206008319 1.8374331948963303 -0.7691915334452623 2.333437327035162 1.5616741762079815
Ni 6.1584906895093345 9.257129864273729 13.226751364678872 -2.5077699484448877 -2.8266921556739515 0.8211172757802763
Ni 5.0680060266537525 4.730256468010471 11.460739306777295 0.07000985353023427 -2.72885191019501 -0.6396675837097952
Ni 7.488996974414832 3.469520841540941 2.0153436609481408 -1.1518629580068291 -0.6081006075367914 2.507626480888488
Ni 3.6007767748996065 3.8055548827787447 2.3381097774609425 -4.530096593875604 0.7395533988638554 0.22058753861220723
Ni 2.5307652098720324 6.304469909611716 6.20061323995768 -0.5553174022974887 -3.2421536301823455 -1.8580758337370258
Ni 9.099782984880108 6.968214904894813 8.173231091589615 -0.5358405245197997 -0.28951701459406914 1.2184172488882954
Ni 4.519728549047039 7.219189445764315 10.552811145848029 -3.449442394803117 -0.41275718820335366 1.3383800372978887
Ni 6.504949798057349 0.38351334191435194 7.3496366352032565 -0.8305699365527437 -0.9520046815221732 0.0587237390934537
Ni 7.651301887628681 0.9675612426092378 12.08268129029362 1.3191862379782573 1.212572360071744 -2.5130347963882524
Ni 6.460883622944117 6.286654921170217 10.632191529530614 3.019638792640438 1.3725070608885845 1.5975035272017648
Ni 5.775515567616153 6.484580385347255 4.985728115221475 0.24788314110336662 -0.4568027564593423 -1.3838872777010685
Ni 3.099449803868082 8.229327568156755 6.64323652500253 1.4801293254549541 3.3998494143663383 1.0335963263527361
Ni 1.4440791927000074 1.6168845805825502 8.770091645082665 0.6589811964367425 1.4243955222277598 0.8690884043429161
Ni 1.3888998581304113 0.32402730458342194 5.548776009170957 0.9960217105330718 0.8280821371338837 0.10334729134009943
Ni 3.102880838679037 3.996910480847992 7.672457422050957 0.8020013808864317 -0.13322582406708672 0.5351645814986977
Ni 2.7984990361642783 0.6250883555490063 2.703146431363111 0.7319971837831523 -0.007424317488529149 -0.23940389998776188
Ni 8.17385603007304 6.647846742381756 4.0265898745547375 1.5857242751786498 0.2189651725174358 1.1875573260846453
Ni 9.205202472038692 2.67398263546999 5.053162088136465 -1.161816212564799 0.9087273588907769 -0.9505671777446985
Ni 5.278505667857753 2.8338650872925886 4.360833933620562 -0.3979700025918501 -1.4212821734097587 -0.5283035927128062
Ni 6.420116519764496 7.1990745328890995 1.0580142542930024 -0.2540039092891238 -0.10296548252064847 0.5273805666779046
Ni 4.730746615840607 8.667086135987502 8.747604228191191 0.18723750239685172 -1.0004836029591675 -0.9084550790659968
Ni 0.7531338206202776 9.108709330940476 7.856851978340285 -0.6867213426644883 -0.9373907882637403 -0.4457644963673097
P 2.1828356578336083 4.535375575932165 0.36474916334795376 0.5966185750391209 0.5813693621895343 1.966542962802194
P 4.835261214697403 5.5641581677094125 6.899783669663892 -2.8216347957557013 -1.251600163398167 -1.7389113728590118
P 1.6900014405511798 1.809833159099741 11.28698095840193 0.6470219671923374 -0.13242235432918484 -0.15688408691597497
P 0.21293435629100588 1.9580180444377355 6.918159500334106 0.07144787152834148 -0.8272316162081301 1.488960807703655
P 2.4209249663224073 7.508027906511861 11.500540253176359 2.7754688387226008 -1.0567308554876702 3.1192520708594023
P 6.813384746090545 3.010582231896413 11.871053366488322 -0.44191298383170347 0.6791923812772948 -0.6592223659132712
P 3.7611116708730994 1.0352676246067454 8.534156159270523 -0.42448578949419147 1.739973752685255 0.058577443323576533
P 1.4639019020611042 7.781992265798728 2.2362005028397185 1.7386766311403865 1.0278041451509912 1.1444031592946742
Ni 3.9425889049811347 4.648797669009711 4.635591012763475 -0.04976910100332719 1.6383884383415845 0.9471082726618204
Ni 6.992665740882776 8.350252693403313 3.552484017343428 -1.1812074726072173 2.03961962818321 -0.9489748935569139
Ni 9.017654945572813 1.2041801076076273 1.4552762428426829 0.7761180853617666 -0.3584691162837504 -1.6997362453214468
Ni 7.334977444714251 4.262297253107469 10.168763354280431 -0.3390989392872547 -1.5733996921750257 -0.4040971985355105
Ni 9.448636277059942 3.161067041668125 10.560674248153795 -0.054004222130597315 -0.6283189914661953 -0.3977869400467665
Ni 5.018133484937365 3.516216848281252 9.509807668852956 -0.1356233777649858 -0.01314605046365478 -1.7139559884652549
Ni 6.051855258695217 5.798750459948583 8.52389227518907 1.1953521395387154 -0.20203651508289724 -0.6358034727686984
Ni 1.14777540346269 3.7281869329756625 12.51727557684404 0.4255054890079575 -1.8302045612480544 0.44028059043460305
Ni 1.9339819489214272 0.32173963384545795 0.4029524163391689 0.7062218745912612 -0.3577844315118999 0.06169644856853245
Ni 0.13592176366477227 8.413660855967317 4.068860411944104 1.1237147777073875 0.5021151072428965 -1.0136196261204928
Ni 2.129400118428921 8.945735177420095 10.01467878573316 2.55959618908756 2.121655816750359 -3.7338146319714536
Ni 2.090763273126431 3.3264919343391894 4.003399284045414 0.4971695903121631 -2.5552556527306765 0.3152874386899538
Ni 5.941270367480578 2.000905979574678 13.541529956744412 -1.0107878130986527 1.7203156121346954 0.5003778128368157
Ni 3.090975901958607 5.3802584722101265 12.402425456915232 -0.22483474392433536 1.6283943032433503 -0.7867537106987419
Ni 8.509579015957103 4.9623226137404775 12.541887596060759 -3.188522989341083 -2.242180391200693 -0.13467721180163256
Ni 3.8001444048076225 2.5927877622239186 11.268149855804879 -0.7165122007736756 0.334386878523566 0.24210947184438303
Ni 0.22738334876824093 4.272552653861094 2.8683922315577797 -0.6763618538070351 -0.8751276685584605 1.6961048192164465
Ni 5.10509702110735 9.177292323480344 4.769700172048724 0.12153758909588101 0.7997444665314549 1.1896170368271513
Ni 8.91675989992318 3.918571661304447 8.199787678063203 0.12379604611275453 -0.29909437386985904 -0.46477471892122535
Ni 7.861481047559132 1.842475119402869 8.81538318977124 0.906776148701677 -0.7058423797646554 -0.030566302822631227
Ni 3.371265053438196 7.945503696748298 4.018615546395209 -0.8378081061723958 -1.1848077883639658 -0.8152392197329444
Ni 5.79623373935923 1.2193464125824276 10.068413126795836 -0.6386422277690743 -0.6374564349910893 0.3223885685111093
Ni 0.26663664922632535 5.5060567979986175 1.0805808489108826 1.469479559050592 -1.0676284762367807 -2.3350620071227786
Ni 6.657583717545814 4.390546318046644 13.710721446971679 -1.0664470543341698 -0.2547158477544839 -0.020973516927873557
P 7.659021715953331 4.796087091965726 4.014284336242368 -0.7954471247076816 -3.7996533848431335 0.2514137799644444
P 4.324989045765888 0.7016353077366102 0.7726417042597098 -0.42644754120625267 0.016712427658674443 -0.250623165742349
P 6.704270298366314 3.563025966059286 8.036225347146656 -0.3078880609020891 -0.2409308781552496 -0.3810097205884277
P 3.2098744544459463 1.549272457783146 4.736797113766849 0.7380557312724063 -0.6544830514560728 -0.06347770883867132
P 8.227131328840953 9.124356357825603 13.693048789919315 1.3053375050206228 0.4966396859506221 1.542038661365241
P 5.432308401402698 7.759888483843534 6.602952971509178 -1.181966462260429 3.2033096607319544 1.3930072377244656
P 8.328035800410396 6.816033429557244 13.733415291506997 -0.8998254284154568 -0.8960711035793472 -1.666258939499608
P 1.841080083270942 5.327303654715765 3.9879483162923424 0.6909574922330229 1.9896924043354638 0.6123884362788679
Ni 1.268794787907351 4.080537241405125 6.045258057419977 0.5778821749718822 0.21660284293284632 0.6030000530854325
Ni 1.721785642151569 7.474104021114531 0.15635150226165348 -0.3103144109553946 -1.3539550089180101 -1.0093176563110293
Ni 5.479145796940163 4.608379324863071 1.9154901794375472 1.5584253302533808 3.0271667255863672 0.20086229226913796
Ni 8.473138409970417 7.929404225712277 11.72127267292644 -1.3746660162131163 -0.6352766537309511 -0.48885695668140977
Ni 7.1717582172788 2.138411297767584 5.947294472831351 1.9485231291860052 -0.9030256805203093 -0.3576376215213905
Ni 0.7412609320272021 1.6831865005283206 3.3678132816036577 0.7981606669841028 -1.8387691629886138 -0.7994439045719006
Ni 3.574525588227873 6.322086953737198 8.63236858814214 -0.8011349191210784 -0.3296341943299291 -0.5734035703752383
Ni 8.651391979503323 5.305887964906724 6.224272298681576 -0.29717581669090753 0.650948298829937 -0.7665065304139316
Ni 6.775106085740847 0.939924445725388 1.6744364191684034 -0.3631343829699036 -1.5557035604468434 0.5769565778338193
Ni 7.136175369994853 8.092585749468487 9.180515988055472 0.4733300646904042 1.111613109347847 0.3976568422268054
Ni 4.12529150866451 7.9795595450229735 0.2749993252820387 0.0025024547068795613 0.39689013926411 0.05163289368494333
Ni 4.1252820827447 3.6915201049135287 13.75919989514812 0.5615451283747555 -0.5286684322513927 -0.2908205638968411
Ni 5.471982097884321 6.343992791376375 12.78452773863398 0.12970726939086694 1.8572057724272466 1.6162209011056103
Ni 6.275947076265696 4.217882318961255 5.887227798840106 0.7608097371394703 2.031447633895379 0.1443219339802482
Ni 1.2452017106221271 5.436512361638099 7.9531057010753194 0.8375031733374674 -0.4338091237776464 0.8874494233486071
Ni 8.338960441470554 9.430538511024134 5.84028106263284 0.6713746850050889 1.6212067843559756 -0.9599316496787338
Ni 7.5434316613194135 7.587356447635491 6.751188756814149 -0.9690567519084535 -1.0047765739075663 -0.5130448667815228
Ni 3.556569210989219 0.4945780124473371 12.316629792209744 -0.10039515069031096 -0.5861464718632035 0.41341564772295897
Ni 1.3183374224303774 6.800622050667376 9.974767556072317 -0.32665300021441807 -0.9978402517990493 -3.107148859837965
Ni 5.094634250117898 2.3760198843460567 2.207146047616397 0.8935902461390224 -2.72997162562175 -1.7525873276842074
Ni 5.162755372587059 2.27266467362593 6.601104548634376 -3.2688915603978215 -0.6211530698453754 2.262672340506458
Ni 1.6281579806756894 2.4230457982797287 1.0631504379976442 -0.1511538693004171 1.8743987392667656 0.8399251525153986
Ni 1.038557270620546 9.05262510806909 11.829376662047006 -1.6152593085232891 2.1322515899883343 2.9869593001295462
Ni 0.7702635446915669 5.96807768342112 12.01524731737863 2.6475754826120212 2.8009777816269827 0.774947462092433
P 8.748035935318505 3.3493969194782602 0.4671806339266695 2.2146137944363344 0.17130334766509853 -1.4293258696498414
P 2.6862269053035916 4.475304188981014 10.008042938186698 0.8625729718219016 0.12340241021876168 -0.6070842504571351
P 8.043844318129336 1.1776932729406364 3.482636066365016 -0.47702653970538494 -0.8172179407258701 1.077784590834176
P 8.958705243079091 5.625869664707558 10.275349770311538 -0.4098058188845136 0.11718445433350787 -0.829628398575081
P 0.591161642375732 7.394323035840007 6.182443836931313 -0.4674995740515561 0.7582843996144554 -0.16854378264209038
P 5.167864221124251 6.844980429294728 2.8379729031459244 0.010852112223155505 0.4426308358343345 0.09898515771666179
P 8.927618559544666 0.42244616109888566 10.257911818662448 0.13274374222434557 -0.4481551080866733 -0.5404047468517145
P 5.958039078823131 8.50706229536775 11.186547782823002 1.387727991603397 1.102663870574359 -0.38424879635101566
