# total energy = -340863.0647379508 ev
CRYSTAL
PRIMVEC
9.37304733256215 0.00000000000000 0.00000000000000
0.00000000000000 9.37304733256215 0.00000000000000
0.00000000000000 0.00000000000000 13.71840221335015
PRIMCOORD
 96 1
Ni 0.2096666272033464 3.6751530098742333 11.804136162581587 0.18606405091404085 -0.13133914856733508 -0.4288867467753646
Ni 7.249667613362768 2.9457893521576333 12.722816625008845 -0.20433610975035132 0.11257086682089644 0.05527100465816288
Ni 8.826523441013437 0.8332292042083428 1.626577030440481 0.17055669930706108 -0.9703466743644708 0.25304514492028035
Ni 8.401240176326997 4.325276927664905 2.309218860429523 -1.4103364730315324 -1.6948804598910423 1.0648213458052886
Ni 5.275694527469641 0.7026354766930872 7.1920646152921766 0.8601718185795767 0.2499325674332276 -0.15598342947857652
Ni 2.3556248164708378 4.477907626145366 7.773024818756679 -0.8919851064354315 -1.4609787206684322 1.6011722343026038
Ni 8.232497209933989 7.307574298158414 0.01883045156271477 0.8502540452452324 -0.08848245841312503 0.19102293758121294
Ni 5.652331677865146 4.372179655200905 2.0464970375937273 -0.42189308906635087 -0.6378523848779273 0.7536492148352891
Ni 3.713470026294531 5.775812199959323 6.6989561074010995 0.42856767287304903 1.1985693609244326 -0.8338007847852156
Ni 2.7487772758028792 1.450891448083061 0.8797541979474406 -1.3848355005469504 -1.7519633209469636 0.17290797314805703
Ni 1.7803821717187567 7.809829025379952 2.173694910155687 -2.017559048838745 -0.9004923725754943 -2.2017996733908016
Ni 0.010141636929247078 6.02811588097732 3.4014919038035725 1.6273473500360747 0.4906279325389034 -0.07459747290091669
Ni 7.9537615361798775 5.620866358852684 12.246856106731501 -1.5563291098459842 -0.3108461150891485 0.9786893899022113
Ni 4.982796179593447 7.761698428677842 9.982866884936065 1.0859547853497942 -0.7716937310418258 2.8909897893107566
Ni 5.669793664555706 0.5588426242944992 4.770574459758943 -1.2418775367937644 -1.8405416815080045 -0.38568732856975513
Ni 1.2991418160271369 7.600575749552372 10.56429386614463 1.9205988919719115 0.06719115313451654 1.1985876157568778
Ni 4.633575191876361 1.4159955938431472 2.3181626219432823 -0.5689622467744331 -0.009196321787287387 -0.04368638514435702
Ni 7.839194781848835 0.30163590235442334 13.2518942010293 -0.3637943851514057 1.2665148757264704 1.1867122044755305
Ni 6.192228562117974 7.319459321842595 0.8784044791694261 -2.115130099816699 -1.6068443449867165 -1.0602658652241224
Ni 6.935379972073874 6.256771364238857 3.0166495880033892 -0.23645767287524436 0.24384393803698648 0.3997898294094082
Ni 6.31246600992609 8.19914790846055 12.304774976488336 -0.30927928482266087 0.4182799177937958 -0.44622035295780565
Ni 2.746002853870294 6.700472666416951 4.25909759152568 -1.8808329249278832 -2.3456022445324702 2.215598784057423
Ni 3.8277930814017647 0.2024756254915919 9.092186526019656 0.0407499282238524 -0.04924356751716035 0.19967032884356578
Ni 5.304779092526438 6.262404565527653 11.834083047968782 0.03536398132159071 -1.9006959824003975 -0.5725013702759431
P 6.516760943853881 4.123381493786918 4.159734856846146 0.0077475051559027855 0.2265139313989712 -0.166663534900242
P 3.5746458261475085 1.2691761845458032 4.522257135659623 -2.1186946772395063 -1.8059652290847155 -0.033786352421825684
P 3.1148603751980755 6.813783432440674 11.55496870311306 0.14997090473590946 -0.12435834637412775 -1.1525478998889958
P 0.44758080636017883 8.720448667327402 -0.02566152826699875 0.9196733163793194 0.5195680126120213 -0.4433011224284817
P 7.304659280519785 -0.2279590658642693 6.727366750373595 -0.1351613505269027 1.2581988996616074 0.12515667390570703
P 4.959841587320132 3.3586158372886485 6.913827587642163 0.4327649987838483 0.3597454118930127 -1.0224138273733554
P 1.5354363326503517 0.16807185622282905 9.424171417480558 -0.799600741864739 0.025937288691052104 0.5413318866516741
P 4.298994903681902 0.1789605250035188 11.225589518737493 0.5063700258645085 0.6437754352305817 1.046194988953353
Ni 1.2102197184783687 3.596531891054895 2.4555255640521634 -0.7475320461939577 -1.0469699194461644 0.4443637593650412
Ni 6.6716505466781015 2.645598773661334 8.283898062758663 -1.28417732600324 1.168862577888619 0.19151324695407018
Ni 9.138458447487876 8.068168948710737 9.223499166245146 -2.1891498458372753 0.2894185413429919 -1.9002434682440115
Ni 6.679092746051321 6.959468703042603 7.462000872457399 0.17669289411178601 0.7884089869139776 1.6591860918132264
Ni 2.61645797032212 1.8651801285569252 10.560096615666888 1.1189582368590083 -0.03309601122302042 -0.058071193111119336
Ni 6.524578065109881 8.88712956336511 2.379525149193469 0.27437681651852097 0.5848634913857218 1.2153033858496618
Ni 9.449062481278439 8.046573448262507 6.758617426608163 -1.7161051735977735 2.6579501409781257 0.2564518566089842
Ni 4.079346918654198 8.182163947170535 6.0551243161082136 -0.5438551672941602 -0.1656587477848115 0.3821155520580968
Ni 0.3189076161894729 5.9119275895032475 7.9923550574887265 2.2545186010510716 0.3732251915470024 1.44549013811453
Ni 2.3330920113156526 7.9151164631121445 8.181929620993797 -0.5003711279685964 -0.0857293211480201 -1.0757773305961602
Ni 3.211309029543688 4.669670796141176 3.452345370679386 0.04179328188670221 -0.8008225300869821 -0.44987003389525104
Ni 1.5227545999652583 9.119149970524614 4.7206807929030505 -2.0824308098114654 -0.5588097317214634 3.0657332730056557
Ni 5.397459781950094 5.12431044424943 8.371448883521158 -2.0573612684373472 0.08046601586655175 0.14270445298148327
Ni 2.58765459667741 8.808817755099069 12.577126667883382 -0.46416433903073606 -0.036708668274943235 0.1585851287674817
Ni 3.6803550509978304 6.3443343699625405 -0.2104708346419133 -0.3346948966822881 -0.758273600981178 1.8469018193980773
Ni -0.49300540437331203 5.559716599770977 10.249593810784678 1.9767379010573247 0.9124901683673189 -0.9640947799174882
Ni 2.8135169119122225 0.6350239389616354 6.922209903636457 -0.6357852179362534 0.8361363748969277 -1.1415140106723374
Ni 1.6651030658104296 2.1191897041415793 8.512117699331466 -1.6315577885729966 0.722527039509188 -1.3456955971226954
Ni 3.2284898248221627 8.538695911601867 3.5482513255996713 5.202757344681968 4.159176396312694 -1.661840498716938
Ni 8.139760282227916 9.121240160021122 11.15071480683185 0.0376373507367997 -0.23126815825450495 -1.4351419621109864
Ni 6.705074832528098 4.797959691382031 10.101792106154445 -0.028683998198253825 -0.6474935075121171 1.0057049992591067
Ni 0.02711903708631291 4.769540612667172 0.2323250311892631 1.8976841921572674 -0.19676678204352563 0.016977508394603023
Ni 1.8597250151624503 1.0926723351792118 3.0249625434493685 -0.23823739048348647 1.1246606865604243 -0.835037485405794
Ni 6.688971937662621 9.078161635689497 9.058713500324899 0.12129230585429435 -1.1076327845438603 -0.6838784738990544
P 1.8732503220838028 5.565471650671677 1.970524741876242 -0.09941993126123523 0.6759527912940746 -0.4101827426079581
P 5.440828870740875 3.4655997965404284 11.453507343194655 0.6301290480917406 -0.4197922406732641 0.4353641269695921
P 0.8844997716787509 3.310682074574998 6.707996411299675 -0.29940033514605213 -0.16692835852585447 -0.05156733055433054
P 3.994436485251195 8.006644267746246 1.0343185560383492 0.1653227046016314 1.4445354875107443 0.9677344335526042
P 7.3079211008999865 4.877930528979384 0.7242328517507316 -1.851657846025824 1.2883049750183684 -2.514343745007663
P 5.177024460968547 7.8096228183444225 4.263926585375908 1.1985163961993102 0.23501271289860173 -1.9024366192405882
P 4.625205060843258 7.424409329880285 8.050356410059774 -1.0430145343428423 -0.475169431891988 -1.840573048966572
P 8.52196502258273 7.900053976471387 2.951061691134252 -0.7031890013022083 1.0106880542959948 -0.013305715969970633
Ni 4.4778888800512275 3.0611528154895864 4.636572692329201 1.5428177056231107 1.7224074616667175 0.5868172726779829
Ni 4.9993489807182625 5.799179206303698 4.675011558361402 0.9882914317683497 -1.3266185258865861 0.007601980716974005
Ni 8.130199774216981 0.10836648369453798 4.5456747564581725 0.971908362424636 1.0280615125774357 -0.6019132477791569
Ni 8.70670778032345 3.7206591533968716 4.534563009157227 -0.6879760410071957 -0.7414115351185167 0.807206579236455
Ni 8.303507414532858 1.1192168044801618 8.244073860369584 1.3224312272781162 -0.26684117026310816 1.4235195473807096
Ni 1.8046583636288769 2.9846031400726165 4.720420222194517 0.20790660071042902 -0.9277311536867893 0.26421067461879655
Ni 3.494740599879642 2.234571913567671 12.635045537640218 0.8274617299410653 1.028443835617519 -0.7155454659850322
Ni 3.150056166944215 3.672425453176996 1.2629609170339882 0.889312958919907 0.970233545825374 -1.1252474123018297
Ni 8.821218296372075 3.8322359057127287 8.60719976341434 0.5937227415485646 -0.9378283900217914 -0.8552828659183916
Ni 6.607032760180663 4.773927198695719 6.529602955643863 1.3715542100570122 -0.44639775907593443 -1.66202433259297
Ni 6.821150647437336 1.8440532804621719 3.0845273202716164 1.4507220759374304 1.6407646518832453 -0.21903922028848086
Ni 3.2129586858279278 6.173145038284382 9.440661419190008 -0.18366366900266434 -0.9552877231488192 0.37788557313714916
Ni 2.7104133941472335 4.556838055518 12.117999204838231 -0.5278083982439427 -0.2884523207749807 0.09645364954405969
Ni 6.2576899228516725 1.4635169424857375 10.53858640994699 -0.17159131121916255 0.6720480569230297 0.800580589279505
Ni 1.2426035961036446 6.612825303269641 12.71771300087948 -1.08041560069912 0.026481334119980198 0.98502124565751
Ni 4.0263704566171326 2.380735209570147 8.44613238526658 -0.2305809023794932 0.08306514405229565 -0.13650526614930686
Ni 4.982993013581908 4.250751830414957 13.380462413072827 0.6057408490553632 0.10991491725528812 0.2632876485838949
Ni 0.6553531407507703 1.1991407768421671 11.415973913509372 -1.2323942798936776 -0.44180602594019397 0.8242630204981095
Ni 4.644935324924648 0.3647568132348564 13.500526459510157 1.2715974324557004 -0.2986056071588986 0.7794096116288448
Ni -0.016052280411301797 1.4210289201194926 6.332826142770554 0.7234539221988315 0.08581828131740059 -1.5540804230211236
Ni 3.940607075930801 3.941103847425487 10.10744405353738 -0.2221109172352691 0.5872674728415241 -0.3356310353433123
Ni 0.8443840675258076 5.187503527592297 5.395872925081219 1.3696716483223186 0.07768716756983395 1.2388845156037116
Ni 7.199090651375507 7.466494311222539 5.2997063994524005 -0.04091936392218114 -0.40506856130984437 -1.5697736653866643
Ni 6.81736393642124 2.306425692402799 5.620058402195289 0.28346720885556337 1.0075417953575294 0.830132591905009
P 7.2880783602537615 7.136647411798202 10.349340840394062 -0.2584308347122259 0.046627727160868084 0.6664654206289297
P 1.5971297284620933 3.961743297072624 9.921532476827087 0.372270798053533 0.34722259683565365 0.31209258590173994
P -0.24171588704823968 1.9475129740158033 3.4064577441410173 0.82523592593434 -0.1350623630551932 0.6810939691753818
P 8.494220803256878 6.1315755745309515 6.4424223702406165 -1.9592335736249742 -1.4600837196579888 -2.113202286666367
P 1.704638578349768 6.9830981547049245 6.287294692020828 2.77060482576208 -0.519719450588221 -1.3210279191726861
P 1.4343480200053151 2.7196177263695263 13.449767660409744 0.28012760295936917 1.1631742692545903 -0.4449435431279111
P 8.256707790514621 2.6105529506683074 10.28040582841639 -0.640141180912104 -1.1205793174021992 0.8011572877185815
P 6.377336868694407 1.6611101477588035 0.8375839218768532 0.35624562626987033 -0.6267729871353142 0.10510772567463189
