# total energy = -340865.1569408466 ev
CRYSTAL
PRIMVEC
9.30833399095229 0.00000000000000 0.00000000000000
0.00000000000000 9.30833399095229 0.00000000000000
0.00000000000000 0.00000000000000 13.62368769657748
PRIMCOORD
 96 1
Ni 0.9171836579124072 5.685772417002972 9.064697654913733 -1.2397466064936908 -0.7389054808672113 -0.41618755404114127
Ni 2.7737997536370957 7.2562279859123775 12.086962906045331 -2.1425475725977035 -0.04363342041923453 0.791239000163605
Ni 5.190308415450592 4.719074007270889 10.204141988475557 0.8686891120219684 -0.48549061131233806 0.5096142438334191
Ni 8.562401336213622 6.721166331571919 10.845449897796833 2.650777020268454 -0.8978971010444923 -1.4195597914020133
Ni 5.419972939954647 6.26277742429667 7.008351705959361 1.8703595362003853 2.2487773276919207 1.4985780190784448
Ni 3.8951840575939753 4.430152628594547 0.046995916642324664 -0.7299510998874009 -0.8798263595857106 0.09343028933670361
Ni 3.3800794713253643 2.5488266294633624 6.900956802564333 0.6298050890934186 0.004381674007463422 -1.1351163346761095
Ni 2.607050258562899 1.6202365390811593 1.4560319425194828 -0.01643243452441041 2.472530665626619 -3.0216265124944286
Ni 1.08577061811598 7.972923161375019 10.19753493301035 0.6653287359213252 0.25268210515390677 -0.6560174858227282
Ni 8.156297340953097 7.471390126061984 4.562409161240087 -0.7987823597285016 -1.5206067167437103 -2.9755988808114044
Ni 7.418835272361586 2.5823552484907855 10.192098865960931 -0.596036991504038 1.5038076429085003 -0.03740260901817429
Ni 1.7407329225653325 0.7220093033368108 8.88152732785001 -0.032485117111898894 0.17220271955091632 -0.3009008309509785
Ni 2.4782042994908307 0.2976023309542361 11.577668581852487 0.10341773956671868 -0.016017715584494996 1.354610126003506
Ni 2.40949017798599 7.988458770802217 3.8293462112916536 0.0052810458932812275 0.323253744724882 0.8551743653649853
Ni 5.383009545685382 8.977962598806702 0.6839856898262278 -0.21759426031183815 -0.3647760323383847 1.1322652383805596
Ni 1.9813719728421064 9.110476041470331 6.49052908616604 -1.8540939662711424 0.7506788193530556 -0.6481347406405419
Ni 6.541059377223887 3.332541809644895 0.03882692273381093 -1.276407195139518 0.05447447689879651 -0.01444548600136867
Ni 8.165354349924135 8.33639498696714 1.883106683423229 0.7907967704198638 -0.11788636549653891 1.6967020864808133
Ni 5.741529337595494 4.896295378082412 1.5777998444265169 -1.7778062501519962 -0.18458129572092727 -0.7228885366136647
Ni 2.2089141971967305 6.375212790546598 1.4465225485165913 -1.4588717016277584 -0.7588688113630156 0.40453197208008396
Ni 6.287481742702772 0.6813095438044664 9.86946270157739 -0.46413785666817486 -0.9283890989857625 -1.8505157620015806
Ni 2.1538274766513976 2.62396350142043 12.79168942566526 0.7164754339984692 -1.609820396895905 0.6974487563843215
Ni 4.698148872464212 6.0338389498437355 12.207954492897704 0.5830634620625055 -1.3391621668795517 -0.2533459639901508
Ni 7.76940574704532 2.0393722019259135 12.341099040605771 1.2018747711485818 -1.1751224427554021 0.8657793945743412
P 0.24408220301920713 3.056456623539019 0.43771695915306674 -0.7950108085012114 -0.04775721277962098 0.06405954948407033
P 2.228005590207626 1.5090484895857215 3.481942431830888 -0.9400428811746069 -1.0854593337706147 1.9325954022121554
P 2.2105617723127367 4.7091420149049075 5.491681552503664 0.8101648905338306 -2.1071771635182097 -0.6673277686292249
P 3.6430305981731363 3.9258922514228116 2.163332216487295 0.16014013195942742 0.17941774924211681 0.672636582436648
P 4.64739983555763 7.9712383529230575 11.223956544447557 -0.17313705843972763 1.1066020292865006 -0.8204500745099224
P 4.058433619088408 6.83475593123645 0.4747417884266586 0.3662351333824144 -0.226457624239739 -0.6936820902530376
P 0.7769563988723128 7.626206336962622 -0.052344485352251724 0.9491818673613975 0.48716568502191576 0.6106087186706258
P 4.647288135549765 1.911308142908899 13.55031026824656 0.19750160332702116 -0.3895339560093549 0.4670966821861826
Ni 3.5329781654243235 5.510440637991162 4.006876618791603 -0.42156964428866106 -0.3691183684674804 -1.1287453981527593
Ni 0.5039671646510895 9.399741828504256 4.483705335698536 -0.45836135919571386 -0.0331515470513042 1.5265063700575967
Ni 4.192203686840517 7.396197404100984 2.5323573941370934 -0.45089307584312666 -1.720975100095565 -0.7190341958645811
Ni 5.308477715437581 7.039771987338336 9.2789848116684 -2.328572799854009 2.0728611638451593 1.1638386423114666
Ni 6.701832921877316 7.081771190295508 11.677816016403888 -3.368472956937586 0.6563501865717987 0.24968934107416996
Ni 0.5451621275516345 0.7705922909242148 13.358952330606346 -0.30801018830225013 -0.1855562580396869 0.7515815336729831
Ni 4.555880295780389 4.628280517544768 6.082036572404005 -1.4369437912064158 -2.5157488528853063 -1.666251226190124
Ni 7.690210441469163 0.9475139333813009 3.4332514675692147 -0.43115163155014136 0.001248784805436559 0.5165546797069942
Ni 3.6214073383173053 7.505663411808506 6.149200856299722 0.5867781919099313 -0.4047384316639352 -0.9067296117344578
Ni 0.12143280188343974 4.042199884612054 6.360286876995661 1.2396298784101683 -0.7848096995984936 -1.1776107563948943
Ni 0.8095746628356376 6.2130895374648025 5.5553859286557685 -0.5216063831982888 1.7076133340766784 0.2496543740711765
Ni 4.5943050984858855 0.4657946177966866 7.443397173257662 0.5803612326399941 -0.7502566442139723 -0.07286866313526806
Ni 2.604667325061783 5.414155231211688 7.431163229896267 0.19275817510476478 0.48663758043258776 0.6548736020262722
Ni 8.212696536590842 5.057943906130782 12.97675306786229 -0.29688116826862415 0.04570547245691483 -0.084755387270525
Ni 8.542267409795988 1.9193226184731997 5.818050358816687 -0.24131422963659732 -1.052617347539929 0.4931545556154991
Ni 1.3262979683848894 4.694760638892312 13.151844691857193 0.29015310551617124 1.4780297626134482 0.7503106373803594
Ni 5.869034896573185 4.016024849435731 3.958321556206165 -1.3596487168686777 -1.0401495540902217 -1.270214950285877
Ni 0.34145482320856496 2.483994083231824 3.5567227945961877 -0.3060312101990084 -0.15535402342469376 -0.059529265713884574
Ni 3.90059219964143 0.3634373847563612 2.681973038838226 1.8726069374736654 -0.44808671674258316 0.9816075919902708
Ni 2.6687458962402335 8.612861814766553 0.76671257731771 -0.08395063198104251 0.3670666281447743 -1.0084074857919343
Ni 0.10128025879782875 3.9888445141886257 10.51135610510656 -0.1102753859185004 -0.5443565324106109 1.6846217582775118
Ni 0.2120419865965828 7.4439491574631935 7.7416334017565305 -0.3231874102633208 0.28045284750927185 -0.6618297216291311
Ni 3.073686349752167 4.213324296660956 11.280508396762718 -0.4350795058496378 0.39648184808209785 -0.5428665781286458
Ni 6.688000737570056 3.918585209241655 7.3816140372408325 -0.25118932265846416 -0.6888005937910202 1.640184868120375
P 1.16810283224634 5.718826310996969 11.29537194447593 1.0801469204187655 1.266066475335142 -0.9011945408488415
P 5.579005826152183 1.06362609155678 4.208261493804483 0.37385691159373036 -0.6470937009705372 -1.270766966134605
P 7.238020884630411 4.856418475274671 11.078033515839756 -0.20317911332777266 -0.7519070353332019 -0.22071866487343275
P 1.3591470790311349 1.860224005978722 6.9734752401703695 -1.6746448495704578 0.11524275722610476 -0.13610803071088814
P 6.923008245783646 1.421633925097512 7.76288618991961 -0.5555184625647014 0.6793569318796171 0.2575425185700016
P 8.434160418850821 5.358649635636861 7.544580625382007 0.6764628981612736 1.0166962081632878 0.10753484705888577
P 7.715147468224984 1.1259360792773712 1.2345447894245307 -0.06361372019590335 -0.49548731751373376 -1.0774282359360217
P 2.22164799809332 2.235238165716873 10.672851045644117 0.20223706112947748 0.03383006117556754 -1.3023452551615182
Ni 4.782966411769564 2.280243960552406 8.992329081484915 0.45326389006814843 2.3030229764093626 -0.4178117199081256
Ni 3.671057991813217 0.6576887154746528 5.114468764277373 -0.16164217042625065 -0.6594445092264062 0.47874146551396257
Ni 6.105503813223005 8.315069593798947 3.0227967570023546 0.9889164669468582 0.4314866462920569 1.7704801488042283
Ni 0.8538590617870437 9.539459921675165 2.251150762670615 -0.061073470272552874 -0.1957293419179468 -1.0648822809502112
Ni 6.033941341517611 8.557291060853807 5.885201611044819 -0.45694005336815496 -0.17436218909608037 -2.1450004050135703
Ni 1.9635837465896342 3.228995902354209 8.560008163545119 0.21044942173694078 1.020213991508559 2.2281267413211046
Ni 9.071511355393488 5.402864222083353 1.6188207414814728 -0.04073295894298792 0.5619202523259871 -1.1151591748278924
Ni 8.618176873474122 0.14342001759823042 8.728342867897595 0.08379250913662344 1.0935783633333231 0.35973332770815464
Ni 7.199642623594857 5.747393588008397 2.935863433381363 1.0857956340641108 1.28556932125476 1.9526212105147793
Ni 1.2927693493574663 4.693187530448216 3.0630003823330996 1.4641365495711236 -0.16460922347437457 1.5044157088061445
Ni 5.303078881724115 2.430368771122722 11.508051551950741 -0.6529450175449917 0.3297228973889934 0.27933724584758984
Ni 0.33142137000210764 0.9732700935281303 10.835164188739281 -1.14740595067674 0.4980224252307616 0.27673220412457505
Ni 6.951286964441422 8.060821759230643 7.900199009587832 0.010280813100717778 -0.10605363452766897 0.41706327177787533
Ni 7.039660287330472 5.145041987263373 5.466395463223265 1.0844062099157519 2.810515545914089 1.0826285491900387
Ni 6.01254148167751 0.17021312615140488 12.188554994031783 -0.0950894222066814 0.4136275066234489 -0.48633470448018823
Ni 3.7061597192847358 2.8405498166703134 4.285603510083482 0.2122638492378602 1.5841499887129944 -0.508038671816183
Ni 5.564670991809531 2.222616064828148 2.1147371280657055 -0.9123513287966094 -0.6398017952948142 -0.09719772679893582
Ni 8.94060825450991 2.9499227410379487 8.572732656107718 -0.4089218736176635 -0.9134949554827493 -2.2960388317820457
Ni 3.002849928097895 6.286113417606427 9.766236070142519 1.0180331818071564 0.18484174847116552 0.16823550737305218
Ni 7.016380144024646 5.8066504421806835 8.968459720637602 1.3190880218374958 -0.8535558559249558 0.6663034411297686
Ni 3.9485952780213363 0.34100057650991467 9.790159419326967 -0.12054308639309562 -1.662779979812072 0.2942306180196546
Ni 5.5973525524439784 2.3894586432422327 5.894873900892513 0.7499751084178116 -0.9487321814184886 0.40458905057026456
Ni 7.967086835964083 8.066201976276131 13.3414731410423 0.4372618582129372 0.3295755731778518 -1.8113452624497064
Ni 7.752138787496217 3.110212252323963 2.1691229310616866 0.916833275827363 1.8120733988649826 -0.23142242444418207
P 4.3896334507415835 4.400747601524133 8.299304999355627 -0.553778339945143 -0.018832302215154664 -1.0445088595001817
P 7.98578727894745 3.6452366733284665 4.413802539943333 0.7406589732232083 -1.217128611983859 -0.6443745022671612
P 5.369782403087389 6.500316799355195 4.32069779088781 1.5691666279302847 0.6729230033288154 0.9064868995960323
P 0.6686362470788039 6.894487510442162 3.470089199329633 -0.8285148537959278 -0.6501170611778933 -1.508999214411769
P 6.804252520755366 6.780823444105721 1.0127225363059842 -0.03452143081563733 -0.22138123815809616 -0.19497909401548355
P 7.783805739725893 8.988909199577453 10.905066984494484 1.9587900583296527 -0.747432544501616 0.7664129422588607
P 2.9172225637355225 8.225551345829285 8.095126693312727 0.7603266268554648 -0.9597876679017019 2.2450446001223656
P 8.290905158764192 8.614639706558401 6.124147475369043 0.8901166857681252 2.1479618016347395 2.9314892920866997
