# total energy = -381171.549305944 ev
CRYSTAL
PRIMVEC
9.25656962109134 0.00000000000000 0.00000000000000

0.00000000000000 9.25656962109134 0.00000000000000

0.00000000000000 0.00000000000000 13.54792530886030

PRIMCOORD
 96 1
Ni 9.195438961081907 1.9164338343496377 9.707345759001116 0.09204343629150599 -0.28474504712672255 -0.627510636632287
Ni 3.2066237262301738 4.044426561080085 11.126070521492961 0.9697488928794717 -0.21288939863700113 0.2725338497725113
Ni 8.967227500449376 5.415528125605586 1.0671593331104228 0.009490713099254623 -0.21502418559181677 0.14999224489214813
Ni 1.115277757536726 2.7271149210185914 0.4830374094459101 -0.7313243260858437 -0.47608628727930274 -1.2715722356447199
Ni 7.386159173470412 5.259767833236656 10.135135334311178 -0.09082910426843066 0.6966619988169679 -0.4299036180756532
Ni 8.09673971924214 3.4120640262739146 6.095021408888944 -0.32493756018520814 -0.13668498626028075 -0.06572819543574486
Ni 4.4325545137174664 8.493966879545694 7.24296467398737 1.308808751398675 0.8844926547131283 -1.4591221270756678
Ni 5.08725315035321 6.10455937794207 10.578084393237603 -0.1722870517346065 0.4147726759714857 -0.3703915787529492
Ni 3.7364697555400648 1.4248081798654026 9.024395147067388 -1.8482912435464363 -0.46698766741214415 1.4399272993147718
Ni 8.447119382090463 8.732934473757156 8.917243877300049 -0.06344814115231653 -0.14884476155126625 0.23237373261385785
Ni 6.6292309849880855 6.752926521145808 8.408614830585915 -0.9058958029792528 0.6672182396345542 0.7225581498574394
Ni 7.094475416838966 8.848262071226968 6.953323842210373 -0.28042945047050416 -1.0838454523162753 -0.9816291892568255
Ni 5.027853744866111 4.411940133786071 1.0674953465776476 -1.397575059600806 0.19584427022925624 -0.8696339924337411
Ni 3.649115510630955 8.546905199629958 0.1505960523313338 0.8810977700989664 -0.3200570921644552 0.7856820749011179
Ni 4.910480445571047 3.0290271867763034 7.662069735937917 0.10928808230456663 2.208989763381338 2.588504387481477
Ni 2.3220752161878284 9.233103941746862 2.714665760906452 -1.3927974357065045 0.001692300100758376 0.18646617144846594
Ni 8.236301015257256 6.644004469662764 6.869732392740021 1.1284502355098438 -0.2986809404815243 -1.3809937582033571
Ni 0.011386505951329434 1.3227267331283397 3.942690384379592 0.29617308645800605 -0.5445604208913009 -0.8030408778945396
Ni 3.593779739086327 7.832862696923185 4.365561018739699 -0.9128413810591506 -1.3944203160219084 -0.5779181704161401
Ni 4.624563531641559 5.962313676816894 3.182583489984179 0.9216147563764063 -0.964416939143597 0.03076864864142443
Ni 2.867611130537556 4.007631697933565 8.889064103242953 0.07227422408437877 -1.3731747763795705 -1.933516371364528
Ni 6.685066611277345 5.205255896363736 4.789977500180427 -0.03520817247001678 0.4811482751832424 -0.24637236088579503
Ni 3.4676034423441338 3.116205556867857 13.246063720995428 0.7913289887742501 1.2785021299953336 -1.6830209894492953
Ni 2.396488777152577 0.8337521601045231 12.323003254193058 0.9390229245505247 0.7599432753741171 -0.028720250752827952
P 2.080238085479404 2.2080435384263235 10.55222153848757 -0.44860427980895 -0.1901582755880725 -0.17326689914937254
Ni 8.299921416365693 8.119048051363679 4.510822510157488 -0.12325971399331032 0.591606209426194 -0.10987223694281079
P 0.9948035075110756 6.709670572596453 11.052153112645106 0.5882707172950578 -0.45426687741136607 -0.02649727495958017
Ni 7.428258050851638 1.8272375321408656 13.0287685325915 -0.7386545411986698 -0.5085372087191564 -0.2653144492059366
P 1.6458735689635648 2.4833339107477097 2.4553577812162057 -0.34126740769348324 -0.03136154503041696 2.329889976003536
P 8.284851721471973 6.0141226954410625 3.6321713604448655 1.3195482493033661 0.4912521963864636 -0.6338910862373341
P 4.730958539693409 3.643830009534939 3.0809204401815125 0.5782583273643783 0.16083844357803267 -0.0025217379805892053
Ni 1.8547758259423492 6.972603424842215 13.230659863948352 -0.3531906414936304 -0.44564699695283894 0.6164898600417512
Ni 8.189323925831197 7.537985423867702 11.061568894982878 0.36174701570407375 0.08848374396470567 -0.05096132153921546
Ni 4.749962276558769 0.37438102150306785 4.744957249513908 1.8201258368558135 0.588840987976231 1.3724026741002364
Ni 2.2301019431755456 0.2801685843662206 5.258031300827527 0.4747657686956662 -0.1941537699007108 -0.34111339861412215
Ni 6.088619565529917 7.70078070893886 3.865615559728145 -0.9536828405555446 -0.03343154018556823 1.5568356171687574
Ni 2.642843113701379 4.988633660551191 3.8359593628605175 -1.584075169611001 -2.186988319409582 -2.283272533255313
Ni 3.1664687284114055 1.6395143058235249 1.1952397061668896 0.7634944830604851 -1.9349171083667964 1.1483271769394285
Ni 8.649727171914623 0.45344971119143535 0.9622944359713074 0.4458732540310321 -0.004172900430767007 0.7607053503511222
Ni 3.4417128178860668 1.9460733693924446 3.8225743635875946 -0.7477091952017704 1.2875151321272214 -0.7702174036066155
Ni 4.638605747337979 9.261567892482848 2.4527844549382856 0.5155920586834087 -1.3098459344139377 -0.6175157302031042
Ni 2.3733010709432603 7.737334901282408 7.350345506674466 -1.213117948162569 -0.4184645230007761 -0.5093252518380906
Ni 3.074662073647333 7.632282095785588 11.366925530193877 -0.6212286602783172 -0.355561198608336 -0.29600467920094187
Ni 1.0899517838087063 4.387993388890461 10.201127268485811 -1.5873931782406403 -0.455324629251919 0.798027226730032
Ni 0.29419136126701645 7.76196663230955 2.0792541121580266 0.42881886965190663 -0.5319445318995032 1.2376773826694878
Ni 1.4708318426489242 5.551858878919283 7.3821964361338015 0.29970063999529034 -0.7015041574006177 -1.0857799503348269
Ni 9.380607374260018 0.17137149656933376 12.286992422470062 -0.8256786698987135 0.7624531862801643 -0.6968607450913353
Ni 8.522217929186745 5.474233288391808 12.206680575518657 -0.5677142332999449 -0.7970347809097758 -0.2723248190854987
Ni 1.2798965867688556 9.121330866905545 10.312991983363643 0.5011910527667304 -0.2537534838412146 -1.3498792961867399
Ni 1.4341017754878194 4.81098158168125 12.656566507512252 0.5430807510219808 -1.0829622783803736 -0.5376544378000869
Ni 6.0885455129751564 4.825634730954443 6.9918672713061705 1.2437233317532517 0.597654472502803 0.04663904001477775
Ni 0.1596702672602731 2.5903028260989522 11.889184875268578 -0.10572556176428889 0.7451440055777554 -0.032291770154170195
Ni 7.9800421495092655 1.5079506857225207 7.719729832045084 1.571704306750474 2.3601395189166965 0.5405502712906433
Ni 8.216473443720188 2.652543998374977 1.7369933862822355 -0.07245420130566876 0.4251175095409195 -0.4244657348895335
Ni 6.8755575518288525 4.87025139519752 2.2089349460542502 1.1223477221565314 -0.4372688001914727 1.139156051963122
Ni 7.01569275514336 3.0970722280316667 10.357957620271026 0.9225892044745336 -1.6087778145640037 -1.4227674997060336
P 7.284957100821128 0.8333485736810796 4.960233580143684 0.6144815713624707 -0.8829371373005505 -0.09706428654486508
Ni 3.9532771227395105 5.543916742421243 12.64728587108692 -0.15845503094752064 1.1290158782053266 1.4993326378562823
P 5.197156398186828 1.3092121418845863 13.161118035429897 -1.1753091048449114 0.09186782994559017 0.07694103343242878
Ni 7.180996570507023 2.6863397330537055 3.926323844120633 -0.8629766350182235 1.2519855717620438 -0.1563590676504404
P 8.291109162349219 4.034318387355305 8.174032073273196 -0.0913600370712362 0.46426126961991654 0.979510600251926
P 7.695476694704153 3.83153472271359 -0.13239578568512297 0.5581417591201613 1.6027274946048655 0.9142704001961932
P 1.9258755350815748 0.5157964083579945 7.746933963693211 0.817919594778585 0.5197747293061887 0.7397755421769904
Ni 1.377525623650956 2.6460643998334517 5.251067583709256 0.13979062176879797 0.39240587824051126 -0.7291717985192151
Ni 9.581289797660409 0.434470967063307 6.410403834357553 -1.7284174153062233 -0.28235160719388147 -0.12432517914334716
Ni 0.3098932798470019 4.034410953048756 3.230476054118464 -0.34360762579088566 -0.06316300581172993 -0.00047745385705079066
Ni 4.218413038489391 5.979262455287655 7.90003854631705 0.8861787841662995 -0.26070086169332524 -0.7581833552602169
Ni 1.0824539626392267 7.251078057018295 4.875003717899261 1.3981800401746565 -0.020113997141055683 -0.052618140416348096
Ni 6.00448660675288 1.6046633222394624 6.472263635976563 1.2528672030360486 -0.3797575933488815 -1.8887269829639795
Ni 9.312849286654352 6.07669710421351 9.036763775026225 -1.1592355963218166 1.0535771403500371 -0.13256993565064265
Ni 6.456651506119224 8.914807548248435 0.3495576794904834 -0.746738860868701 1.1071617584447127 -0.22021267177129172
Ni 0.4076250646488321 5.064019161297169 5.361916852929938 0.08233006565848401 -0.07036517998712397 -0.24673128688711055
Ni 0.8768655574859652 2.995268478374955 7.496351226267596 -0.25401367948113673 -0.37574512975537866 0.7020577159112426
Ni 1.9656139872798168 4.655758170334332 1.3817660580679172 1.0578060908297202 0.4666806776946866 0.49415060098018126
Ni 2.938118419238699 3.715198159185171 6.568656920851101 0.20491923594733097 0.9594873630524637 -1.029109494225976
Ni 2.567328020984571 6.274398912284799 9.303454794426072 -1.0392113585466682 1.3454300021661343 2.4160427578422197
Ni 6.308888889664406 6.810280224807655 12.948320614070722 -0.4653035948415019 -1.2040257560533134 -0.5296662773882878
Ni 4.41043131298283 8.190110734225525 9.453986050771992 -0.839290347144877 0.1493067887893493 -0.013423472494757527
Ni 5.079616480643555 3.387950663130095 5.198419919902427 -0.7535589691143281 0.18923062156748055 0.10256104799337822
Ni 5.019356214207367 2.2126255402521164 11.135391886823413 -0.5500250435502979 -0.6228422846223401 0.2126387160787757
Ni 7.091828038006286 0.49046950897304 2.7745335488024105 1.1114938101611633 -1.6766132861507381 1.1833893107498845
Ni 8.630140271180526 7.553166197593561 13.378061474198715 -0.08311630900520524 -0.3736031437117114 0.6133510573024533
Ni 7.154624604443014 7.317938257397493 1.833305213346537 1.241039100052869 -0.6183767926518189 0.6404700250064325
Ni 6.0504177038429505 4.365324050564467 11.996375948284099 -0.4963658634639452 0.13107021117666462 1.4411431739997438
Ni 5.091344554003716 8.776431093109483 11.69042319000728 -0.0457653791605728 0.5576586488361557 0.6962110273224784
Ni 5.813708712551677 1.8498513310507898 1.7338091264275428 -1.4922063112241462 2.6304776465894695 -1.3764858430306746
Ni 6.048640442528704 1.0566836735826448 8.69103461261685 -0.713543605063655 -1.1207479817695796 1.9050342047644353
Ni 3.7127266551700457 1.5003232725822107 6.727601473074723 -2.0008468782903863 -1.0101897745033377 -1.8553720616526175
P 4.8584400127132525 4.1811460903062745 9.56108178112326 1.6803933220184606 0.011406442064728742 0.5693250294304905
Ni 7.134648927796424 0.656424986818593 10.989968405442086 0.9462502955368993 0.3335211880891611 -0.585317548204005
P 1.3935394886178694 8.893748852988477 0.4829198510152282 0.3551547071985367 0.5570791221836019 0.9419177295998165
Ni 3.249203945217342 5.862990687744651 5.585917500167411 0.7946482829554702 1.3457233650368372 2.6203022487183647
P 6.410905540416053 8.084308146611757 10.082569128314583 0.06355998413983246 0.4751825445181107 -0.49404235753709114
P 5.137581117882173 6.9616343901683475 1.3238190083110541 -1.3293469805613427 0.0036334829875292267 -0.9162702042350414
P 5.826908580437698 7.212765116499188 6.270480606481046 0.3097978763302922 -1.8766931917278966 -0.8079259739009828
Ni 2.7030663538601867 6.8807597438007635 2.1027870884039133 0.23318980075725002 0.2377447671177841 -0.05900553199993064
