# total energy = -381174.861637768 ev
CRYSTAL
PRIMVEC
9.14489412577113 0.00000000000000 0.00000000000000
0.00000000000000 9.14489412577113 0.00000000000000
0.00000000000000 0.00000000000000 13.38447693313406
PRIMCOORD
 96 1
Ni 5.29129048204102 0.8675303601739722 0.7627746860177621 -0.6287136558014527 -1.2245858395928524 1.5794952635498023
Ni 0.9826005601641592 5.392899398204969 2.2923596997329865 -0.8207547502345348 -2.0659909190878873 1.5807479050099809
Ni 6.42629984400415 1.166513521461358 3.168922471615638 0.27811931428008874 -2.847321658998845 0.48375588800941843
Ni 7.022300014389629 1.6488700953056243 6.2206366670464055 0.01473576354827785 -0.056782556206682856 1.0941710026119995
Ni 5.890345046990332 1.0778537750650403 8.364602173404142 -0.9986159536228093 -0.5566600323683123 -0.003608029066232496
Ni 2.8617299390709054 1.5216097517418128 11.007834991412858 0.3736856761231887 -1.4467183540946762 1.6717436167632629
Ni 5.532048103843584 6.123201480460102 3.288646508113415 -1.5377225504883907 0.22548369036224394 0.11321672793501146
Ni 8.40603220074544 0.5339154856732956 7.974926355805647 0.1068830724074998 -0.3792731975132952 -0.3322371791704149
Ni 3.129849083433323 4.856258734148373 7.972918137104396 0.5539477756434719 -1.0798214187585469 -0.6439677537470457
Ni 0.4515913217734576 1.4275728077301229 5.996540127446982 -0.17496742678024707 0.4706810571033313 0.14444483271135766
Ni 3.0195799527425753 8.267761404921579 10.106364272004715 -1.2229189934133906 -1.383869022868623 -0.1666679057756162
Ni 8.804886748355072 2.9656708031802963 12.985444818279099 1.2454346580174036 1.1550110167175078 1.9837014768593513
Ni 1.5221493004821307 8.409269493187347 5.664484457356886 0.10765466046620169 0.8424849428227748 0.009333104475467797
Ni 5.297682762879702 3.000970093648557 2.2470659547173786 1.60361581074709 1.2360532168025036 -2.1041471184426346
Ni 5.932951107687644 2.8731702013444274 4.61961174215552 -1.1758917168212586 0.8925366080635274 -0.22430843910722012
Ni 6.405202573768327 3.8795109060825776 0.2670427903499522 -1.0272045638937792 0.7768881307585717 0.4655139110800951
Ni 8.467586481611207 5.236704610329867 0.78893365502928 -0.3453001830019602 0.17170418264794302 -0.7487278662742718
Ni 6.054395298728705 4.603018332167266 9.680643855084808 0.4312817293701024 -0.009007602815249002 -0.4132436409214689
Ni 1.6200819692967945 1.7345120267137228 12.890736639054877 -0.1948410257757225 -1.1504935884631284 1.7879006582735208
Ni 3.580738077354977 8.944639016991331 12.788707057771358 0.1458234582264392 -0.23546599838593643 0.12292907012676894
Ni 7.403239714841923 8.021910077214658 1.4982719824995845 -0.5674717782718356 0.10317014233228684 -0.07186181913730849
Ni 7.132962375518233 6.292189974906472 5.608336637766983 -0.8070764814164939 3.3700552138230413 -0.7618795731648814
Ni 4.678820357734989 4.700969290769737 11.679976462929886 0.4497473922744577 -1.785025907828887 1.5736256921429028
Ni 4.3081503731365425 2.7702444204583463 6.394353071640984 -0.8689341381532389 0.24720899785447747 0.8484511877085388
P 7.12052531980921 6.438828348652212 10.179135679732752 0.041691466201515294 0.9505877465699888 0.10288166455759055
Ni 7.598071679460133 4.3156674759253795 5.163182406812336 2.7222272057896406 -0.87309546861978 -1.7251045488829064
P 8.478441470674893 0.6725319584867151 2.3206540014710173 1.223461496180422 -0.29225549657115474 0.8444191837310102
Ni 4.999952452057123 7.085793012762978 11.617765578681833 0.6351982350845319 0.6764757536770801 -0.10090937132256816
P 4.162984327309298 3.881760549982886 3.7540374747875473 -1.7567468583785357 -0.24998758904087914 -1.0033508972046332
P 6.254046622434163 8.02287943596845 4.22828984365436 -0.09117131809919783 0.49490239154454124 0.4774404873143519
P 0.48284491117872375 3.916602595755962 4.199915066849977 0.7355831013621976 0.5335622700085844 -0.5420001163632924
Ni 2.7485161525431683 0.7348416075889275 1.4664971341418078 -0.11292310795399262 -0.26698952291551437 0.23821142234155748
Ni 4.631449807313852 0.7675684394020788 5.278650409687333 1.3300982569050706 -1.4720401206889164 1.3133045823864995
Ni 0.8069683002967558 0.35338613512046385 10.165429312749895 -0.10499151181174177 -0.06841396979802411 0.540505534095637
Ni 4.084932657841265 2.5890749273322564 13.130813880751006 1.2115570314333521 -0.7061894786914289 -0.6900532352511987
Ni 6.324837246142661 4.088160805389269 6.8838774133269665 -0.7628928449207442 -0.023257684976359945 2.2329146496280514
Ni 1.2991236279588307 0.9374887985372345 3.525712336247057 -0.6566232377275272 -1.3755062527262247 -0.5720030904832859
Ni 3.0772202190175615 3.1486052608298 1.7298636771424747 -2.0502457404384886 -0.41298190261965007 1.7898107308120403
Ni 9.187874905041793 9.26432621807668 0.25553211239337204 0.0161131035117787 -0.317619172146924 0.6239820546537382
Ni 2.8493203180435924 6.324508029962128 12.275479151087001 -0.1782412124355124 0.15579136807242847 -0.26400087260083566
Ni 1.692244327090847 -0.1481710579639994 7.996890561983541 -0.9335102222624118 0.23202431969423912 0.06173527222626787
Ni 3.4415802268224582 1.2538929827111582 8.991945553155142 0.723676836842915 0.6656439531688989 -3.1982777547350016
Ni 7.069615695447342 6.016590307330833 12.362330951958558 -0.26858926330246646 -0.45385832911903773 -0.1512322879468363
Ni 0.9678498462975 7.008097994157191 0.25720379899896734 -0.24000630945845114 -0.3197724710445009 -1.5664664553903023
Ni 8.530558221032047 8.54591249789635 4.4223115706727025 -1.3310570212739141 0.2529119617765257 0.00992497242319581
Ni 2.9410801834732623 3.5096548170415596 9.879710820069818 1.1057682205312955 0.45939622821813136 -0.21583305464635733
Ni 0.8757525342827839 2.7857815952007234 10.686045379219047 -1.7505615555034304 0.517511901413941 0.5202935779241362
Ni 2.497031570191572 2.5485813371266977 4.570811844817235 -1.5322962372664963 1.3796272168731336 0.9677346906629205
Ni 4.01716899401489 5.893317137509031 9.992796578082904 -0.7370846256083886 0.1701599780892747 -1.2793179410284097
Ni 0.6686252598110569 5.162823012481921 7.803350770873923 0.827886990403942 1.7116710490858198 -0.7381251510577611
Ni 7.503842692676465 4.036016620350404 2.574878394036161 -0.34383362575876264 -1.824908860066754 0.2922146160308903
Ni 8.568774732655585 4.661637102089947 9.675437666985436 -1.0916739472217587 0.025081882669292288 0.76064904319189
Ni 4.030575408477706 7.473335326613741 5.200618858985889 2.6301380038618642 1.4128826364921538 -2.2220807922373407
Ni 0.5505957721536343 2.892401913223897 1.8867562204224275 0.04678739266718394 -0.3892639901774199 0.5963036149018635
Ni 6.773549755315235 8.50286748229166 12.406994613784201 0.7287815050593319 -0.26045069335573207 0.08767744601332643
Ni 1.6106718734698928 5.461879332920536 10.054779754472754 0.8743990179225521 -0.4316514540046953 0.5428226122645877
P 2.4791715923976563 1.3766906180499672 6.6373219287894605 1.1493828718974528 0.41703653230499793 0.1879862076374182
Ni 4.544564170334851 5.16019842793156 5.245042010101867 0.5657599377870515 -0.2631799193614371 1.8643858351154536
P 6.335920857553939 5.730053346646375 1.3431855557656112 0.654811381329769 0.02895884912619529 -0.4282632542587528
Ni 1.9438660828509993 4.096199167130616 6.178341532741818 -0.8123482713383946 -1.2042553555656164 -1.0834140212058114
P 1.7605841192331555 8.337363192422597 11.979936298886185 -1.6015190761190612 0.07609256938920445 0.013022637511913055
P 3.051532212042084 6.857591330290187 8.363852292104038 -0.5461460202108659 2.2610998538130156 -0.806326747734663
P 4.70164601291861 3.400803144905885 8.459913001136616 0.4108288608323892 -0.9132386164975692 0.04385813483553092
Ni 7.242783406407701 1.983344589833248 1.165473747024508 1.7888316547282224 -0.410446537792306 -0.6136945566848011
Ni 4.176546204968476 4.818289134660233 0.6623344872947055 1.084866694491938 1.6844145273627118 0.20122841735930505
Ni 7.300588280772954 6.329528576715257 7.845043256670257 1.563213238560327 -0.25442762709010375 2.002528122647551
Ni 9.01080232438456 7.223332217074542 11.237754084960761 0.00835762793607593 0.3503130628355193 1.4470945064871723
Ni 7.140470333413168 3.4220010089746484 11.670728231725079 -0.4486464459007951 0.02935068524797526 -2.712835994382728
Ni 1.8560293769060143 4.715738294424204 0.40598024893939133 -0.04189792578536655 -0.6113283704454697 -1.1464335594611417
Ni 5.490511995733003 7.672776317759412 9.054063159485377 0.11144189542277581 0.6092899998592023 1.066323127161796
Ni 8.183765554416146 2.2611115972640627 4.333116847983019 1.5491716728655964 -0.9503918285090989 -1.8009083833870985
Ni 3.848235368931942 8.678851820574355 7.170412545032644 0.5119531763792408 0.016351187664513774 0.9886228469658394
Ni 2.5095509299457297 6.289163015024349 6.08094292573113 -1.3858739691137938 -0.8074942856802029 2.0972588759632336
Ni 6.453999727638441 8.54388233144973 6.879567424830156 0.7099453461894353 -0.15412786432707648 -1.2556041423512376
Ni 0.40916632997543845 7.464812285495497 2.354837614883027 0.8158308305703562 3.0781594145841504 1.342343907041643
Ni 7.64400648153839 8.631892790378885 9.911325632784282 -0.8420023467594016 0.35988348013277377 0.02336489997818557
Ni 5.179823370248888 6.6338797907241105 7.063256336226714 -1.6051173349932808 -1.785439855437854 -0.16971286324952706
Ni 4.422534706083953 8.574151930270958 2.832931753678782 1.2665292739041736 -0.5935941863905003 0.0529104748457863
Ni 4.0473745785787925 1.6295103549115033 3.4254623513171967 -0.42413740501583724 -0.875874316916498 -2.331254717561546
Ni 4.809217399907768 0.195324874399619 10.765402025047136 2.4647597634319487 0.013238610177461071 0.5718999892465182
Ni 5.258423733351142 2.360223957392303 10.419279679154378 -0.345201966861199 1.2348247437120412 0.2691708468375493
Ni 0.5078854596658198 6.281170377752519 4.692437104757591 -0.08395063198104251 -0.6061655952976077 0.5284141501487416
Ni 0.35151326084898726 4.992535943101227 11.958373553550665 -0.22617660266421047 -0.2445944430497658 0.24663487051856234
Ni 7.418447673403767 2.413392370548382 9.337278694704013 1.7331011939351377 0.6137588342638333 -0.0968467712174203
Ni 8.326124117814958 1.1931983218723383 11.790358990305037 -0.5153079517840867 -0.7304987448607548 -1.843865860785231
Ni 0.9392903426362624 2.487831806924455 8.29976761909512 0.9148514695106437 -0.6771966910035048 -0.08449467740997062
Ni 2.700889545092728 5.801868198472087 3.549242148261263 1.8371529675414293 0.08358913487656572 0.9531315960377651
Ni 7.806648419615596 6.124097680062665 3.1837390287184038 0.4075895279594851 1.5446408748747784 0.49685771549869906
P 2.5459476076824332 8.08802766013837 3.8142812923569154 -1.0045415750786246 -0.10064454769695569 -2.234693081684713
Ni 3.032419383783362 7.160314753184185 1.520944917955014 -0.9312612783272348 -0.16656429031821635 0.052268213276097084
P 2.506624563896547 3.4244061160713204 12.064833835930521 -0.4332460521853248 2.69621741198944 -0.6624881811487364
Ni 5.2139155347218615 7.392567623656312 0.5964025457172397 -0.21787425344610223 -0.0952568010224811 -0.01819518285178802
P 8.48177935694974 3.6391282249300656 7.595288888245238 -2.4526025592441245 -1.042417781299108 -0.48013680319959245
P 6.18678592777249 1.3845460819132407 12.32537643569373 -0.265353272863672 1.3841914392050483 -0.9602332400795526
P -0.13540752954261306 7.454780336883145 6.773602795699877 -0.48683298427284544 -0.06994891838531178 0.2603308799484162
Ni 0.6489509350666487 7.208041954467565 9.084151689407312 -0.7297767790930658 0.905426319542002 -1.7026865861990224
