# total energy = -340867.7284404318 ev
CRYSTAL
PRIMVEC
9.30364131935100 0.00000000000000 0.00000000000000
0.00000000000000 9.30364131935100 0.00000000000000
0.00000000000000 0.00000000000000 13.61681949734908
PRIMCOORD
 96 1
Ni 7.584719096061079 4.057401679825255 10.058104215844729 0.6725059703960548 1.6130412178260476 1.5130314754996135
Ni 5.607583687750256 2.9567250986645672 9.50982296034371 -0.25642794534958413 0.7302424058755747 0.07709015741578336
Ni 2.0239699383394174 5.371773596748119 8.642445417413064 0.557285324657137 -3.3933753766062202 -0.341600879773502
Ni 6.183869833763605 3.4145851952671142 4.711446729002291 -2.189311825336436 -0.07260358239933946 -0.5835252321902724
Ni 5.183774918105328 0.9402073769625957 4.329113592028692 0.2564120045099842 2.7528852969951303 -0.389312069806536
Ni 3.146510076426446 6.177059568372081 10.578593634217933 -1.4567364004523105 -1.5552878130656635 -0.9879368766424083
Ni 7.503209895111433 1.3514004090789629 4.951293669940742 0.8746823534909258 -0.6977776004786499 -0.14104891965593128
Ni 2.503051640622383 0.7678825427256795 8.898332766222454 -1.1261272438036218 -1.705210895282773 -0.2368554225342953
Ni 0.6800989661202362 6.327732038338925 11.898417484910514 0.1219880463697383 -0.8568617803697371 -0.35680047033207585
Ni 1.6420461615806106 3.978962680486543 11.056639841230302 0.6200037867322806 0.22566083937005652 2.0239194438391337
Ni 0.8811646088919826 0.4782713551305039 1.0996048016892355 0.9982765680055193 -0.4245384971089978 0.6841710654388089
Ni 7.735875355372675 5.003535476261075 1.5237633882449848 -0.5494120925566474 0.659520356769664 0.5557863715141074
Ni 7.2848348278028965 8.976339146243262 3.302282802523936 -2.195324092968787 -0.6217477660065809 0.322208077069187
Ni 0.6281604585044969 7.318151167102141 1.6057768465501232 -0.15132047678526842 -0.26656246268042477 -0.461582951456805
Ni 0.254221997026489 5.45162674955611 5.544224030141846 0.2769052393673296 1.0642392480495737 -0.4364010528745388
Ni 4.904163284120548 5.6038715348934 2.967118196299637 3.090649062410729 0.07291982808817764 -2.05015729448974
Ni 3.1446214372536603 8.71420905415831 0.8420762905641842 0.09537841420200992 -1.0063719434191443 -0.30872572631203604
Ni 8.381371288609447 4.1835497514696165 12.852588697018108 0.24197654581094455 -0.225933633415469 -1.4105732716326866
Ni 7.48236973872207 3.2256003306523264 7.956879631697118 0.9366112297852386 0.30658091205489135 -1.6071917010238064
Ni 3.1917815947258386 1.8049994379911851 1.1269454122166551 -0.05312079108437949 -0.6402319408536974 0.5826803676914739
Ni 4.951183886974047 8.575454548626633 2.337681278216292 -0.6213045078215751 -0.30966032231116347 1.1554900132364552
Ni 8.093721308588771 0.5962954872395115 0.30198875190785773 -1.0959702606042674 -2.7929358851591126 0.4201748208236635
Ni 1.4399245555275282 2.3154065003469113 2.4444917315323984 -0.7792694865065547 1.4707941640969573 1.5557778653282046
Ni 5.085844790357814 1.021297914056205 10.493352742764818 0.9038985700435659 -1.8708261914241588 0.7586782926187643
P 3.0587116139950106 9.234282599767852 11.000129524306647 0.7174370265807902 0.15690516996189752 0.6261343251100507
P 7.3229332387022 5.323394662272813 6.242140399610863 -0.658354361486021 0.25839252527512274 0.19530536700665074
P 4.628794110543603 8.358754136742242 4.528994881269918 -0.8290933520072172 -2.6634335326902003 0.17074644672036401
P 8.860397169044942 0.8757861738881029 2.997416434378922 2.760459252687646 1.534361090215325 -0.885519810426062
P 0.8072183379106015 7.739066504319796 6.516628518361882 -0.25468859406097427 -0.3615356710242161 -0.703878056949433
P 4.097035191530026 8.750614202350977 7.430780117653028 -0.599792087671096 0.07678933834591291 0.41815496218015724
P -0.07851621956104846 1.9472614162723212 12.687130880384311 0.2587879609413285 0.32174939226521365 0.006400504209705106
P 3.7362120731154485 2.185992850625467 3.2396051018188037 -1.3467309803657452 -0.05006297809466217 -0.05986916555180657
Ni 3.6835627673085716 6.55161486126465 7.790455166737941 1.8159210547458469 0.39602059217496316 0.578441647019778
Ni 0.38471207804000873 5.271796667926649 3.122976515896583 0.5482103589390622 -0.06907602886205524 -0.8440880256438367
Ni 5.251607766424454 6.643339460301581 5.805503769416982 0.6579512125103314 -0.7318424033728429 -0.2386186850823052
Ni 1.2821161927255775 1.1425708776880545 11.160140989355472 -1.6316459774114285 0.16837177584060034 0.03177806374254527
Ni 6.731100708168036 2.3296782860171263 13.196059594146167 -0.7860119474367109 1.3784157130635357 -0.4838183658162377
Ni 5.899848273828577 5.008354762426116 7.995755827004526 1.1817656591035326 1.4500777574852122 0.6037767833504569
Ni 7.503535522555016 5.22608787848873 3.946099428515942 -1.3182878945337038 -0.36017092946620555 0.09435820046761169
Ni 6.453191640531137 8.905808241963012 5.994150911854567 -1.2165118043354661 0.14569001797236844 0.42966707658481484
Ni 1.029996818620515 7.1934451598507945 9.324212526408575 -0.8310643596906591 1.780872804892462 -0.015110373278877204
Ni 7.365097340825678 6.507627245457101 12.518935932496163 -0.18863823939912028 -0.4064921811302483 -0.4408398053721827
Ni 2.846114107899776 7.307210084997725 5.717117316858848 0.1454781590718785 0.04450348172901367 -1.438807840998348
Ni 4.364831201133336 1.765291497156453 7.770724004385012 -0.33658311484393644 -0.5726350676403299 -0.02118100495298933
Ni 1.053990909392018 3.141197697275408 6.838162359797764 0.10259344389321041 -0.10094922342156808 0.08235089159409043
Ni 8.339411866593366 8.395243017706118 7.509090726742556 -0.9370436893369668 -2.1303433172220276 0.9649262746798478
Ni 0.7175424006758742 7.550639858179724 4.27481009880841 0.1333294395244865 0.3602053822485667 -0.3860560247630835
Ni 0.39724873461798477 2.840904068802435 9.388865390150075 -0.4645165801638323 -0.8723868725885298 -0.8936444964157255
Ni 5.748059366912303 5.245746472439945 0.38981140380653095 1.4783100128580282 1.969447023822866 -1.5553757447937793
Ni 4.303594634457093 3.940780536816032 1.0739044231133537 -0.9278440251155697 -2.619806025808236 0.3533384799254044
Ni 8.667039593044887 2.5691167971049116 1.0854483811704612 0.8277990586758258 1.680221829437603 0.5689648178775943
Ni 6.972939558697095 1.1512418713286288 8.485307847144897 -0.33821859356483047 -1.85006684738962 0.27900608776041624
Ni 6.619336065888834 7.546174110382003 1.0425623164863513 1.2183982227249017 -0.7906594735110511 -0.0698051937185959
Ni 4.045204606152732 7.477838865435633 12.004015673772365 0.5755234449317185 1.4061082938827978 2.861642960717523
Ni 3.327493809570318 2.354900457433003 5.534815257750523 -1.213198166581201 -0.6728011330389704 -1.4021215413209078
Ni 6.8549507804248195 9.044311549181067 12.179958694089558 -1.1270520696107365 -0.36640611174263993 -0.6386401708865453
P 3.548892560283561 5.345565239360247 4.3474147847222255 -2.0306693609684574 0.2368757342492695 2.9109166101416704
P 7.934135950308978 7.055397731053757 2.8628271690327445 1.4043139209865363 -1.3936446141981482 -0.5408174089091009
P 6.475315699412344 8.555293558048174 10.075752292922846 1.2778578115431154 0.06166482399964863 0.8440839118787785
P 2.829097748062211 2.82332018684891 12.838836054529377 -1.3217259736809752 1.241070724621753 -0.04287134544222939
P 2.4373307188659283 3.0261767805603674 8.46416067059444 0.6408317792212255 0.01972936010812731 -0.6393613653232859
P 8.85366133278338 7.882426312267872 13.239891839144919 0.5295639474824686 0.35696476382408204 0.014022796641653271
P 0.3190581425005201 5.104433465565826 9.929657214448666 -2.0734718008459647 1.2026196197344061 0.3934039804877225
P 4.100003053087261 6.497858422149588 1.0302796493143707 -0.8388146930600392 1.0183638256736978 0.2499078848428793
Ni 5.633661794160695 6.096666804371866 10.673394017050544 -0.4317244733344758 -0.440156663262229 -0.14728307349110117
Ni 2.8064526852712697 7.0924262232098565 2.9465022576642848 0.43535461388789537 0.13066809064223947 0.05641977355062542
Ni 2.5029027823624586 5.021528718429392 6.325652674520611 0.3753340103598891 -0.747474710593461 -1.0369328469251369
Ni 3.174802449453255 2.3068564540425256 10.375662611376514 1.2445345148006373 1.52326189497837 1.195526974553683
Ni 7.788301373789665 7.169897643859063 5.121340042436696 -0.151217632658817 1.1193742413505046 1.1878450325283931
Ni 8.77065424559325 8.18827421456426 10.904485301213091 -0.3378874354776568 0.8825190759265252 -0.09980945339017006
Ni 2.259696296570347 0.1206403160271723 6.595347557302077 -0.10421683842924631 0.8347801179793494 -0.8854470482065977
Ni 8.230094081961663 2.9910741421420344 3.358288862092099 0.7324183304809708 -0.053748654476365496 -0.6745373990037867
Ni 4.113642191152799 4.200407949406012 11.803794801625687 0.8283338481333734 0.36533370461406756 0.009056967995945693
Ni 4.310032754198806 8.06939228673244 9.695447349740713 -1.5626177710681735 0.317813290435601 0.5587760502700506
Ni 7.482853528066824 6.4907969584444425 9.35792799191724 1.4781660310809963 0.6493351887065463 0.04936672335858595
Ni 4.614457199384671 3.8983652363789316 6.545373978717335 0.266033072539516 0.39420873577720494 -0.2192081417661773
Ni 5.892600737298526 7.959879125634588 8.194125274543397 2.0564320717548585 -0.8746533000252034 -2.589003438605083
Ni 8.250329501670086 3.401578704806253 5.621022797529021 1.324554444268706 0.6139539809937749 1.8705343712153526
Ni 2.1399677373852093 0.3201020110482373 3.543804398886533 1.2968875744810566 -1.1015528968983674 -0.4719470682999484
Ni 7.855036392441852 1.921136791655656 11.083668779776007 -0.16694918446146084 -0.6334138894905994 -1.0199841348859402
Ni 2.5895382896382375 4.602139178375959 2.4360077410808536 -0.4001947781573108 -0.12367366160227734 0.7829423073724516
Ni 6.110836249988384 1.4480187234108968 1.8689768573782797 -0.02229789216625192 1.1994885303045923 1.454319563480702
Ni 0.7521184529997258 1.5892666047963004 4.868421485548666 -0.4536025043544898 0.001990290957151411 -0.00637247918524709
Ni 1.6766836179366806 8.476119571051086 12.63397080467307 -0.3653223917601579 -0.28262697234245515 -0.21820412598169514
Ni 4.534083042666945 1.6637515566057814 12.851186638282448 1.0626019695564668 -1.419773707185032 -1.213458362221123
Ni 0.09599776146087546 0.915883937291011 7.068545636861546 -0.040846087482084494 1.7256830470941957 0.858035231852548
Ni 2.3720563718892462 5.369494204643032 0.061813392433448966 -0.19018604350221438 -0.026667996209489554 -0.582300872864868
Ni 9.04814464937411 5.1666097000078395 7.7467038634180225 -0.7688562615930308 0.14487652093213757 1.041990463953702
P 6.324726962216708 4.4544531772488405 12.032257807136448 0.42118475014541656 -0.23803992976069974 -0.4345922818005741
P 5.722409227999146 0.09956477751430476 0.37921920824881244 -1.0882929465646676 -0.003650452268393713 -1.3042661263333153
P 6.096862180838016 2.0529042626121488 6.493507109139184 0.31302126836359645 -0.19995135041909437 0.1718093407672396
P 0.31527807306257455 0.2814063063809885 9.293997090736372 -0.7072104637567757 -0.29285842026247627 -0.5526928201904482
P 0.38362076092194086 4.627361349791834 0.8629415667849091 2.471487826184402 0.19901238354459272 0.8741601624388687
P 4.324555738182644 4.6708837835371195 9.391342949813685 -1.5493922735168348 1.063482315278891 0.5831578215485247
P 1.160880443658709 3.688791413688403 4.640789295201105 0.2193186992021126 0.11840649966606703 -0.5950759131423493
P 6.304872991799343 3.5317831640335435 2.447949894983258 -0.36167142527113194 1.4449872303361821 -0.35702595607932064
