# total energy = -381180.6855352879 ev
CRYSTAL
PRIMVEC
9.12208073070248 0.00000000000000 0.00000000000000

0.00000000000000 9.12208073070248 0.00000000000000

0.00000000000000 0.00000000000000 13.35108722344488

PRIMCOORD
 96 1
Ni 5.635037547586334 8.279273279345444 12.802878357737155 0.029603938909361922 1.0414502751795163 0.1649771483367546
Ni 3.968086792942228 0.5492906410613675 6.504649134779608 1.3112232743774386 0.038279612306488915 0.4263840349581689
Ni 0.17430106622288588 4.608219673111626 7.774605119686372 0.40609905945688773 0.057712781330436086 0.5392310382585874
Ni 2.2812042923071547 1.207325604300456 2.0128235605907943 0.32610072725537387 1.304186165024999 -1.4219879412275318
Ni 5.100474505564975 5.988052942599809 12.977416598054214 0.5754288283353831 -0.010125261359459983 -0.6900514354789858
Ni 1.8310843498914624 6.568126044460499 3.9443912765183673 0.561992243214503 -1.0842971951417133 -0.09792869142768941
Ni 0.6419271934126125 4.5057148540267296 3.3538332552791794 0.4017955469855274 -0.314861921116761 -0.6514100689577038
Ni 7.312496939018355 6.787028611300425 0.6858335914921199 0.07516800069240602 -0.4278536775251599 -0.5564299186353772
Ni 4.217101347661415 6.1016137233053245 3.7233112690523327 -1.8989576595530524 -0.8095825356677994 -0.08111161987035062
Ni 5.2207400154711125 3.8762000756117874 4.262508327990586 -1.0842799687505327 0.03794099802014756 1.1778673524903907
Ni 0.897368253875798 2.075282446082855 7.512390002210421 0.44665744049522427 0.848745579020506 0.20748931066735235
Ni 3.7177495365440065 4.133497479465894 12.929486450246277 -0.1040440602968079 0.6529959253875851 0.53135034995893
Ni 1.6144623031878016 9.042435659826136 11.799957597666355 1.1784509929080027 -2.0276308312524502 1.3946951669498497
Ni 2.6795381834685124 3.9277854410941306 7.445113745982511 -0.15033985803955396 0.08949855838246523 1.2235255166491381
Ni 1.4538498310308403 4.305539918545821 11.789690696012885 -1.1486719618733572 1.2326966416254446 1.3243711246133063
Ni 8.326206383749804 1.7190195903953378 9.255507392781658 -0.9121775222229064 -0.11740659764664296 -0.9878348038469051
Ni 6.197979382183392 2.568276167060353 2.646051937995633 0.6265613853451403 0.9387488449535316 -1.3392354433196483
Ni 3.515357935490647 1.8029518534904816 8.455990784704719 -0.3736247409782662 -0.6638215552481793 -0.45915608718286727
Ni 1.4248324928169882 0.6651510982722938 9.367389710666881 0.5557046104335784 0.10229776702966252 0.3325696228091692
Ni 5.20218570364245 3.26492033620643 6.833246544590052 0.07187775997690848 0.6596476263761478 1.3443840774001234
Ni 5.318464864350395 4.864130520722882 1.819339671189691 -0.03214264617081561 -0.19213005460246266 -0.41603328785146415
Ni 7.256633317760377 2.921099998382381 10.937397378734417 0.6562373151430182 0.2137005816843868 1.0668751430105239
Ni 7.121015346296893 0.8010445565682376 3.6600934264589227 1.0277149278712945 -0.9412405010271337 0.5987860150040848
Ni 7.8575138853443605 4.278976419998592 1.264223669492245 0.21683861309273625 1.0087065050895918 0.023572388003301338
P 2.7447063268824574 4.546390211177175 4.62531080322086 -0.09069952066910185 0.44949516705433556 -0.21884638755138439
Ni 4.12947464194552 6.284839833133502 8.55123807650796 -0.3269021401107467 -1.1063096948570625 1.6353715058921319
P 7.705166018161227 7.586743168525193 4.239303579500048 0.041479093080393076 0.49233283104515213 0.8820390509663132
Ni 7.1702654591597 8.933271721943342 6.001326482000933 -0.8184389576171647 -0.7302799439817295 -0.4834645820212447
P 6.027241400621408 5.466799016093698 7.473337463188943 0.820550861753845 0.1294020794456223 -0.08575528928994908
P 5.003999381720366 2.1215496386074255 12.181104576872757 -0.41375349067835193 -1.1164997480161867 0.6893150715335935
P 4.482052177092831 7.235634288345637 1.2769444108123382 -0.7580067204730365 0.2616585976209042 -0.4177464138878289
Ni 2.4168222637706376 2.4109658880607054 12.364775844231533 0.6493907245348299 -2.9668136784196064 0.750227847858566
Ni 7.982559365456112 8.826406548357904 12.580234825665698 1.2645685506333768 -0.5713037504234161 -0.9043276871611846
Ni 1.1907325397889827 8.662847644184886 2.885877820981776 -0.7638585512681231 -0.7734467091771906 1.3416126853025734
Ni 1.81114348181995 3.4463676403283197 0.9499342430167357 -1.059899483023639 0.7479434226997634 0.4080199306286844
Ni 0.7768208716808173 8.027440001737833 5.303292107779788 -1.2968094129449537 1.0401426121116861 0.6691391108063508
Ni 3.672157377979771 0.7560590163602491 11.040908363303434 0.5089933224199685 -0.49828056398815473 -0.45662766433405877
Ni 2.4065599231574395 7.702894620105506 9.84037870900905 1.4162991183728704 -0.1605067712702268 0.6513743306237622
Ni 2.018132611468022 8.97647389540477 7.212830911399083 -1.142766909242832 -0.3612127404671585 0.597228697819294
Ni 2.7474155848043416 6.849879746255924 12.867470897868708 1.8017362786050324 0.2333787768396045 0.006039521325860566
Ni 4.107390084945917 5.375468745676507 6.315050339482648 -0.6256188189262128 -0.40874780993364446 -1.4123499039171354
Ni 5.629071706909862 0.058238098823859115 1.798444633493165 -0.13259307557909422 0.4086251683128511 0.19049509010220095
Ni 6.854823913911349 1.3867021961386163 0.3022884173104217 -0.6327040079077685 1.27727905622151 -0.11128660079183414
Ni 0.0372737333151905 5.795540554776754 5.487617428313646 -0.17446940409790596 0.8280829084648319 -1.568759622299853
Ni 4.266305850121496 1.4581736972092012 3.4650879740229024 -0.2641844493665515 0.4643096063593487 0.012753185900610295
Ni 7.5696575116642855 4.154396165994638 6.014237874804418 -1.027318206653508 -0.9161023111986094 0.5068019711956047
Ni 7.191091169044085 4.881617549127773 3.5528980335577534 0.5015479218855169 -0.05492287729012476 -0.157835909306283
Ni 8.954772465788059 2.241021527506143 2.0014610970638613 -0.770278338751538 -0.12984070964493769 0.1333006431690801
Ni 6.3777299793239 0.6259836210359478 10.551431204376058 0.4674365820241047 -1.2529088549072616 1.0149146907828328
Ni 0.9743841555016736 3.7564727684578076 5.743197144401116 0.2963684902982638 -0.7425371640825276 -0.6021145651566856
Ni 8.588402344856611 8.649337842897646 10.058601680848371 -0.6859451266200961 -1.4766570506356376 1.4840106627872311
Ni 1.3420222456288873 5.508778830762088 9.818416387888751 1.1970624373616028 -0.8931744987578424 -2.5927729329498446
Ni 8.758082165075367 2.8962332068165337 12.935280795808502 0.11511111674424693 0.06590354467134457 1.0079940524035995
Ni 5.144388201308918 2.428589747673772 10.05724066643105 -0.6257085504265417 2.1072183011687904 -0.7815300004059572
Ni 4.303569549148087 2.1063978628220723 1.0213966220067756 0.9210329157310073 1.4055984441259146 -0.388232463589112
Ni 8.82231073419317 6.554187505387639 2.7034352978724194 -0.06903257721862949 0.5871797982237242 -0.661571582871738
P 7.574692900125162 2.132842774322216 7.147958323394798 0.07420255145534317 -0.4719475825205807 -0.3838857565846421
Ni 3.187291430767926 2.5557150621497984 5.503705129562922 0.2664341646326766 0.42628761858962066 -0.09110035565194632
P 7.030770603464565 7.15841587653166 11.316407966677163 -0.07915835279872174 0.01725467331538964 -0.32332599272371415
Ni 3.630432981566643 8.435507152840774 3.0078400378692964 -1.1461857051163937 -1.4642478783380075 -0.9044073913591844
P 2.212843420702437 0.6089946582288186 5.042558416184356 -0.040702877036000874 -0.5926963571665792 -0.3579332983849384
P 4.21503975745823 8.758602123666435 8.967978501793151 0.30554655725310603 0.4045674533037097 -0.8888254777605273
P 3.8595614006975887 4.145748433637916 9.321876001995333 -0.17885364920853067 0.09898130106191984 0.5837293777812786
Ni 5.751307586213734 4.890228793162314 10.584328163445727 0.41064039897066695 0.4450399594964593 -0.21669128888159456
Ni 8.18757812570645 8.838347351791395 1.7282046132961637 -0.7905013506666322 0.39997263484417567 0.3331020982738715
Ni 2.1874384263844306 6.015346207590643 1.6869235499975261 -0.02622653779669677 -0.5269211105429829 -0.23335717957304972
Ni 5.579265147133806 1.6116891907021018 5.387643986580005 1.7897778206915755 0.830730116279692 -0.3114315552789733
Ni 6.504563387222485 7.869354345891854 8.741583970201562 0.44800829809616394 -0.008892417393623396 1.1855032717690939
Ni 6.0060234412735864 6.186950786804408 5.20540214924264 2.0386207546050508 0.3440190022966914 0.13013638650848555
Ni 6.025024735048957 7.049562089387399 2.832286509987573 1.6619716249781633 0.3216684025156331 -0.03783172613579291
Ni 8.172563181129274 5.912494749445034 9.674264710075361 -0.9555700302759285 0.7458099212965285 -0.056752731410011935
Ni 8.69391745052138 -0.12272847165330585 7.666688170214088 -0.33662142428103964 1.6135261278822661 -0.3582839968561378
Ni 8.05520761491701 6.753632674424942 7.21219054134482 -0.7505839456464042 -0.5098885805407284 0.3574201061939457
Ni 3.5520378213623536 5.643958942359408 11.017263930530625 -1.2175194196643742 -0.769176878157243 -0.5201606518906977
Ni 0.8570778485243544 6.759616759262505 11.570265433957724 -1.3147338586338584 0.5559938595392231 0.9225364968597274
Ni 5.87067001014591 1.0600678580614702 8.169837503462409 0.5738244599627408 0.027025636659224424 -0.9328126819747549
Ni 1.3758195540483535 2.2509098628169935 3.8170889936797656 0.27381425914683166 -0.19334001575016377 0.6111764182486378
Ni 5.166199095892168 8.603919003863766 4.706564823467973 1.9895926455328057 -0.34719508603182786 -0.8557796030491519
Ni 8.02655515992496 5.017919676632135 11.96054452799779 -0.35849611286694394 0.746846590091159 0.5275975677847171
Ni 8.9849209419895 1.3189068935276922 5.513891756907597 -0.35607799034375454 0.6308839239798941 -0.3372868257791804
Ni 3.2931349313323164 3.5772968623916395 2.713768790713869 0.230832356268667 0.6205457752786796 0.4652953673113857
Ni 2.186945834034997 2.849582886909071 10.082820804695519 -0.15494753201489445 0.5878778527320134 -0.776215015950947
Ni 3.3420384051344105 7.678429200083642 5.467136533073866 -1.8057073474376386 -0.7143902693346664 -0.5318895102918517
Ni 7.06309013483573 3.8005232954099273 8.63587000318091 -0.3822464212090062 0.339889296399034 -0.5250007535918185
Ni 0.4255103935212156 1.5510273550774187 11.345767382911456 -2.0983755060661795 1.7070875434801955 -1.1259917466670222
Ni 6.038297362242027 3.7412297718670042 12.975720803280886 1.251513774331948 0.22468176328623887 0.46659943083478994
Ni 3.500826461182358 9.23838707201468 0.3942097985469338 -0.3191890877372051 -1.9191570173190624 -1.134135458820079
Ni 4.8278155180729785 7.596640625916589 10.676556958796606 0.7510971378373968 -0.3513026804422982 0.3670892538525936
P 0.08260135154361899 3.5928956201237003 9.811139704237954 -0.1486249322309763 1.1041504824222148 0.6662067676509044
Ni 0.9873648761173013 7.91293052465563 0.6160004160874286 0.06713330331338761 -0.27064228917675326 0.08954998044569093
P 0.6238052682017863 0.8751340947552564 0.44895961377036 -0.3177639252549043 1.0071170491152848 -0.796033593338771
Ni 2.0976497875793547 6.466925682893546 7.118773138898916 -1.419575218020981 -0.2955207975859878 0.417302641482191
P 0.7286809160203451 7.604850498407147 8.574388092515226 0.10825527016467808 -2.485657175706248 0.027954576231397018
P 0.22322916964245157 5.927108322478229 0.21946813583372124 0.03258153348044711 -1.2767008151205366 0.5288576654440634
P 8.268390637255182 3.0645355928729847 4.124404589578573 0.056555270687225184 -1.0733504663222224 -0.538512414925008
Ni 5.11615536202194 7.4683932955335175 6.9490002734586005 0.7814528673111186 2.0944067512264186 -0.23472834888896352
