# total energy = -340875.3459711491 ev
CRYSTAL
PRIMVEC
9.19835896306225 0.00000000000000 0.00000000000000

0.00000000000000 9.19835896306225 0.00000000000000

0.00000000000000 0.00000000000000 13.46272812681313

PRIMCOORD
 96 1
Ni 1.1795423415594328 7.470539077942738 3.881344995631605 0.2412941750319393 0.3600981672467411 0.4000531103731239
Ni 6.383789779894788 1.0670464135117086 4.120079199764936 -0.7508981344527131 0.6466643267426023 1.484841900439275
Ni 2.988335209841414 3.073760367959093 3.5805605027473066 -0.26861343167218255 -1.040232600722331 0.63837354748872
Ni 8.469784388785618 1.8344010991638178 6.082769809025369 2.2201681485956604 -0.18416914788417316 -1.7266708649287617
Ni 5.206602218186559 6.81019809849727 11.251529059298507 0.8415873707091699 0.3917021673052673 -0.6937314554337343
Ni 1.2395800294063253 5.7144344088314325 13.56692981666991 0.423856897660941 -1.8992967880600258 -0.24233881424636972
Ni 5.273179939135816 9.30368000195181 6.22560928306196 1.9369395381134644 -2.0548667841502675 -0.08700407409538564
Ni 2.0431762487058616 5.098880238352797 9.277165732728788 0.09249723599947296 -0.14351537891855282 1.5439816440242247
Ni 6.50344203108406 8.075229986685938 3.541182328751206 -0.47893429825105904 -1.4422232944378 -1.1135825743693917
Ni 4.706910575074165 0.011905435786767737 2.2067295069101274 1.092464304333538 -0.3157265831099014 0.7528912536233421
Ni 3.2741558126400183 2.363325126522791 10.68239164696496 0.6627455485751812 0.15699515857254254 -0.0008947439001274912
Ni 0.5363572211002128 8.570304053683863 6.952260311215787 -0.6915514170632798 -0.5154334216183575 2.0334433241691685
Ni 2.4117268904955727 6.553444309486958 1.7395457836107728 1.2037552760007462 0.6007145994853654 1.7554541077090413
Ni 9.132940066021977 6.158154038683776 8.925492239653874 -0.12741744491542573 0.34733341138190504 3.024617219691636
Ni 3.5951141460307987 7.806913860671864 4.11566398754393 -0.6082456177550879 -0.08167726256583352 0.6557621752788125
Ni 8.681558203294427 4.375797253575071 1.190908753520886 -0.6831475092703009 -0.24038143340968277 -0.28227730231252035
Ni 4.083427419315306 6.3093198671004815 6.152641462258674 -2.164335357896756 1.7651196558232631 1.2106414615976182
Ni 0.06171914783439246 4.628623343380447 3.5554388650456596 0.0757200165411341 -0.783103001320032 1.0302240674463936
Ni 4.210944267273247 3.994838025772573 12.601975067574303 0.4559568635192793 -0.7880243498810493 -0.427653902809528
Ni 6.568170881915772 5.080189173283871 2.770966033678357 0.23305687472381154 0.4719424403142582 -0.024564833823557695
Ni 6.159101469639534 6.373322047587486 5.131938220021703 1.6957906304101376 -0.25592246646807537 -0.2809182171814646
Ni 8.148798460318456 8.528368735943095 5.07753544677187 0.039547680385635116 0.050996288542208945 1.0374979753999873
Ni 6.71333018204015 7.954151989883632 9.374017092140079 -0.6881791581569374 -0.5705995252675399 0.6093771602563699
Ni 1.404736561548344 0.4359847299426685 5.208998390652334 0.8045223475360725 0.9185818830873534 -1.107598588871815
P 1.2191780696017587 8.376936155121372 1.7718163857669322 -0.2534819753473828 -0.5217575640641724 -1.048973837250071
P 5.723641965983989 6.9724111558252835 7.214742838082856 0.5951458471483363 0.5500538399057043 1.9907758672076294
P 7.612405365618947 0.29093397045205754 7.176495142382509 -1.008013078566993 -1.0319526201017262 0.6123372713259583
P 5.941357920273571 3.533908266617098 0.6557031669416524 0.5680806155004281 -0.6052659663014738 0.3414155032355733
P 4.2053516651266385 0.6500535349705231 4.431418809365078 -0.5620639769927029 1.1096097057645729 -0.8866896623644471
P 6.584838308050071 0.24481155978837002 11.312137965226492 -0.07294116824441632 -0.4820234786993441 -1.6651664777663773
P 0.7494638777982396 3.899892566303349 8.18439610885032 -0.7528025505642777 -0.6022377209981112 -0.10980873069472703
P 4.871855544963927 6.588609635155513 3.0097278328880694 0.5805604931349937 -1.1016842802699092 -0.6440412872974586
Ni 2.3707114086341825 5.477539876456854 4.9191461471944224 -2.075930803909418 -0.41434510151576387 -1.0348589951152434
Ni 7.318361430058719 7.379438532449306 12.136473724098327 0.8579573274267611 0.7355311650783397 0.20180254469522022
Ni 8.558520956069051 6.744494221633419 2.456032625297492 -0.30772016786565715 0.5488112257478548 -1.1044312468874269
Ni 5.266603112598276 4.3758432453690395 6.622571815493846 -0.42822828725575923 -0.06454085999586304 1.281028238851297
Ni 8.185849449539734 2.000615442567119 0.4018257047261494 -0.5042187838494606 1.1509183347053726 -0.21722967788356784
Ni 2.0400488067159825 0.2734892829996856 11.364682669999985 0.16347896652467328 0.30367582259295445 -0.41820381314022165
Ni 2.2167860725793487 3.413023435349462 0.257707658817226 -0.6501497141880417 -0.31729289915575676 0.41794361750029957
Ni 0.9133537959343572 2.5124673160048676 2.140883055484973 0.3570696648330625 0.6357510222642083 -0.19025572039788524
Ni 0.02263716099145129 0.45221155469074625 3.1353884520414272 -1.160410590466524 -0.21538953935103552 0.11947710702242649
Ni 5.360343587065517 1.7880045774080762 12.139126530774448 -0.20441375706582215 0.8109364785925324 -0.4247914936600684
Ni 4.074348639185862 4.74302333169848 1.6729459866004095 0.3574139355463587 -0.027823192859855312 0.09920421570600334
Ni 7.051976959391336 3.69342620481854 12.007703139836796 1.4355348266740309 -0.7228530553900389 1.106026873509321
Ni 7.964417358297472 6.91618158851901 7.30421619390567 -1.5994457385298002 2.872075211794441 -2.9851109340668978
Ni 2.713028331144081 7.256576054041012 10.736646326638214 0.249607322883325 -0.7962405671432545 0.3047934811371654
Ni 4.188159932541095 9.019248351331063 10.601117708170905 1.9070908301831477 1.661674662563035 0.8848945181372373
Ni 8.69131766197461 0.3973746189058474 11.920585483701064 -0.7526565119047167 0.27252485091144674 -1.5376832126100228
Ni 0.7626966367589474 1.94471701617742 10.390788955828596 -0.06488615915042373 0.4891066107983706 -0.6461033120328098
Ni 8.476885521774403 8.805128955329844 0.7290959519212099 0.9353182220054279 -2.0227835304624775 1.0303809047392318
Ni 0.442912933786131 5.956489220489312 11.450575104744386 -1.293845188110307 2.2491293117147007 -0.8091637029628258
Ni 4.483482439973657 4.708308725610817 4.441475375034298 -0.3148058710678449 0.687444593983758 -1.5621765697656969
Ni 6.2046517423862495 5.425100032973611 13.154862659262788 -0.025481432100556114 1.7441032014725963 1.4201902258971606
Ni 6.364280060893217 0.1558238773098665 0.1516119488182023 -1.609229043168809 0.46511718986230866 -0.48769918892788267
Ni 2.1334213468314727 7.150307414896664 8.471178859978751 -1.1188798182125892 1.8441489392432884 -1.817801045377379
Ni 1.1151078382091215 7.927872278809851 12.779453721156445 -0.358006574825035 -1.4174980237769779 -0.008307234314114726
P 3.4555382496942353 3.1347546851205372 5.929914242098251 -0.2057437887311553 1.1962078026707914 -0.7420877352499349
P 5.753325069811463 3.223334880304477 8.492033379035972 0.4901273387534011 -0.893643725084777 -1.4404330353065968
P 8.450523025471478 6.352956881218094 0.2703130897081992 -0.8132687262701348 0.7005268810890128 -0.15358793266320644
P 7.0638060488001155 0.48653523052967373 2.1489610541776565 0.20766465990295202 0.18209375341238315 0.13251234293982986
P 2.0793717905593203 7.449980746038677 6.015321923334221 1.022019420148414 -0.22963190820266258 -0.21810668117188242
P 3.7334206688538223 5.325012690938673 10.940997065600458 -0.7897567591911238 -1.2154108579618037 -0.5932936244309459
P 8.572309295900903 6.44717567034261 4.583520110871108 -1.1197388237787747 -0.5133981363558836 1.3937343456984772
P 7.318793752922026 5.828126123522345 10.52303376020653 -0.007240483612497207 -0.360731687065682 -0.5070840212123977
Ni 7.181085123420597 2.2429002131948423 10.241743349113854 -0.5237383419396271 -1.4538529082569283 0.6260481931541476
Ni 2.364631293471505 0.6414889430976501 2.7547566858119876 1.5908999058423183 0.47983212747498 0.6520654431535158
Ni 0.7991975641243587 5.81259009551968 6.849202819126344 0.46086381390259334 -0.5639385683075965 -1.0691464555432038
Ni 1.811432797255791 4.1675740055606525 11.41060455644197 1.7134068008300043 -0.27609662742310515 0.47674243280606277
Ni 1.179459556330289 1.5980400715992782 7.7415797578315235 0.2474378260358319 0.4388178898461475 0.962099346754014
Ni 7.8289531283417215 2.428486300217809 2.904799394619974 0.07676799818967424 1.518273440624843 -0.25539950408506984
Ni 1.1241958166973596 0.9067585726792289 0.04947705211577299 1.8807115688586706 1.9292177439891742 1.3711559461773288
Ni 6.311978192791879 2.3355184878892445 6.258472259524438 -0.7973880504841364 -0.9455872080316037 1.3884746399614345
Ni 7.903625405029492 4.616260749161629 5.907525436794231 0.5584302368948576 -0.07699682637102868 -0.29087892793860226
Ni 4.184075861236664 6.103883721800573 8.87200470310402 1.285610973125973 -1.254825098093368 -0.20689667138867596
Ni 5.515335932740427 4.134607087643805 10.306417929628683 -0.2565544436251195 1.1253613121718749 0.9023484519476266
Ni 8.869333499710311 4.084439238782621 10.279546764084461 -1.0072222072345813 0.15461483126582404 -0.7474916798743255
Ni 5.416821510059224 2.9829633683058563 2.878829668237542 0.027446269136410795 -0.4995283203523268 -0.35740570801624255
Ni 3.2071089753922783 8.450854166388053 0.5145396338772859 0.07001885239129876 1.2759449107911187 -0.5787401520968033
Ni 8.639107777461211 0.30896367352371285 9.15349747809016 0.0074263743710581785 -0.34729741593764707 0.29371614027708126
Ni 1.2347968828335685 3.497988675527453 6.075338454955888 0.5324142724470701 0.07694026210148039 -0.5650963360611234
Ni 5.851149615583135 0.9909299944933181 8.530953474764143 0.027396132624765722 0.04540722449020567 -0.26020798121730665
Ni 4.376496328843397 2.0559251739940176 0.973741941251292 -0.7201775654404049 -0.1091387012108959 -0.13594168033635298
Ni 8.057412765702418 2.80023797086775 8.219641460240382 0.13772833992313055 0.2563945210084875 -0.675865630896907
Ni 6.9325914606070835 5.1984432739364905 8.154266884621348 -1.013067353161449 -1.4203745739938247 2.190717961655343
Ni 3.5374036429587283 6.34224079322336 12.892218241280949 -0.4759106809333868 -0.20327193015189507 1.1523779499700346
Ni 3.3470344093630047 1.1202773158512165 6.705690945061929 -0.6115931940710821 0.7032717908240017 -0.09837760603964993
Ni 4.1074719292022035 8.351346320957122 8.475891179188798 0.8955355427908512 0.6751030416992695 -2.0424720100303406
Ni 3.2341521502459423 3.4534778173244325 8.187088468469254 0.7392109279227721 -1.1696727324947402 -0.6434296218553888
P 9.44165538385826 3.0316686781188324 12.21945855762802 -1.3674342743513674 -0.9449171785477727 1.2745871112116436
P 5.375787631480246 7.4548006860466085 0.12185893746389578 -1.1212218360822046 -0.3053488394200032 -0.6612728206843966
P 6.2940597898616275 3.7418555638677033 4.71943965958715 1.7443551695824022 -0.3789091293056571 -1.02253904009731
P 3.279546050893164 1.2010205093428699 8.87632609206533 -0.23589948637892924 -0.44908816142390395 0.369067460624887
P 1.9395475385353251 4.558467460860415 2.4554531286934846 -0.08527757832258218 0.023738481267520407 -1.1377617427187567
P 0.7754078487760488 8.00579157615182 10.295796584729523 -1.162112146538663 -0.2376468080873391 -0.5060087858703479
P 0.46198113156560217 2.4254140483806923 4.310900072777433 0.20711084428201101 -0.6342986060883979 -0.5898550310630422
P 3.2481980441240186 1.3485989778300072 12.782739374917577 -0.05746389854442362 0.5199595916234852 -0.08796540956739043
