# total energy = -381164.78676547937 ev
CRYSTAL
PRIMVEC
9.28859520976093 0.00000000000000 0.00000000000000

0.00000000000000 9.28859520976093 0.00000000000000

0.00000000000000 0.00000000000000 13.59479799507750

PRIMCOORD
 96 1
Ni 5.859143645875335 0.9540223192291079 3.9149078541353965 0.006497691909201713 0.2565783548845194 -0.9154811326748428
Ni 6.621105683194384 1.1360880727581049 12.794445348603 1.8701600185950695 1.1871086685830006 -0.5243983441211291
Ni 7.5716726450278085 8.057540480117588 7.593768355169881 -2.5027717238993477 1.2645860341348736 0.08719716394279821
Ni 3.8172410627149924 4.178121561470596 6.761250149093818 -1.1587380878601077 0.04513854420985129 0.1329291187622743
Ni 9.282241750603697 3.048024632584039 12.48330063257639 1.1779683968446293 1.1599339079404218 0.5453001272708028
Ni 1.2157284875715133 5.47697368703665 9.183503055303019 -0.8224010275887061 1.3390690929451132 1.328299513133435
Ni 3.994894733547889 1.4013610616379897 8.056631126652434 0.4741281351116673 -0.07572258764429539 1.9977530698564108
Ni 5.7783885996439635 1.3945896757738685 10.280250212164145 0.6588382431009749 -0.2849589629097415 0.07695440316886748
Ni 5.946595769209629 8.15157821741301 2.747304506893922 -0.5503382039153426 -1.0009546290583147 0.5482720654149331
Ni 1.0628939429785784 1.1845373850588674 3.0286486231017937 -1.16988793382934 0.53288581276685 2.2825839918287207
Ni 7.752670210114592 1.0827808251940563 8.780145810927902 1.8938984998625896 -1.2988583250541825 0.31868592284854147
Ni 9.105173261265232 0.6835217089989798 13.351763844162708 -0.32435931908423493 0.7922129340411002 -0.6999198436326333
Ni 8.614280296199473 6.87625410336111 2.84827339389004 0.9975430322736046 0.3241544021622804 -0.7586268705555387
Ni 0.9430803541427777 8.773514682850541 1.4848506702814281 -0.9605124618828684 -1.6423312250394169 -0.027233124684340193
Ni 1.8772808113224555 1.134072447610623 12.16153905229369 0.08479832469331847 -0.07007156000610514 0.4925788856176872
Ni 0.5926643866828104 2.577204321636751 1.2716263243228092 -1.3194906565925535 1.012881205292572 -0.10511826719759317
Ni 0.3459918095901719 5.829234369493346 4.981065809449575 -2.1750105782224156 -0.6486124516079088 -0.6830770610436816
Ni 5.4131424611680075 5.085347938335587 10.992984552908887 -1.4222941596140408 0.8888964402077787 1.0282857127731
Ni 4.368918594440299 7.913511523726556 0.43299064948116167 1.1733306409623017 0.15552885843966116 1.697768837182431
Ni 1.5646452757743212 1.208929235921943 9.718404455328477 0.8352233761643552 1.9775136028810847 -0.023022943257734543
Ni 0.1818762661879433 7.327020337380227 7.226096964500342 3.3933406667135433 -1.583651451810021 -1.9083763817637909
Ni 2.4730048612475724 1.1767814081088794 1.427480591198907 2.606675401963549 2.5755539979683966 -2.882317458347739
Ni 6.122354566631989 0.767075408948951 6.14318981441225 0.022733437041773753 0.619200831215011 1.3742854929452462
Ni 5.28050132243049 5.341555258349377 5.149627803349959 -1.4313207885926833 0.5961532053669281 1.4447974829228794
P 6.430020703775042 3.2932992761066497 11.387356010336198 0.6922831530229819 -1.4163531115392574 1.365899582874396
Ni 3.188449614056993 4.916351238182197 1.7051547834631375 0.5240679573649039 0.8572965539143107 2.4888826246220814
P 5.89389228033031 8.523279929517997 11.06211399345091 0.22674198824937722 1.3013810914760362 -0.9217790498684125
Ni 8.311277033821563 2.8626707163720533 6.967320419068147 0.8098694707805988 -1.1103008182943266 1.1564387503029698
P 6.143551140763573 6.467676668511869 1.4860879111553664 -1.0130364999235135 -0.7963092155976608 -0.3098701243291244
P 2.3002369914634113 4.971256124111992 5.272552142701389 0.6818727563229353 0.47958221624770314 0.3907506020252754
P 7.477894988396578 6.615606834865769 5.942082440826396 -0.34559380298297904 -0.55286071322688 -0.19131064402496084
Ni 7.527282448807458 3.4336871031990053 0.3925676122492428 -0.32852784863962775 -0.22231480571595905 0.10940301061587611
Ni 4.015013830642109 6.910510442273153 9.555892123449084 -0.48135242077424845 0.030151840993031944 -0.8921429721695346
Ni 8.619723412957187 4.431681631866727 2.937536793278523 -0.7624930383791643 -0.3410277808788514 -1.0291706864812147
Ni 1.4607058960493342 3.878703696820465 3.575635414276508 -1.3727271473191907 -0.5712605558903064 -0.37794985071618137
Ni 5.984019519067714 3.7545151796691623 9.209401516299375 0.3936654616792253 -0.18700841710518115 2.5778849600944187
Ni 4.066621265293764 6.798833662788477 3.2616502458531245 0.5469407481980194 -1.6571068406866944 0.727715782798979
Ni 3.830728102872337 2.4407455702927128 11.128620334722662 -0.5368291136853143 1.024176832811049 -0.23365979841513307
Ni 5.645747460906446 0.5121592036609661 1.3161437742967097 -0.6743409667222645 2.05356760572287 -0.25098877661188385
Ni 0.3939748344144202 8.865787587067523 8.89825772913228 -2.3524030695043874 -1.1057715629654052 0.383479779395475
Ni 4.445893182445747 0.6719964201372493 12.797204990221971 -1.7414981597495813 -0.10525196456198002 -0.5807137308834064
Ni 7.846169208891331 1.5500900471747632 1.9863902231077581 -0.35109519241718246 0.4325181728803647 0.3766779259822932
Ni 1.7587118942367128 0.055792875626104424 6.0950776781154214 0.21994347727030508 -0.4744189268792087 2.1084989676534267
Ni 8.182518527856613 4.807637520550271 10.665118507893812 -1.003126439898653 -1.9909887545493838 -0.8344515309953371
Ni 7.87461088723967 8.717773823357275 1.2706092231539186 0.22795323494865904 -1.0756503180999928 0.7149929359156719
Ni 1.3281019116924155 7.425516600347497 10.985195137016358 0.06356589767710343 0.3876753055340614 -0.9703032227210452
Ni 2.479256085783311 6.580031515442472 7.36804063128027 1.2674823818460623 -0.42125339859982286 1.5210458611636577
Ni 6.058235394313706 4.054378896886479 7.127086113361778 1.0455113326227672 1.2124219505368088 -2.4574853412577227
Ni 3.530548573419932 1.9299378572260257 3.7005177894854926 -0.7334657979088787 -2.410218437850959 -1.5576678832620658
Ni 2.461356962929866 3.5338088703174715 0.2599515527186297 0.002540249923350464 -1.729865203496343 -2.497675797433679
Ni 3.638779284104074 3.99338069253849 3.8927480526867906 2.470938895659467 2.9641795832308695 0.5625067209570764
Ni 0.40789843854379965 5.587963110480249 12.276414823947917 1.665095515319126 -2.908904464807648 0.5374811454470163
Ni 2.384335931948669 6.841867724116972 0.3886468962365603 -1.995455789181802 -1.1971593679507835 0.927720612163828
Ni 5.721319471044293 3.1265039730037367 5.014332912978176 -0.12827053694434037 -1.2626731333828771 -0.5237578823236528
Ni 4.145434995138851 8.482242916146685 6.896885930907594 -1.67944432784163 0.29896607582211093 0.6620585498104856
Ni 1.6912023846887942 6.623715778431445 2.650251691612912 -0.6333773798257092 -0.30980661808104065 0.8980233422097115
P 2.3363696265956904 8.727768351738336 8.291698532965054 2.6201209859454937 -0.6783488023300769 0.0177678655063823
Ni 1.268961426374364 1.9768638399222398 5.274482312773494 -0.028486537475467068 2.464468457443775 0.18857884691609458
P 1.8802903161509539 3.4490968825523343 11.246147071432611 -0.5758708009688083 -0.029225215413704504 -0.15592995053282177
Ni 3.7239557016266955 1.4891847287782716 5.893915501818185 0.430141188007756 0.5821296373943264 -0.508794319035285
P 2.6995165425678174 8.18972647769277 12.473131478606513 -0.5654827728662648 2.583742704426776 -0.6806296279444537
P 0.7742462044045086 4.789515471413234 0.8019308622481479 -0.4285183076923524 0.41917157637012975 0.8289290585152111
P 0.8150928015752531 8.677777132642726 4.151307244992482 -0.6681260961608041 -0.6156390820056816 -0.2425301043215694
Ni 2.7556382344622206 5.481803756514488 11.98575796224297 -1.039176905764307 -1.0915592760207653 -2.2207733862798267
Ni 6.620483347319355 8.016837856171662 13.11741630397419 -0.3880668845455252 -0.31756466475990475 -0.12961573811832514
Ni 8.169430897290706 5.490330686861899 7.946281687414648 0.02312347339134082 -1.1231000269415239 -0.6138297967110847
Ni 1.9482549668612068 7.252692998992438 5.341192074279024 1.9276953938073769 -0.09648218878914995 -2.053136688833038
Ni 3.0551396964686988 8.589340418222564 2.2844017944522266 0.7239632577350822 -0.7838771604818952 0.11728292758458511
Ni 9.163310578307117 3.3010645416517876 9.478415022446038 1.4456045522052072 -0.3955652498050994 -2.521445131939135
Ni 8.028662237797214 5.85604125509534 0.7152877755513911 0.4202972053341407 -0.047433768001931206 -0.4918942008458367
Ni 6.780804499602937 5.855409630625161 3.7373870102131415 1.6276913636390546 2.3275867817916556 -0.0014333900124168862
Ni 4.478106030424858 7.217795747015067 11.835903198974055 0.486782076430252 -0.16127784510829643 -0.6880421183584409
Ni 5.529231323348784 7.951743381362663 5.264218415133091 2.2504601147109824 -1.6960749944197757 -0.8386683972901621
Ni 3.6844420178599306 8.942520671599079 4.412844360903164 -0.280071295800137 -0.10125441336681272 0.4369998628008022
Ni 7.7893880267413005 6.520027190775499 11.77097406115872 -2.0048791393782306 2.7746555987926858 0.4092057234066695
Ni 8.411287337798232 2.270950050956451 4.229966784158084 -0.6169225767037956 0.08018885094576512 -0.17143935902233054
Ni 1.1661552552576386 4.401995281768331 7.043233320647987 -0.9269186850878229 -0.2237340546609889 -0.9139163592908841
Ni 0.13179123228132097 7.52871289246051 13.143845143753591 -0.3475265012293176 2.613447173469744 0.985054927108923
Ni 2.3108817215049515 3.4916107825524474 8.861864084476295 1.3059771954871509 -0.9797810803044933 1.0500501010333851
Ni 4.791038801017782 3.316697247288709 13.21785481218726 1.0969966449862525 -1.1031400388798291 -0.011286114436780563
Ni 6.639023383238128 6.473723543954314 9.451075900341966 -0.5742263233868498 0.7064252488513189 1.4609576376225097
Ni 8.029451768384938 8.983817765634583 10.792937008029613 -0.7601206814922457 -2.440689352746306 0.3295768587294324
Ni 5.523314488238435 6.466840694948397 7.479504701936018 -0.4588254433163259 -0.3154604739327083 -1.3719517026057468
Ni 5.803031242576081 4.333129637328558 2.561328254806907 -1.0693022643947778 -1.3226986220068897 -1.6220143678589356
Ni 8.499621877671746 0.5905280097983825 5.942027638115013 0.6522395068375348 -0.6303234234907339 0.6504369064111573
Ni 5.689645361583863 8.681854825913438 8.720220439319702 -0.6634515735032702 0.8000722821845189 1.3777389987114852
Ni 4.338600619871722 5.527605819197589 13.429403495580877 2.553220624578519 0.2524054544537524 1.7331119925684153
Ni 8.718907031965536 1.7168110415164786 10.876885473273447 -0.2388395428438596 -0.3780069292063619 0.7754567976286838
P 6.354810948848033 2.1195087956359693 7.889237638021881 -2.4734040693705084 -0.373244474820712 -1.3401895797028016
Ni 3.5343754746216023 0.13274517100319375 10.446773359429171 0.4050868161422895 -1.3042589272444634 -0.07726884908549272
P 1.11788242626472 2.1109261337176592 7.574912507016018 -0.49121825782473466 0.09454126301269525 -0.45738254022221225
Ni 7.895593823682811 4.3329159996401145 5.428185341012924 -0.9296468826522634 1.4961984631026748 -0.9623112056545041
P 4.3352288598323865 2.6431161928189235 1.7752901788598725 0.108115145042388 0.09495623906292679 -0.682315757397625
P 8.71494080183662 6.953005765082967 9.668715115575232 0.9378013934385978 -0.029765918408522926 -0.27285395211609137
P 4.043864207177034 4.83699876981843 9.018380628186565 0.3226585343430443 0.3152676411956119 -0.7814508104285897
Ni 7.87518678013895 8.697097410554074 3.938236160853833 0.12766118549511565 1.3156005775095279 0.7412996921310008
