# total energy = -340889.3812847098 ev
CRYSTAL
PRIMVEC
9.09888790344561 0.00000000000000 0.00000000000000

0.00000000000000 9.09888790344561 0.00000000000000

0.00000000000000 0.00000000000000 13.31714217637683

PRIMCOORD
 96 1
Ni 6.858969070489429 1.804364037399233 11.43469782065763 -0.8959366348840118 1.152026737278203 0.16883843106437374
Ni 4.574747890066986 0.60358381887041 5.937474662505677 0.41560391362352933 -1.3465170645827262 0.922009934932296
Ni 2.799846051255283 1.7982768814835264 4.888097206743043 -0.41384347928899695 -0.9481904499824058 -0.9911921503549124
Ni 3.2943433046945945 4.443687510680086 4.731167779547556 0.6229412720940498 0.2676073590051714 -0.606216246029885
Ni 4.868878536002901 4.722677607372749 2.4385155697207876 -0.10508792818028997 -0.0044441518142826686 1.1639918800598792
Ni 7.033340155644286 6.085327039265426 2.4129067501023185 1.2405873572274313 0.36641073972833027 0.9233188835517067
Ni 5.234799406415534 4.149693348060667 11.733267813934761 0.6400835882012912 0.39495949790030044 -0.546154504851298
Ni 5.750133112839849 7.901110180811463 12.667039351181685 0.2575605162921306 0.140564523820345 -0.17132957291734366
Ni 1.730253596542089 6.54211850180087 0.2527607329285272 1.3108034132312005 -0.3493401573992887 -0.20547048046511066
Ni 2.8415735505518893 1.5269207516268537 0.5062593856549076 0.029035725110717735 0.25510536988341875 -0.12410200738894757
Ni 0.19574164285174667 0.0696701836271516 4.861342837154788 1.3692942103782417 1.0301608183086257 -0.14510020690716946
Ni 9.005596870108715 2.2429031310753236 1.190778721096021 0.3948656526349135 0.7269441947402772 0.8975723707152219
Ni 6.881698092129839 1.0841233784760986 4.8142397149658045 0.11129020033625994 -1.5775206563219348 1.0665797232572922
Ni 0.7552404406052815 7.573677605650605 2.234296493137107 0.01624782931743008 -0.5532792888215374 1.275637406853029
Ni 7.712171776342636 4.122196509230674 3.9174769938198426 -0.3816033883083686 -0.018467719786884322 0.032596702989098704
Ni 7.656013441048555 3.761916949233195 12.99970105714188 0.8632435155263649 -0.202549964384206 -0.8679494056424665
Ni 7.932182882533641 8.527477614648882 7.035059845432131 0.13632348915580392 -0.22552148557871485 -0.14130320175858246
Ni 7.154673824008928 0.8169245304398837 0.23582952257285214 -0.8905013228010534 -0.522770578709719 0.9984814849274739
Ni 2.0308717494554314 6.565702818891319 9.301637372586791 -1.2497191443253701 -0.8687341063272909 -1.1236618129822646
Ni 0.14750479924707363 4.806824121436207 1.4328309730122986 -0.6197775296540875 -0.2861054178093589 -0.27739991961556093
Ni 6.406645161847276 2.1219516159968688 7.115935309343576 0.285797656760953 -1.149615556733549 -0.04703576123256415
Ni 3.5950979409244326 4.237188252822151 0.22036960236900033 0.519781414174408 1.021651495286034 -0.060144787810696425
Ni 5.760050900505201 5.753909151262897 5.036915885383582 -0.2369929765534241 -0.8190038289816992 -0.4432766969484495
Ni 5.394266513409064 2.7257902037247375 9.470499081199105 -0.5950728278185559 0.06028028494729618 0.15239339813447303
P 0.08971139382137441 5.536755095830533 12.553416990199048 -0.2498965719889696 -1.7008451621149094 0.2473167270769354
P 4.11384373026114 6.33136096446827 12.781846387351505 -0.4348892442157026 -1.5479365149069146 -1.4389479661206381
P 2.6032372843994005 8.53139923527619 1.4360537990591495 -0.21949867642340265 0.5741340207833596 -0.2654861988971105
P 6.41376959096835 7.797437453601359 5.769518293226117 -1.053554771752534 0.17586808421764552 0.6484347883794639
P 4.786815667237944 1.3513395143990696 12.596378298676777 0.5076195820008935 -1.0853860573305179 -0.3099135759725501
P 4.11738319760226 5.976631726008282 8.148013049795995 -1.2950155542693245 0.8983606709444723 -0.13175386750725052
P 4.69120455458885 1.166067961700093 3.8358299442258086 1.346370768812849 -0.44775067355940307 0.07899225953450267
P 0.11007197497619708 5.847791475236377 3.387108285250365 -0.07003967832690518 -0.8049558355290652 0.6540883871208154
Ni 1.509177920482418 1.128862609623376 2.692765790576671 0.4834165023921288 -0.2888336153737993 -0.04422811658043996
Ni 1.7443295759166748 6.492647849015076 4.755831224727098 0.42439785776607547 0.9500164474475509 -0.18853410972108822
Ni 5.622630398569603 5.655586570059422 9.687235497682991 1.397799002686154 -1.1488028310242666 -1.4648991387687609
Ni 8.511345286639093 2.3394878247154196 9.777006034274846 1.0374714930374263 -0.39006977390816694 1.0574335379816497
Ni 2.3816975650636443 5.139270183756338 6.937431509365231 -0.27232250509265354 0.14284097855934755 0.9560479983536114
Ni 0.6139547311465269 8.949074579303977 9.13169744577416 0.10372832882860199 0.6240229351940026 0.3486382462362576
Ni 1.8545262056552714 1.063086749960234 11.654629766525069 -1.4787800105159112 0.3223528301771674 -0.6230770263409656
Ni 4.4375366625500146 6.941132027019816 1.5277824162983296 -0.36519023705766784 1.155472015514326 0.4873598033105929
Ni 5.174582967177648 7.953474279906964 8.147134097237764 0.5571775954346792 0.04197428754925674 -0.08826828551978992
Ni 5.3365431694191665 3.1168876965869363 4.856494949752862 -0.2084632445448474 -0.07085137559492315 0.11938223331577504
Ni 1.071648803348395 7.280547837368992 7.094854096277657 -1.0628097146918987 -0.48352551716616726 -0.7465815093552304
Ni 5.324004902077097 4.341461506624836 7.514556672499792 -1.571466736818371 0.034455610574708403 -0.3006799731894241
Ni 8.431702722019994 7.049417890327474 9.066843303441752 -1.0222011971419172 0.17164350461333666 0.7235261701976636
Ni 4.579206345072511 0.1335780416318564 10.653194350403476 0.10613873804230751 1.0251795630439506 -0.41310403001981105
Ni 8.399965801490868 7.131753725725423 4.912907144015624 -1.2577260737902467 -0.8007520818603628 -0.05040724880795834
Ni 7.005024416915319 6.138573730474266 7.227612328121762 0.3983034746718689 0.11193477589879433 -0.3817687102416393
Ni 2.2052883290491194 5.515945939508828 2.465882294455721 1.152896541477666 -0.33265138388969806 0.13899460823006385
Ni 2.456918070228286 5.22599168305768 11.48117402947951 -0.3692376676541641 0.6066646464212132 0.9205647178453372
Ni 1.031622796064101 3.6368891324354036 3.738348100251948 0.5639126001656675 0.037583357570412694 -0.790097173249678
Ni 3.7227280396234077 2.6092152536619104 2.593859970667372 0.8524371689394803 -0.022651933071560992 0.6876536246707705
Ni 1.0911204231684426 3.379272323105961 8.240594232818886 -0.2809624401558387 0.24966800091793132 -0.16743280896609875
Ni 3.5339807117976756 2.8154324459990874 7.088861568794719 0.5195011639298279 -0.20484878772071172 0.0964968440771693
Ni 3.7930988376085706 6.953351833290062 6.138230702405473 0.42575308624238933 0.7020034656345394 -0.32677307073205014
Ni 0.5313932433319718 7.228602287110744 11.370082979073478 0.5841968043360003 -0.10610737058373984 -0.32886954824976267
P 0.16755146877395627 5.357661687924927 8.088539079799846 0.4716652753934716 1.0244321433549648 -1.1392475832356637
P 8.453494558220466 1.199597363119194 7.970762166663081 0.05791538425954541 1.999848518932859 -0.9001609573780045
P 1.5733796725619766 3.1119288027542606 10.466674430302954 -0.100863091465665 0.8348122567688656 -0.027862016517590724
P 3.8720589856451935 6.43609826154704 3.7161486338795404 0.7613676665254695 -1.759066764760964 0.706691358028512
P 7.042939482237813 3.9329760392410904 10.46643421966592 -0.3032680456315745 -0.11420300310768074 1.0149308887327488
P 6.461675235058327 7.6891697880692345 10.104088302256697 -0.49235082876728115 -0.15602302446726035 0.4960231354125457
P 2.2841392904325457 8.754203700011473 5.744695617510662 -0.1981693188180071 -0.5236586377416271 -0.4349609779939026
P 6.898885891120527 3.962028787879133 1.802075667125989 0.9766371353588729 0.7247937240561776 0.21250244761122755
Ni 5.5166829494179055 2.808053248020555 0.7178867766579725 -0.9041392252994623 -0.5250200368655281 -0.7550802908548608
Ni 1.4945651067296157 1.2115260049809145 7.097597410939219 -1.4524138618175566 0.8477073675639788 -1.1748059399562478
Ni 6.662751555807501 0.5873359349859899 9.24546538896106 0.48105931501386184 -0.09891265260751353 -0.34031738507538806
Ni 2.660241816255755 1.7257132515466667 9.159570068668904 -0.8264001214457702 -0.3628729017784008 1.1990771537987865
Ni 6.557704896544674 2.0482506250892123 2.7977587664016763 -0.06834069335792746 0.4995236923666364 -1.1434374529472953
Ni 3.9485260384338288 6.91585531680482 10.410929184513467 0.2150380695488877 1.0686723441202628 1.70137378092487
Ni 8.120175002674765 7.181451850705376 0.20157584968754785 -0.8473625826300503 0.02009625652924281 0.4827534148868331
Ni 7.446020210288331 3.959881450366268 8.370889395744634 1.3894280050136394 0.37868158667588325 -0.15930298077011273
Ni 3.2925144282535523 8.408618843756694 12.678464824549927 0.1882929402445596 -0.08652893423118001 -0.26326039489038533
Ni 0.23183784050974238 5.00607156574434 10.224795057254237 -0.21009846615542524 -1.5509966418894772 0.754862775527416
Ni 8.860014665846675 2.3924069559646703 5.639130321645152 -0.4179978677770027 0.3739556419551237 0.6339499644997276
Ni 3.540704789857028 2.645874672472645 11.297571212796887 0.7255956511321826 0.16213530801258527 0.7070718812963822
Ni 1.3906740062131189 3.500405815939743 12.74395861869231 -1.3644546228977534 -0.5165248549103233 -0.10646372548189408
Ni 2.7430780904808545 8.604053854090713 7.957192085448305 1.6348079200791779 -0.4848480926323327 0.669109543119996
Ni 5.875861543995652 7.759777157136322 3.697797087143534 -0.8330960454087071 1.3237697435838816 -0.4563147610793303
Ni 3.2212883348183503 8.472866090275083 3.4809678620044306 -0.0441916069155497 0.751151645224416 1.327967840825629
Ni 3.4362404594112497 4.372770779428941 9.593961889301081 0.1508309387433596 -0.35566507117605195 -1.5552441043119214
Ni 7.132272362328106 5.954175671000862 11.433285673276288 1.3838373982997394 0.22408089647744633 0.8482884368784295
Ni 0.7471578986024086 8.777678830448727 0.2736244825768305 0.03219355401340907 1.599267303970407 -1.0312157419357013
Ni 4.874337868662728 0.46891755026169474 1.611174632565955 -0.4581009064454755 -0.23941624128293604 -0.02501066311172467
Ni 6.073089035219648 5.38292020036439 0.36036690932003596 -0.967745746406514 1.057857770003262 -0.9080033362405587
Ni 7.931436773736799 8.742074882618892 11.403855320795941 -0.2513299620013865 0.23821373633440268 -0.09001586433851594
Ni 9.165036680438945 4.938548719630053 5.864563455056141 -0.48984657428818856 -0.22914802658770858 0.3648289970635072
Ni 8.181610692873344 9.16085119206641 2.393623477259035 -0.2390436884348657 -0.004035860632270469 0.5476624568553923
P 8.732975994852515 1.956360957536567 3.40037264383619 -1.1688016427436967 -0.9111832766304373 1.6603549153103467
P 2.1714313676704293 3.4499251866118814 1.5587850565847072 -2.541572755926945 0.1259781413657379 0.08674207868325062
P 4.4128331822643 1.0274828021303992 8.3315503544867 2.237400967534179 -0.2590144751298378 -0.9997582947573685
P 8.980574928751176 1.455030439384706 12.564736916469199 -0.8820351943115714 0.24513360338268747 -1.4285046593001267
P 6.485077574393449 8.093770030376737 1.560622122024739 0.4224592459824659 -0.4918384079072368 -0.9075094273232759
P 1.7504986218222787 3.349336982354579 5.852324541121587 -0.5459133353747695 0.1165794737596573 1.0602419539647223
P 6.9268103776755385 4.024310674639986 6.137151574316381 0.705473940681643 0.4531353349100841 -1.338204430951973
P 2.1477196661512497 8.383997253460876 10.533007141897398 1.6995416128121374 -0.3327254316607431 -0.24494359885906847
