# total energy = -340855.4847345891 ev
CRYSTAL
PRIMVEC
9.39520703237670 0.00000000000000 0.00000000000000
0.00000000000000 9.39520703237670 0.00000000000000
0.00000000000000 0.00000000000000 13.75083517395972
PRIMCOORD
 96 1
Ni 7.252141411312936 0.3334039489760275 5.324241198515418 -0.6645777166879134 -2.099933594581919 -1.1242002019842383
Ni 7.144669639648793 5.56905586264351 9.720465198920099 -0.006929637240297742 -1.5090421518345623 0.7397428891668422
Ni 7.336256698637796 2.3570601104404707 9.053384839968107 -0.8627614336836239 -0.6894755083708577 -0.31694708578056385
Ni 1.4301665790742937 5.753042199255007 0.6465687432603077 -1.1485272087653768 -0.7363636882819641 -0.6597918652634959
Ni 8.742935260476287 5.844730023336689 12.114664562213822 1.1880003271593347 0.147082784554837 -0.15908289433950668
Ni 5.699104316474707 1.925876485232482 3.5604620968720426 0.43685793790629923 0.38592952648754825 -0.7658668399474036
Ni 2.1895623619285076 3.5770089352543213 9.36565239199398 0.08345055241617241 0.5974310436380872 -0.8954956906918512
Ni 3.116493474122261 0.1574674256315852 9.813407283122173 -1.028609928881738 -0.7157676092981674 -0.025608701707039765
Ni 3.091737103955724 5.364879226416115 3.0522039523857987 1.303133812501085 -0.7033903186797371 1.033895859871026
Ni 8.538937133179886 1.9989993804909858 13.081568521660156 -0.02007414504205575 -2.388288470547087 0.29177110073556844
Ni 8.935490025775405 4.659101889307794 6.454091868254105 -1.1712621884690475 -0.22049497889840086 0.5849036005950379
Ni 9.10101478083956 3.126039004326892 10.210531404296866 0.5644743862064086 0.135649860127547 0.8262376277259771
Ni 2.5216265544014047 7.873324305544787 13.495839834937675 -2.0088437804529335 -1.1742341266131777 3.392395272081138
Ni 0.41011957135091986 3.787226689514764 12.368710956636273 2.369432257072532 0.28888426610607665 -0.5894832495459202
Ni 4.212350406275915 3.4125176529485417 7.571113382978596 2.7541083707689538 0.7133389452520167 1.839739754431999
Ni 4.577870930499492 3.538939556918531 1.8585354002967434 0.22462777011985186 -0.32990750259597373 -0.045160398586722224
Ni 3.984356920571417 5.849033028094288 0.9153242735965093 0.07758638032591153 0.23983455976727727 0.479720027377148
Ni 2.449959916211521 3.553962492742551 6.504158925793944 -3.87959309589257 -3.1264974395679057 -3.599421527069143
Ni 6.746331657743352 7.1841670894325205 8.146228759245522 1.2107934137944503 1.1831995633365817 -0.4630631355467574
Ni 8.519536030943112 3.701683330741967 3.056893100146755 -1.7271331492771609 0.008157596110127887 -0.5624563273351152
Ni 1.8987807085492587 7.22966807642172 8.516469435412803 0.20964929443314861 1.5850547599154508 0.9271670536532032
Ni 8.415578066657444 0.47733382099358485 11.234624927629625 1.5616489793970008 1.5252838105044055 -0.25760242527365956
Ni 0.9131925011521876 5.757523712943597 2.9626178360863755 -1.5342353632707384 0.5139133854294052 1.2790916839502164
Ni 3.528050512128013 4.913148283730246 11.384701143997448 0.7407746728654662 -1.4126437810084704 -0.5446306120076039
P 8.329696480436452 7.877458196578289 12.01736310201278 1.0975540601516194 1.0746249621592718 1.3078664420900639
P 5.928976843558069 6.828333023516991 0.43973796108526814 -0.40469729401335464 -0.3552380109409624 0.47300276325797247
P 9.155253310240477 7.430189977167222 7.361357872897355 -1.4778101904034742 -0.15219850851484756 2.3676990764315096
P 7.312561986850318 4.2864973790859 11.620514260400089 -0.2965883196185537 -0.22344172023155068 0.16468095725257445
P 4.775856125383527 8.718968087688873 10.996528775951663 0.6324350705170979 -0.04005444481872456 0.43275805680531276
P 1.0971064946705984 1.2707487084914473 9.75045563884746 -1.3234612112045272 -0.8534771801682205 -0.2510209154013999
P 1.9797016255300495 5.934360297108516 12.34725982025516 -0.8342620406923503 0.5895076750259525 -0.4886846927696035
P 8.75557181374915 5.321727041150497 1.6431014271685738 -0.4067521196598543 0.595915121214193 -0.8561575552138609
Ni 7.961498322247994 4.037486815558804 13.746338599236832 -1.5072174399209979 1.279542655444706 1.3737561028043375
Ni 4.216897686412767 6.9182639439094356 12.543731447308518 0.3107687248839939 0.5182114985841269 -1.272218610979467
Ni 6.290880213127331 5.070433442348082 7.045845216410183 -0.007124526859923214 -0.9615100499094472 -0.1361432548241978
Ni 4.829812798577614 6.629079475702221 10.102408544794947 1.0081794289415282 0.8425829018532199 -0.6122146297051649
Ni 2.6254999618250228 2.1342527789416375 11.053100135224442 -2.106973789258152 0.06943983995937718 1.6328880773486458
Ni 0.03151528200631186 2.566169230287383 7.740138792131576 3.242398913423932 0.3515955290923687 1.7133543503255138
Ni 0.6914787717358536 3.146022609391114 1.0669516386225841 0.3265041333413797 0.24674748483702666 1.1737728707060429
Ni 6.499622919905366 0.7828527959072663 7.308169727627222 -7.108778338839706 0.1677876212023562 0.35736328481408136
Ni 6.436787776196144 8.958151264804508 12.775515898994877 -0.1890251904248938 0.38623368799152835 -0.17481624591436343
Ni 4.642284468966959 9.204540565608088 5.242849581669222 -0.832799597214211 1.1967369357013842 -1.7611645278302572
Ni 4.497316426587579 2.11614821525628 9.740349214791241 1.1863255105600732 0.24723033801071612 -1.4120668254590778
Ni 0.8014421522683707 0.07814369382282921 13.645022567129848 -1.532364885720903 0.034517831271211524 -1.8043456912034215
Ni 6.133914491543904 2.003800331213984 0.0936871241087946 -0.6024475230160722 -0.7210129168575066 -0.8660969258147599
Ni 6.955562915279891 7.563404615721805 2.447070890091517 -1.0880924005180874 -0.8574510772143038 -1.3609085574177078
Ni 6.388411855897283 5.319115173633876 2.320880108211128 0.9294615061143348 -0.9937413991393272 -2.1188108911023957
Ni 2.8168803262623507 3.896154718247527 13.418876179100772 -0.250273238602098 0.3863576151639023 0.29472169872346016
Ni 8.136822278102926 7.224106113940281 0.44271624167076806 0.5435708032845219 0.13756121821764694 -0.413689727319952
Ni 4.642528744346212 8.584654209927653 0.7185087819708165 0.22743644321324058 -0.18172300033652575 0.8788701663200285
Ni 8.10273646749033 0.166587352963903 8.426566700641043 -0.10876332014934817 -0.7255061767421699 2.413363925458476
Ni 1.1376468124195953 7.615463457123241 5.898998617399669 -0.4682948162593419 0.7266536600830518 -1.8250083617590958
Ni 5.182086081080198 9.067633610744036 8.73399384207496 -0.6472819057219433 -1.0839817207838236 0.7931400738410599
Ni 6.353424105422829 6.582911429023525 12.07346657998222 1.936420946605833 -1.6077946247151276 -0.5497525066152016
Ni 4.562256096641129 2.3478903885116122 12.082639120473146 1.7102985942183253 1.0698018297390157 -0.24094450500200437
Ni 8.89658447402602 1.6154212686165241 4.395578549691041 0.8547974416415407 -0.4616605987722759 -0.035075246436578306
P 6.953871778038914 2.776302427685776 1.7558993416211077 -0.22013296757329184 1.1140530862479072 2.0104800305047763
P 5.294875539846526 9.287481452071157 2.667799062304637 -3.522558655172817 -0.6923821404946914 0.17965017696789706
P 3.7883729047558714 2.1097312889474584 0.26651853157466365 1.827782324959807 -0.3381854263340498 1.6264837164841988
P 5.8130869665166145 3.7598960326591833 9.018595328359124 0.16422021556607203 1.1895530163584354 -0.11852759862496359
P 2.064314858820308 2.2089164881308094 3.129373363253687 0.29635486345150897 0.09891110994561675 0.5545041623675742
P 2.304738203245994 7.224707407181518 1.9315389764276896 2.9377129043989085 -0.6054677978996347 1.0007026609485088
P 0.22649682924623316 4.504813801689248 8.541537726448233 -0.4573313752693027 1.1148519280001186 -0.1751270922865629
P 3.801047038856311 4.987173118850604 5.742609761519551 0.4446221552327504 0.6621678216948402 -0.2383060389378928
Ni 0.19709171070838588 8.400094765695602 9.518204245378456 0.7512439478279062 -0.6777386795499037 1.621294973194408
Ni 1.9680891498086681 1.2235002130199049 5.190954216867748 0.13921495177098606 0.5032561628258752 0.5829747590034412
Ni 8.250570047972476 7.177919276847796 4.219416541381134 1.0354166673909266 -0.28498235994850923 0.8731530613305929
Ni 2.3519209322692767 1.7506089006189152 7.941326813045887 0.34222617206232675 -1.6066039468411364 0.3214863684118141
Ni 2.5127574790931653 9.093132202255225 3.413438383224185 0.42020001763464404 -1.3182588410679814 0.5542817619441227
Ni 4.023657071010363 3.00678564321727 4.6059522643859285 -2.1276385166963547 0.3898183200189932 -0.43899966683965036
Ni 0.6039107458773306 0.07324503294813 7.320256661296766 1.3492048958275344 0.9455375857405909 -0.7890011119720218
Ni 4.525436280822283 6.775982930701831 7.143503694473209 -1.041771920184993 -1.4296295169331896 1.785695680202402
Ni 1.0421915103732895 5.60462611594541 10.151485347528125 0.11713174671870151 0.8089937530438648 1.4283475648969723
Ni 0.7795964171976945 3.58409292125264 4.477464354419878 1.5070685730479594 -1.7703906744142155 -0.569446128389387
Ni 2.9343955740965235 8.66410947463293 7.04679413230651 1.0490381148291028 1.8329957508399466 0.16005939932016308
Ni 3.238678139782912 7.097383563349674 5.256847500421071 0.06934805157651927 -0.660466008512385 -1.0760881769683597
Ni 1.849427686733388 7.967342140936263 11.369149258025278 -0.4948638249971219 -0.4986479746299025 -1.3467399792268095
Ni 7.145346094545184 0.2386946263571307 3.11303791702653 4.904879102607398 1.4673306310283891 -0.17201142947571668
Ni 5.469062675667246 4.363030734447042 13.318261029428106 0.34378374635743375 0.4432607561088495 -0.4842875921431724
Ni 7.197414331153514 8.21120413108527 10.38529070821745 -2.681409143332014 -0.7116744130654001 -2.461554883341406
Ni 2.17928400558612 5.390753626203077 7.4341547544766255 0.3670005507935292 1.0672484671895426 1.7787845549048653
Ni 1.347488758404265 5.39354400265069 5.411586557970545 1.2581541624666008 1.927840146915357 -1.7041749978190908
Ni 5.385295010997477 5.44935153160296 4.293162338856732 0.626742648118011 -3.3237740713683146 3.2371268663917148
Ni 2.5955574374528205 0.5763264184356027 1.2937509935308145 0.21380651113463178 1.1167074931516188 -0.11252561540525781
Ni 5.958534164447605 2.7991045948182944 5.896866844955347 1.195680983633044 -0.046827758986816126 0.13837960035388425
Ni 4.706472522468962 7.1529937929571625 3.3879999210371206 -1.0706392380386465 3.9112739719356187 -2.233836390111372
Ni 3.492057474515867 0.3113862816191852 12.671077839636908 0.16858980538867738 0.24825517973080471 -1.4408343845100733
Ni 0.5760642921632513 8.362870955980302 1.9441069446902233 -0.43006611179544646 -1.095061632747069 1.047840494976576
P 3.2910094421842824 5.443009766949293 9.322048297276744 -0.8337449918466158 0.8318089511661675 -0.7750827021187168
P 8.543963568868346 0.32215037015800924 1.3391223266648717 -1.7009904294435219 0.7559027867561563 -1.3666657716164594
P 1.5832802658310503 1.9847092708047227 13.173602089355548 -0.8961423231369148 0.34737634880469853 -1.1106849411066224
P 5.901242192806033 8.038078653643607 6.358124527432059 2.162492905371379 0.6656884332535891 0.10873015291856758
P 0.39751026417805096 8.83766713159173 4.052934414734448 -0.6659044059191369 0.6956268726842342 1.613437939043834
P 7.4462463857496175 4.806879098548576 4.8606037101323745 -0.3400551325529369 -0.006237239158963451 -0.1322662883672948
P 4.089282591167199 1.3960807684616954 6.736437565362943 0.44355231920733934 -0.5184580673772942 -0.7938761806761361
P 8.094863284112888 1.674282239809448 6.719277219970464 0.8626467624826304 0.5263503256411775 -3.667349558369684
