# total energy = -381171.9393638525 ev
CRYSTAL
PRIMVEC
9.20773978401515 0.00000000000000 0.00000000000000

0.00000000000000 9.20773978401515 0.00000000000000

0.00000000000000 0.00000000000000 13.47645790650441

PRIMCOORD
 96 1
Ni 8.288733452309616 4.701020618723702 1.4950781602647791 -2.353693763291353 -0.8426245537244326 0.4001225301584786
Ni 7.77012593942966 5.695207877715369 8.738444975019075 1.6020381818473248 0.8419079872733822 1.2530222405566742
Ni 0.825553034360722 6.952285307689328 9.8693892644299 -2.246664395113976 -0.10042189016318835 -0.11011469197092003
Ni 5.7451322413827 2.85409539521797 4.845757076209278 0.5386813364027045 -0.3173821164354534 -1.3241731496698872
Ni 2.6817265114384696 4.9963496560283875 13.021303469718259 1.0047187240864375 0.8119656911879952 1.3191438147760959
Ni 8.165110341539128 3.5729896580964153 10.335136065510191 1.1388588324376774 1.479489120767794 -0.11614135778097417
Ni 2.633376671228739 4.445211199430856 6.704443345401525 -0.9349855212563575 0.6041364806827209 0.28028418314189146
Ni 7.846089790454278 2.325396199826136 12.405914327537129 0.9676251616682497 0.650612255646757 -0.46383703759830436
Ni 0.5084716332183935 3.7040157914394864 7.8463034100110995 -1.032728321925486 1.1199460546935744 -0.4758240347568514
Ni 2.4185509005311148 0.42859541367251813 4.983108926601307 1.1266088114257309 1.024179146803894 -0.7705071669328923
Ni 7.323200678698389 3.5141614103150465 8.007118422243243 -0.9414600732371077 1.7095902552973914 0.40166416361398566
Ni 4.9895635520035215 3.2849071117925033 8.983555000991847 1.1426329547681289 0.29168188345587187 0.4324808918845261
Ni 6.787208953608191 5.322533828458344 5.940988227125062 -0.7719737241760899 -0.6571567416334941 1.4953050047541279
Ni 6.050092574223355 5.60604933596126 1.280803933164291 -0.8353462748954645 0.163368409088738 -0.5479383362245982
Ni 6.838799918128306 0.8309699475192412 4.7860154206677095 0.16270609291439075 -0.44596324264167714 0.9598768851813985
Ni 3.306932024719884 2.6658247452906494 3.9645450980093293 1.355298667430098 -0.17689806814405662 0.4177728962503902
Ni 4.84643844893362 3.7995645044191804 6.553466802844508 -0.4160703117369866 0.6012481033913322 1.2884731251651165
Ni 3.2672098364386466 0.26156149416982555 12.908963522953291 -1.333598299638529 -0.6375415385057278 0.045906018503495134
Ni 3.8264695192911735 8.637062238280691 1.8156557401021434 -1.0776359810714538 0.9332901358318055 0.36655343595378165
Ni 3.6496440895848954 2.8772620678456 12.933194610269219 0.6528282894614692 -1.1154736207445177 2.0936359344986655
Ni 6.151525032755138 1.7651512888451693 7.186253968845156 -0.9941041817953847 -1.956011467143251 -0.36007399887702507
Ni 1.6759282929144341 3.10608360261079 11.559538911030096 -0.6453191255686177 -0.36954979957794415 -0.3856546755596068
Ni 8.152366830046027 7.072897487637388 5.60890189366398 -0.20496371603202118 0.6014422216800093 0.3685537542132621
Ni 0.35278072802809235 5.820690951868523 3.1957936879620346 0.26043449540581604 -0.06079039181449531 1.2748745605450755
P 0.10413400930640394 1.6025794399129651 10.737057578572623 0.44509960908980123 0.7496820026574251 0.6513064535003041
Ni 3.613595789371394 6.363146510100451 2.289785267239746 0.007937509679521814 -0.846658100363858 -0.9797959927028288
P 7.716361948383265 9.086657743472221 6.532443691976701 0.05275569443547688 0.2869698226921832 0.24882673596355856
Ni 1.654879400375976 0.2860292203913676 7.1874399256950925 -0.4427915297819149 -2.58806524306153 0.2927213804639798
P 2.2114412155496885 5.141942433289149 4.701949679641083 -0.8113321713690544 -0.19085273055193583 -0.6882915153650856
P 4.4976400682471205 1.8801927863847565 1.7788118911942754 -0.11945576686618782 0.07985306487290118 1.4883038908459465
P 1.2759072572885466 4.78948858001395 9.369804020620458 -0.2629708886744245 2.6808614983586603 1.7349037943615153
Ni 1.7135511165855364 2.37165588316525 6.546728579065138 0.491062963193793 -0.33511295805631314 -0.8420967062454207
Ni 5.245419009993959 0.6256833949624055 0.3553119356216279 1.7003031735685106 -0.8416434207580861 -0.04506912442449657
Ni 7.5016742937784135 5.11334319434582 12.384365454742836 -0.27325607265051655 0.033798436606683725 0.10888519043919312
Ni 1.1537297616224038 3.002146638930074 4.400898952999828 0.12700092620329742 0.24613556228464062 -0.2847543030981031
Ni 1.1729831449548256 7.739639113885112 5.2550770079745295 -0.6462125839171645 -1.219347216901732 0.21402376935176043
Ni 0.4379283784481005 8.75599860963645 1.6146277670724456 0.3499119707423587 1.4162111866447544 -1.8367549607720626
Ni 4.491866815569249 0.43817882896299376 3.813689176840001 1.0027669996767052 0.5380750702772733 -0.007799698550076891
Ni 4.228479426652978 7.136541383186742 0.12902621231973202 -0.2582863387145616 -0.8166235016749808 -0.8332150874850746
Ni 6.17339341411071 8.18558835422746 1.9952968965530673 -2.2523701872495017 0.08407147382962295 0.924573324784098
Ni 8.362422991673256 2.9665126869948892 3.4430058408667974 -1.3715729791100895 0.7658208172008166 -0.6141815236235487
Ni 0.8752297098350159 1.1098088441208964 12.92215729290883 -0.8072196918625776 0.4948656247693349 0.5483430278621846
Ni 3.6075186812894238 1.4725385346983346 8.066347206693651 0.06724360363900678 0.7018959935223976 0.040486904370452846
Ni 3.5895175505314687 1.693229635469011 11.049590356392994 0.684319418091215 -1.144820706448067 -2.2931774510738507
Ni 4.332361143896585 8.097194054853357 10.90152438029766 0.796577381657383 0.5983851800212404 0.8773670994119406
Ni 2.7053351555629694 3.3074752813514543 9.305076374129822 -0.301499640877242 0.13985361379624947 -0.904414590448036
Ni 4.618979659617113 8.647503814894256 7.837288112248893 -0.8194635422269371 -1.2171628076559038 1.064540067119444
Ni 6.725332944046319 7.665756211991591 7.736847327263213 -0.029770546394213247 -1.6673022931624577 -0.7979940594992515
Ni 0.8074635093033925 5.847448642908224 0.8690411881048768 1.6501715470194418 2.7085998448141932 -0.9904586146229976
Ni 7.332141393770498 1.5702694819438268 9.702860849826754 -1.250088097629015 -0.6302989980107015 -0.7466972089974881
Ni 5.657520599867639 6.044706046605246 10.093273609265466 -0.20966060728705826 -0.6870890104165521 0.01912797907870254
Ni -0.03856753774566321 7.569940474565871 12.747461613353096 0.2856055953548049 -0.13144944889295426 -0.12302265828183974
Ni 1.5284018903548637 8.996292987841237 11.203706738125693 -0.40865242200636076 -0.33119999615515217 0.2808169157169099
Ni 7.989353009616952 7.303035729153671 1.4626135122717359 1.2413453184393783 -2.9737420301083235 -0.636184253146885
Ni 1.8291634939752486 7.786230275846878 2.908839089749094 0.5172110823440704 -0.4255846789853251 0.7646900460304831
Ni 6.397270392754662 7.3796533296840785 12.822755140940794 0.8318847987094254 0.6481897622481934 -0.4896869087818728
P 6.0052785059885885 6.794860585147762 3.79439067558394 -1.8685168265646919 2.8177436882314115 0.04860259149905178
Ni 4.396723243128354 5.126860155958443 4.0737709872692625 1.2628402550883606 -1.9900230482020047 0.282182685716185
P 2.5435275490107707 7.544959877253169 6.973257775989786 0.9975471460386626 -0.38618046615608975 0.4696461880809138
Ni 2.655291091281902 8.468919706940016 9.398562553457454 0.1414052745540855 -0.0045277126670244605 -2.445552080155246
P 0.35604395091331964 3.821994557885359 13.22579539435468 -0.5616867961589423 -0.2510512544187031 0.1903480230013754
P 4.077960508750014 1.8322020480162333 5.9087390402367435 -0.508640052845608 -0.9985871572674028 -0.3814529787734333
P 2.0736934323583784 7.61365882179798 -0.04971350643236649 0.06511241622861691 -0.12819186118760503 0.050198218120945805
Ni 6.865861464572107 1.1929731474486984 2.598058544759026 -0.29490296149633083 0.11628945332306423 -1.6350100087876553
Ni 7.0189677572796665 5.114227137339561 3.7880161575155347 2.419452554854717 -1.3365668953485497 -1.2835607754651637
Ni 0.7042677686538866 6.390373795855578 7.545926689902573 0.23767868976653908 -0.4565435892606847 -0.5494789412388408
Ni 5.862540127978448 3.1839534557156637 11.327676980676017 0.4695777967368235 0.37909399162295354 -0.15359770285521934
Ni 6.189368842174676 2.990425186523487 0.42545189140102657 -0.6493619281794236 0.40786026512236856 -0.1507373505882888
Ni 6.033463396653602 0.895355986873757 11.71840004093649 -1.7064077438043517 -0.3960828128714662 -0.28055826273888457
Ni 3.4467055106051845 3.7030397710505643 1.8789009405303623 2.588969242933038 1.1498860367861163 -0.3846871694400149
Ni 7.73638878183521 0.22116898245166783 0.35235256814049903 -0.943966127488413 0.2765748526111043 0.3181668171202779
Ni 5.922639043813321 3.5192717057476117 2.685399478732254 -0.6204154203484025 -0.7965886945112925 -0.935184524641041
Ni 5.422281270658309 8.346143708205192 5.806749513464113 0.5443735016914754 -0.46790015192408446 -2.1998541196286565
Ni 3.355235826232024 7.08839411324641 4.518454163427866 0.32862580767007277 1.535162245960382 1.0579554719233908
Ni 8.563584476925968 1.739498526547643 7.63818639832639 0.8026971214018757 -2.898433132962679 -0.8755429017190083
Ni 9.063178007700975 4.728321566394975 5.428141996861601 1.8530143600537183 2.035137938262772 -0.04415329747844653
Ni 7.972797493963344 2.927913842934864 5.769271251303445 -0.7974944941550136 -0.9089047650089055 0.016576930522074675
Ni 6.578911470228925 8.255217280463603 9.938079001235193 -0.2567267075369256 0.5924158498116828 -0.39681711993432944
Ni 1.2437814541097711 1.5247832487242365 9.007717951035339 0.5989886179331942 -0.14241288988299344 0.9397310063611429
Ni 2.6338646814232005 6.463391170234394 11.0060073629318 2.002448161339235 0.6218115293649807 0.6894274287417416
Ni 0.8077867009604791 5.3586097518904 11.823813005261965 -2.078047593142105 0.2076248078039521 -1.2829727641721775
Ni 4.296450959775855 6.144398242368101 6.627559641199043 1.2723957599872797 1.285740813835618 -1.505422552804104
Ni 8.10720286770957 0.11358022927805937 11.546049572636026 0.9724328674695382 -1.8554936748321464 -0.5224353068574874
Ni 1.3818791314027703 3.795770915737709 1.694584093952129 -2.0217854282152667 -0.3541236948308611 0.6985772135618098
Ni 8.41120559564034 8.282536643613911 3.647322818452373 -0.2822485059571139 0.07751953164371811 -0.8322799772653151
Ni 0.047399601491458984 0.7324158283608275 5.1440583718304165 0.2125063042659695 0.8964359431179335 1.4920093647219916
Ni 3.3179905198811652 5.988271811098593 8.612076116324278 -1.1794282692196074 -0.07819058956881372 1.8931467092982301
Ni 2.098241265913728 1.404990557593291 1.4424522458228262 0.5550438369211279 0.2623736214100578 0.9977880584048752
P 5.153369238031155 0.6217434032225954 9.63270247856832 -1.1730321358852767 1.4991608881651084 0.054397343803957936
Ni 3.880546573481184 4.374725953419527 10.988838611826285 -0.8197090825788398 0.571227645769842 -1.469330177956921
P 0.3107575256412728 1.1681030430102137 3.0991805602940437 0.2725341068828274 -0.03207811148146734 -1.3444820364305685
Ni 8.623204590305896 2.3625033900842225 1.134991090929046 0.2685152155314214 -0.9155688072926427 0.6124982223838548
P 5.9023083549572775 5.255869794347042 7.87297362752538 -1.3443827918485427 0.19008937002335005 1.702876076502009
P 7.806036123550388 7.021242068940646 10.99638527513535 1.29183535676913 -1.9979798411552365 0.7210985345927775
P 4.961130052371518 4.651722381343604 12.710334166068069 1.5515972515879537 1.0717874927104767 2.0136160050305967
Ni 8.82697186584224 8.635377221948872 8.465951131719367 0.24668012193420097 0.12213382791898321 0.4355410188670886
