# total energy = -340863.4725692467 ev
CRYSTAL
PRIMVEC
9.32418144085904 0.00000000000000 0.00000000000000

0.00000000000000 9.32418144085904 0.00000000000000

0.00000000000000 0.00000000000000 13.64688204140145

PRIMCOORD
 96 1
Ni 5.056969705598154 6.427652323155166 3.4779485144172555 0.8420028609800337 -1.5117418101539124 -1.1531130283638464
Ni 6.47734088508221 8.134089383652869 11.43776522067451 0.5392690905853744 0.8014071989458585 0.9338575782995012
Ni 0.34817145512276015 8.108541127004322 8.36119846656843 0.5575740595421494 -1.504426507439422 0.255095856801722
Ni 3.8274551922962465 4.302251826165083 3.4642335762039904 -0.7191689216702324 -1.1165059186637738 -1.6061023246143695
Ni 5.396621656304937 6.8848169302640025 13.300578125060085 -0.2864005804522745 -1.9335755067372378 -2.7175876501351004
Ni 8.109883809105561 1.5482989463519585 11.5198926092002 0.3841919749711512 0.6365190107784844 -0.28897296916514104
Ni 8.066778119147083 7.325766786164144 9.812721735637446 -0.05174550800340765 0.8602664351759121 0.27022422780272815
Ni 9.132308256654108 8.014478786467633 2.096898339718814 -0.5290486984089469 -0.23996800002134802 0.4976642705603946
Ni 3.2453652046847754 0.5337524995487972 0.0904259098458392 -0.1330221926967128 -0.15929603879157725 1.433635552768789
Ni 1.756144270787265 7.06481092527989 0.8844778479182861 0.3760626609957975 0.5252167262573664 -0.11233741065385168
Ni 7.607468950348769 0.9342922862923215 1.8752588215295445 -0.42503909089450026 0.03960450176549954 -0.9491049913768751
Ni 2.247146331683537 8.762958788638704 2.5029337988961533 -0.2392164665673041 1.4901975083242336 0.11179439366618811
Ni 4.157456615400386 4.8061026088356975 12.614658717043545 0.2823210110662622 -0.849923401378691 1.0560513129221425
Ni 5.054694605371057 2.184236080731807 13.251176747915805 -0.5057488473407419 -1.0730380772881263 -0.7825864666949296
Ni 2.8955405722248666 4.4977239620702365 10.818702057118339 -0.5071498414533265 0.541411590849674 -0.40567379899401096
Ni 1.8656381313069277 8.537089821830536 12.364388367881638 0.8757095092038596 -1.29137178686915 -0.17943009053729098
Ni 5.542694279902062 9.001527290321075 0.1398086386276018 0.8511526458001019 2.131519854028632 1.0163696780618046
Ni -0.006073771671847769 1.7042085811768992 9.561196351678134 0.30988657938935665 0.7397421178358937 -1.1257490345285968
Ni 1.7461580726593111 0.9667963821597784 10.711232476349915 1.8026333364980052 -0.06417653467790882 0.73278034180608
Ni 1.3007139613925267 5.136122680302353 13.530842510913551 1.4084150876391035 -0.9031966588805348 -0.45790036039889526
Ni 7.096074905039954 5.697615551513592 11.090315457181164 -1.242898521859111 -1.933285743410961 -0.928144587075124
Ni 6.03472200073678 7.479336051493179 5.191642585188522 1.70665225571499 0.6791144768515078 0.8742594070208942
Ni 1.5622199489710384 9.202584610800127 5.1408892017617465 0.8401444676150562 2.3111720878790583 0.327346683847333
Ni 2.1744270420477667 3.444296611836866 5.363415449588708 0.6433758857993178 0.09795491667993453 0.7758856576359864
P 0.6054284133017309 0.8172439741169464 1.6403687093536876 0.8715368658834087 -0.36054142543174683 1.5459346539855376
P 7.805626450456398 6.68470135209207 12.712356555852962 -0.07694129054274491 -0.3656134406380155 1.9190246055062565
P 4.088280514642881 6.9203980059467955 5.497755455908146 -1.3418705669496505 -0.414873206105092 0.36968323983201495
P 3.470460264448479 6.69617009504014 12.014523641442318 -1.2687023702960925 0.510699763588114 -0.5154118243518027
P 7.628299171280467 2.15962024220912 8.029169966458673 0.43030291039660085 0.20184805322117497 -0.453472920755161
P 1.9625070504024549 8.920733259715362 7.327898293999859 0.71290571436934 0.48685098199497445 -0.1564914794632466
P 0.49093772404558783 8.526665387183428 10.5874688888321 0.1476312008591393 0.2100681271381221 -0.46639322836125485
P 0.7267872944729539 2.841963826712988 11.653222806689332 -0.1931572103153964 0.11420557421084203 -0.4841682929564888
Ni 8.858018816570064 5.694091010997844 1.4157818174685766 -0.7624981805854868 -0.41152125891372354 -0.4216768592904867
Ni 7.277905763763785 0.4778484383947743 9.400204105649133 -0.7128298668260821 -1.2008103344398091 0.005453309805087382
Ni 2.729616766728196 6.8749239739486345 7.356652204165109 0.6373466488861023 0.29703414890672075 0.014531617957271748
Ni 7.5726058366228886 2.6440674036806016 0.08370037790401577 0.019768440876178857 0.12828570645299198 -0.0460109195124756
Ni 0.8549808005067258 1.0592736118825081 13.323573420880027 0.022718267533122165 -0.041407873522825454 -2.8839071714323623
Ni 2.6278713008344243 2.9027854610627934 9.05242706339361 0.25501023906645115 -0.24530046797785496 -0.07982658251033994
Ni 6.475671856636922 2.841963826712988 3.5874106727206394 0.6501967653758931 -0.9068298847577478 0.5875598072709624
Ni 0.5208739403944279 3.0033281075742067 0.7692393593252039 0.2261868870768556 0.7213278769947642 0.7938360714668199
Ni 4.090947230482839 5.67343794951006 1.0691880138147705 -0.9016018035895891 -0.8010917245879687 1.9350243233686224
Ni 8.181726625703023 8.413712255416828 5.273482788931449 1.348144315773504 1.0759997310196114 -1.1924768748734496
Ni 6.785971284741653 4.392108960954149 7.4303309520523895 -0.22468459149971626 -0.9351714120149186 0.2059880435314775
Ni 6.2928153379746465 0.39614902978885275 5.8967353071271065 -0.3224613307305737 -0.5414226465932676 1.480578497177231
Ni 1.0432360201177273 2.242008707810052 7.402041386113817 2.27769272517469 0.3146690883796645 -0.7735716647908291
Ni 3.66872965473121 0.8389189658706726 6.890514937431129 -0.8373015988496225 0.9612822501693573 -1.8548177318110446
Ni 7.310409859631242 7.887763163163347 7.327201777659843 -0.002269769870783188 -0.22038930655847205 1.8553172971552823
Ni 4.501220530042208 4.6979607545985305 5.591387019270689 -0.03322945147709116 0.3593417486966908 1.1764627588333803
Ni 0.8996343045541297 6.544736067219324 11.501919317406136 -0.18409201478933457 -0.7177131630603123 -0.13861845583756774
Ni 2.8891441838814713 6.626052251975517 3.0758431976404137 -1.6151047852232958 -0.07450774140058782 0.17850243651669903
Ni 8.94415560303695 3.9843438661533397 7.419509307283666 0.6401990307332329 -0.7970756614500402 0.5575267512439818
Ni 9.012175505318389 3.8663743248696156 4.141091744873428 -0.20384734303939087 0.16167019545070868 0.3584369774942343
Ni 5.332834932314899 3.521920420814657 10.985562010413371 0.835311050782155 -0.1282815926879339 0.37304161478128656
Ni 7.656019962162265 3.3819644601231693 9.75806618235395 -1.1096796397705597 1.1494376363947882 0.6191926036848949
Ni 5.1948743464127505 2.3136836891448596 5.556232058671414 -0.5312529051491173 1.0600894875472582 0.8309831128307623
Ni 8.91816910986925 0.5969900292627037 7.308860180706064 -1.1833977953903168 -0.8959435768625473 -1.3465435469452876
P 6.623040541428992 4.0569978865203 5.317643976208399 0.6646011137266812 1.3847930773447894 -0.05928989600956885
P 8.407977883942792 5.824471037536756 8.379827248304974 -0.06708522368427156 -0.28532431666896024 -0.785040584662377
P 3.9855187129919227 1.8490877095729241 3.8878329956181426 1.730236470792833 -0.4284468310244686 -0.3358138407780797
P 3.1064349039317327 3.1749862845449117 1.4859956996001626 -0.09981305293459583 0.33434959752772736 -0.4801509442669795
P 1.8696568534293814 5.401181180940389 4.4908753509357995 -0.485782431521144 -1.551621677067986 -0.6241311786370928
P 4.213681428389704 7.800190452782638 1.5787535871787763 -0.31622023491686835 0.6118464477324689 -0.10852832132040666
P 3.6665291479541824 3.1240949032355085 7.0808345307727825 0.039663380027892985 0.05467630849695745 0.6507948039712083
P 2.1397970328533504 5.437797240742886 9.031833676665881 0.9924622753165876 0.6187172067103731 -1.1312080007606389
Ni 5.444967536130744 6.075897585174728 7.411252744779182 -0.6804709908794023 -0.25979866159403 0.6198616047274615
Ni 4.928706268204943 4.173345020265029 8.830610385760428 -1.2421940395929187 -0.25681489637535776 -0.8553175758110689
Ni 3.7905034619684406 0.37847970630381816 9.0329665646888 0.7003417616614003 0.11012240528040389 2.1348437761955426
Ni 8.747322136668043 4.526852704322082 12.255622725918272 -0.18961294460756375 -0.5234125831690921 0.4431800234695851
Ni 5.987243269768022 4.035673483981896 1.7974988795053786 -1.5267886771847061 1.5756080126802543 -2.058188649434649
Ni 5.842830350434926 8.651833196398787 2.8649721763866935 -0.2592006229987149 0.9343028933670361 0.5502862676314845
Ni 1.2846577212652288 5.242567533550456 6.64253740444071 -0.044944168810858075 0.5559936024289069 0.034412416041598795
Ni 2.54748753420409 7.85141750461735 9.636636437405162 -0.685101290562562 -0.9280085757178921 0.6290692393686586
Ni 1.2860190517289833 4.492474448021648 2.4704809860256187 1.3559486423092713 0.6373335362599798 0.18539479276115814
Ni 7.902942930252337 2.2714264996809144 5.722506453383407 -0.8787544666777705 0.06339980441288436 0.4716830160052844
Ni 0.5166957747724522 4.563617951024717 9.984304386739957 -1.09927078573241 -0.7158812520578961 -0.1612667893647029
Ni 5.509173848277419 1.9253595122682188 8.089994398062855 -0.26532627628047856 0.013604735267628183 -0.0018182841556613847
Ni 6.616112674753857 7.043999352710709 1.483456725043448 1.9031233608949674 -1.051123279492906 -0.023977336751203865
Ni 4.175498906135764 8.74488852535955 11.80980657981927 0.012769640960842524 0.8144095247427974 -1.4218295612727965
Ni 4.958329192063494 6.00965860151368 10.274614635062516 -0.8266389769294538 1.2819078132427728 0.06318126064417506
Ni 2.0285222537132963 2.0810640151054707 3.495607581302906 -1.9807606490634724 -0.7170194794273974 -2.3110805566065165
Ni 8.20514896902461 6.206352205163708 5.7172522772441905 -0.5974423564919968 -2.1110309900466615 0.18705726806524559
Ni 3.942254511952049 9.078759483686005 4.504822461262403 0.1877668925377605 -0.591794157067284 0.23755681947669408
Ni 4.911810851764371 8.143143163654964 7.227825586223879 -0.7949552726729276 2.5828201926125067 1.005376155164778
Ni 0.9381058764270863 7.1748176157687755 5.067305560523304 -0.3729403133167319 -1.0716152287986707 -0.02488647882903456
Ni 9.084214129722282 8.251322314617164 13.327435496757337 -0.08410746927388095 -0.7194489148044965 0.4743351089161508
Ni 2.731416333711105 2.5096966275630113 12.515309565733233 0.15155084762851964 0.9429667396896211 -0.022956865906489494
Ni 9.151366883146672 0.5500548980613219 3.584231126911459 1.5741962199343922 0.4480448077610542 1.4133264088977917
Ni 5.132467601248985 1.5064333725008738 1.9378846849528872 -0.8641508578319826 0.6271033738915394 0.20728773617950752
P 4.5380417218323945 1.5781642989232332 10.836879548481965 -1.29370686276023 -0.7268035553973548 0.2526304259803649
P 8.006161616784967 3.5349742745766872 2.0502121641570366 1.7772781455626683 0.8486841296549513 0.4951893266573407
P 7.0938837224441835 0.7661325421298405 3.9956298551487412 -0.6258566459686319 -0.4307803642536516 0.1842370250076311
P 5.817571143405397 7.968361385962629 9.393666922168732 -0.2665452362892442 -0.19892162360299934 -1.182860691939924
P 0.5986581252898661 1.92714043088861 5.226169095970968 0.5154221087644478 -0.036923098278594475 0.03935099099379674
P 6.085706623858768 3.9698354401149683 13.107284117896938 0.3020051197587509 2.15360151641902 -0.6187424035213538
P 7.659805579753255 0.5329105259811462 13.25124481443899 -1.681133028397963 -1.1177922415753652 0.4273407424444834
P 7.314829521547814 6.744935563022584 3.537695070667945 0.9714548198269849 0.16033990667505932 -0.07125966677693535
