# total energy = -340889.1864760997 ev
CRYSTAL
PRIMVEC
9.03618634333391 0.00000000000000 0.00000000000000
0.00000000000000 9.03618634333391 0.00000000000000
0.00000000000000 0.00000000000000 13.22537210518276
PRIMCOORD
 96 1
Ni 6.374514222573474 2.1800250746934386 11.194007446374448 0.583258351682131 0.0020627960662996728 -0.03940755526334504
Ni 4.832434849516403 0.28982121087924617 5.761210200399454 -0.819583098523937 0.2792652549590739 0.03685033605913009
Ni 3.0467127909649014 1.8912827844331157 4.802013625432083 0.007414290186200134 0.21710240827708419 -0.22475092596127744
Ni 3.367172094394584 4.71489214088192 4.954211011333179 1.0009623423677987 -1.0819549201617815 -2.313330271872642
Ni 3.7360201743262396 2.4682613385328254 2.5271176329992953 1.1526556291114536 1.9223505845556956 0.02102571032204766
Ni 5.02498693886851 4.6467954425217215 2.17440998865827 0.4858395100113246 -0.3827153904256248 0.45598514565405346
Ni 4.9931614914660924 4.690855885887476 11.143989445520782 0.7098430162836162 0.7977001824079165 0.7331086716797761
Ni 5.98160277908911 7.794297853113701 12.356147724695283 -2.3630734047340396 1.8025950270609021 -0.6017322421166024
Ni 1.9031021158363988 6.6385063991383895 0.3135800549607842 0.5946439678112533 -0.06376515817210308 -0.4301748694591688
Ni 2.8279015448406692 1.6627395658919606 0.29910860294063313 0.8373885021364739 -0.7059578222965972 -0.6593439790928
Ni 8.190606902567204 8.785856624937125 6.666473395081173 -0.28457946808313567 0.4441166763512416 0.31562939541040486
Ni 8.665151251171794 2.30024249441001 1.4974821802376799 1.37379312668986 2.128990916959191 -2.119978429047936
Ni 6.998480944331495 0.6223374974063297 4.609451596275279 1.1007316865486527 1.5187640071080166 -0.07723491052376376
Ni 0.5899789150247119 7.549209377845167 2.270082416103636 0.18692665602465228 -1.2592273409261217 0.5075103101165388
Ni 7.827587162662397 4.080425370889484 3.5423096459176335 -1.492286015422146 -1.340845982339878 0.39287664722934273
Ni 7.819852187370951 3.66205899119484 12.438264065771225 -0.21034297806606356 0.9095205442160336 -0.2574990669265759
Ni 8.298426674970852 7.074321654169227 9.196500680000849 -0.7320943714826489 0.2453403200768549 -0.10037766718881423
Ni 6.909329932385937 0.8367173978729396 0.3591658065382166 -0.0936380344721355 0.2577659474347173 -1.5664589991911344
Ni 1.9894970910250747 6.387562475284743 8.980132818594848 1.0230977408142574 1.3723885330328494 0.3782668677359679
Ni 0.09675405892011575 4.57526499344803 1.1517052906262555 0.668589666060784 2.3043164984098055 1.6476973744473367
Ni 6.436375952532857 1.8848670923105388 6.52281972312641 -0.8417164400878664 0.7125267337633664 0.7431020354470621
Ni 3.287635584446804 4.367486930537414 -0.2226561433047343 -0.015377768007650935 -1.7536270818026314 1.5806928834023295
Ni 6.131630576710444 5.859713664946233 4.509495113005527 -0.33681888500382634 -1.3850149635476083 0.3811850698240274
Ni 5.24894881106298 3.0823786174547774 9.169004469353256 0.8763656547306198 -0.6425952988795515 -0.6179985833767937
P 0.14228378614380172 5.77417712743593 12.529253941585718 0.28182221705297267 -0.8493585300141566 -0.9948832260532543
P 4.051843914292708 6.186389864404554 12.66833259252406 1.0788641970516 2.329523593803053 -1.03649164562266
P 2.402694772277305 8.460409346786792 1.5853383067168072 1.703523737388337 0.4279920028752371 -0.1638152668181695
P 6.489951499849421 7.721393903754612 5.660842570662692 -0.051464229317562976 0.5950957106366912 0.6393837339207892
P 4.954875171010657 1.2228038100049332 12.638615287336005 -0.7860021772446979 -0.9793535058487713 -0.4475048760971842
P 4.07758800845781 6.2627004559188695 7.9828207070891075 -1.14428257455641 0.5076828311386611 -0.02509422396446646
P 4.954305891287104 1.1011948176307886 3.7097564994610694 0.7350025462683792 1.444508748037867 0.26439965070115107
P 0.492512804640851 5.600673318357616 3.434985960130224 0.2117542565912934 0.7649612974139987 -1.9208184641818855
Ni 0.4105446570167535 8.943519999802936 4.4057949378394605 1.5273980286339308 1.9288189658888584 0.5481550802210947
Ni 1.898692457025388 6.8868930823290935 4.590922896701554 0.07634453749901045 -0.7863616174666457 -0.32299894840159854
Ni 5.867954666658614 5.766803599588011 9.139763371172046 1.164239477294311 -0.13340991505343477 -0.1919984141206048
Ni 8.604274465496017 2.3311191422731734 10.281139397480953 0.6103685776353617 0.7043925346920062 -0.7835568010279989
Ni 2.2730887552151593 5.279445939110442 6.7292016952864095 -0.1615282705562057 0.6808152615926985 1.8051270494541365
Ni 0.8420532657579843 8.75285647334325 8.858142499167784 -0.8868310730383179 1.3553200075863368 -0.16461796522512295
Ni 1.6570106239120819 1.3062710609010526 11.246009793693066 -1.3430946691647385 -1.5065949758456505 2.3400869711411953
Ni 4.448921039563702 7.126659243991715 1.5462577055042246 -1.1062754991850172 -0.34764939996042704 -0.7196679727938379
Ni 5.534049518329783 7.965253457715161 7.704678766728778 0.30835085947112056 0.1335109594076733 1.092368659295938
Ni 5.43295266837571 3.4615369857129963 4.43031462878962 -0.04050721608542701 -1.2209837240638908 0.17889710085195643
Ni 1.1406377699055057 7.514636929871956 6.844963371642921 -0.1793527003321363 0.0316173697949649 -0.9440807986894063
Ni 5.276617612864855 4.875410950551582 6.747373465509653 -1.0189896321831549 -1.085996180110691 0.1710241258617829
Ni 0.7890867573837619 7.470097568643529 11.234887152237178 0.048314113724355505 0.03472969017170148 0.06569271421211913
Ni 4.913543655843519 0.6016247516551027 10.176381084923966 -0.6019880668811504 -1.154056366113722 0.08555988544969136
Ni 8.279486828930118 7.0826439815564 4.43246975917164 -0.8593716912757845 0.6895909509027994 1.0142562312632273
Ni 7.204361408163602 6.25649259607632 7.027300956240998 1.7674794143046915 -0.7239277765114565 0.01777917836029196
Ni 2.6724791441247167 5.360672215856703 2.268442348328639 -2.10520204206971 -1.1565282246929824 -0.16331493014298326
Ni 2.243585607637393 5.296596620305725 11.094460302334488 0.6771771506194789 0.8695411756096185 2.0549719422695643
Ni 1.057766907291203 3.5178143526699124 3.5115875168365775 2.036394950598325 -0.26826710407635734 0.4510260018765652
Ni 1.7560381872519728 1.2813582958560596 2.6397048971830444 -1.1291074094778684 -0.8548645474340503 -0.13485307525786452
Ni 1.062113312799597 3.694905527625217 8.209741930227443 0.3818671834927166 -1.2209369299863553 -0.0009132558428887498
Ni 3.9208282522008124 2.8000339469448554 7.003046025543221 -0.7331210129749504 1.0202078208609722 -0.37258524397015835
Ni 4.2840919691299995 6.961857282116275 5.788916954182899 -0.9830240127218232 -0.30044857390490837 -0.19134921057238014
Ni 0.9385525042304147 9.044770464920509 0.18913731462939973 -0.42774929073681167 0.20650329260499917 -0.577883974744095
P 0.3532543335993575 5.732990191246203 7.824817571626382 -1.5556459677360306 -0.2562088873602426 -0.6283899539134469
P 8.80155248017222 1.5579649882000146 8.0002388593926 0.4013515174695733 -0.5154650461872413 0.006213842120195751
P 1.9718223110366788 3.22989435534361 10.401741758724878 -1.1101825475489073 1.5059120908460129 -0.3161852679138748
P 4.093220610390286 6.227070774173346 3.499552220585788 1.2099781169820063 -0.04417746584816262 1.900345283929198
P 7.11659293268953 4.107398386362573 9.98949378063051 -0.45042153552334685 0.13607126393568178 1.9627798962153358
P 6.413143918100258 7.839623362531795 10.078989974884635 -0.19345597250273777 0.2378728080552161 -0.08323560819188891
P 2.4609239554292586 8.907474653497358 5.380782247995851 -0.8020674582376768 -0.583424187836034 1.7290650761925512
P 7.044032358401792 3.9822562452279664 1.3360796315685983 -1.177080080702405 0.4626250195680742 0.06537158342727452
Ni 5.4334406224244685 3.3064850686266576 13.104994538191356 0.23948154730323276 0.030820584925282404 1.402503864360991
Ni 1.7196856106193985 1.294858357871736 6.932343291115203 -0.9991648841477438 0.6439253305448847 -0.22770743748644012
Ni 6.9524506123985255 0.650537626950187 8.751969119869395 0.19492432951814817 0.23535492672936886 0.6432416742142987
Ni 2.6352048765111524 1.5337841542281605 9.262825382269165 1.376603085334829 -0.012373433963688368 -2.560173401747268
Ni 6.436936196070322 2.0789462971115404 2.3136070136343645 -0.743341662261694 1.140155953982546 1.3310230827121852
Ni 4.286332943279858 7.1548159998423495 10.330417334693998 -0.6211435567636786 -0.3028985781072977 0.058912458065492085
Ni 8.124416839471602 7.5472033445335995 0.11228726280562287 0.909903124366433 -0.1933631556786154 0.36971023641520845
Ni 7.567995608722403 3.3238435821019685 8.034664921151183 0.05117883686666024 0.923005723186662 -0.2758366888934991
Ni 3.246042019883111 8.503548099171557 12.16730227887653 0.5825914075220935 -0.16128864374157384 0.9854377643696385
Ni 0.22223596065163595 5.032803239834749 10.122527223075888 -1.5966375796570438 -0.8393898488372189 0.0996605865171316
Ni 8.674856115030453 2.2700074157591046 5.782106380728271 0.6217647352874454 0.965020377055551 -0.12387497897980602
Ni 3.876343108088915 2.5487376118337717 11.231726294343547 -0.24586739622491852 0.24438104148737913 0.28071484292140686
Ni 1.16549631783397 3.36991005877929 12.705786680240777 -0.18988933819740197 -0.18477978488497857 -1.8832106811314406
Ni 3.1239270010880302 8.632783632604088 7.675754838679261 1.0281381314516425 -0.8583499348794894 0.4078201559130525
Ni 5.829216536898771 8.044049000403712 3.6186735509298686 -0.2133876784296583 -1.1938799258685633 -1.7917233744537207
Ni 3.5241758276759607 8.409526582924492 3.6224958576451507 -0.9523556371036889 0.3873318061517136 -1.0261588962380843
Ni 3.4763563308975405 4.517713524252688 9.311931631946534 -0.1766846665816699 -0.21665683609923328 -1.3831956509506824
Ni 7.306578745192605 6.165055429050462 11.428916658014694 0.5098147898799995 -1.332210675262383 -1.34875623832589
Ni 8.228025749158178 0.3347030435604127 2.2865608050539623 -0.9659650003570074 -3.274471625588761 0.3362938657382918
Ni 4.6326628474798754 0.46773016067552714 1.5551845537406948 -0.022830881851586486 -0.3324935181555951 -0.45836135919571386
Ni 6.213814689182049 5.902861453517087 0.45738734207904574 -0.2767203770500331 -1.3034055781052327 -1.0450374783101422
Ni 8.00899763456783 0.05310837649580629 11.087252136691982 -0.013576453132854037 -0.15003441098399323 0.295762995503781
Ni 8.98861056838274 5.085854688358199 5.410089310335505 0.8645478361600852 -0.8913153340619167 2.5263749651405845
Ni 7.405895466487317 6.093154496347158 2.4874279928443728 0.34311397398391874 0.8973078041999256 -1.2977674059828488
P 8.58762077453558 1.933111289835101 3.5888767273042377 0.027529058658204205 -0.832861817910714 1.492559837908823
P 2.0343527187665855 3.267864409285961 1.4428484955301961 9.255971380629221e-05 0.5878359437504844 0.8392417532951288
P 4.778009900707556 1.2151049794578408 8.049503242326512 0.3481062849921876 -1.3039557941817477 -0.30087023482335923
P 8.78506144056137 1.6302364045329325 12.54726757855242 -0.47163005128016194 -0.2609335465294216 -1.2043905955918999
P 6.48137615925178 8.017130202047154 1.4568274754085435 0.3013065510298295 -0.4938369263945043 0.20083555279626056
P 1.8166167787868417 3.2860723242535568 6.005429394566309 0.1310334444014582 0.29329756468242385 -0.6235408533512615
P 7.059195078657685 4.081572966522677 5.85819197120899 -0.03819733700532777 -0.638191770495217 -0.36606081258807927
P 2.4443606263297037 8.463029840752352 10.150605364107555 1.2117760894226939 0.04987040246788186 0.25266385032146166
