# total energy = -340891.317908151 ev
CRYSTAL
PRIMVEC
9.08407481175662 0.00000000000000 0.00000000000000
0.00000000000000 9.08407481175662 0.00000000000000
0.00000000000000 0.00000000000000 13.29546171936299
PRIMCOORD
 96 1
Ni 6.393026444450802 2.1754541633635776 11.578099897910963 0.10401680660329828 -0.4997118971180426 -0.09322305842190397
Ni 4.595188174342865 0.36173148056957993 6.05137621899034 -0.6406080932461935 -0.3765172320347128 -0.4534166135959288
Ni 2.703702180123872 1.637858633933744 4.8123320745859335 0.3184979752074515 -0.5497784747571306 0.826931311358892
Ni 3.1318709480208944 4.163849064442276 4.68509416816375 -0.1837947952638899 0.22957302994026915 1.0437485842953895
Ni 4.877993581950325 4.5398934128078965 2.518000986978057 1.488045237867921 1.052630974386684 0.3520894380096517
Ni 7.438848690423571 6.1691494281818215 2.3315185634244857 0.34390895908138835 -1.0802572207443848 0.9493520743906746
Ni 5.1593273694873645 4.269460514681398 11.601340594134234 -0.9237184329829705 0.9784302227035537 -0.10323621968353187
Ni 5.757104892537892 7.668076226578225 12.23863202448307 -0.33928148761170596 0.24431187881234054 0.6625460309698654
Ni 2.056797982129842 6.51137376715124 0.08078376619916469 -0.9580174633751565 0.0318665096912935 1.4117948027446139
Ni 2.9969451893419268 1.3806612323665446 0.7602916160126718 0.004258518166037827 0.2103082681733862 -0.5557264648104493
Ni 0.3816246953363659 8.981551643877802 4.80258667945291 0.021444028806388873 0.3218409235377554 -0.5580201459406324
Ni 8.413751566706262 2.4191162939126896 1.3556718518003308 0.42071835203195934 0.676323544369932 1.0777426818526472
Ni 6.88031436925099 0.5218482862688565 4.888063278543313 -0.5495331915155439 0.19792532112800107 -0.4644913833528516
Ni 0.8195860955538572 7.520959639908469 2.4200801142180715 -0.13326156240102857 -0.9811486500759812 0.1632658220726027
Ni 7.796543208281447 3.8273295242643757 3.9171355932656646 -0.38282620497187614 -0.11131642558850506 -1.836557500049276
Ni 7.779437895981407 4.045656171008488 12.591971637021436 -0.22721224301757645 -0.4360760654349522 -0.030571702139269935
Ni 7.972265545579363 -0.2052837325644012 6.914703950118893 -0.24177625687468038 0.2911231827389244 0.4908266788132708
Ni 6.878924505851146 0.6781216200434665 0.3582995172201614 0.1379635958623882 0.06997360097566015 -0.15299143672978813
Ni 1.8072402872245297 6.591622481361838 9.38908230289832 0.6999846354322977 -0.4478105802630611 -1.208073700870442
Ni 0.20237955394394297 4.9092064619625075 1.22156002619735 0.1881031928312567 -0.5248151199435735 0.8513336514626564
Ni 6.124773724206413 2.221010797025129 6.971315902457635 1.226301022511746 -0.11488845921047955 0.20956959023514876
Ni 3.420517415537504 4.299892164285825 0.5393941761825727 0.24087431388570127 -0.26587880634983885 -0.6210607672418852
Ni 6.165615723197905 5.635841581920134 4.417044931188357 -0.9187878284505726 0.13103190173956142 0.9751590081514496
Ni 5.382550332391712 2.9121181015789026 9.360510163345841 -0.40267692114921616 -0.4641129169675104 -0.2524409356773782
P 0.3688806472079929 5.4438133308789505 12.446559222729528 0.39440671072062394 1.080237937470675 -0.8375134577501124
P 4.033701528954929 6.057869515449219 12.630422707602216 0.18746427369567714 0.47111994441296284 -0.5550638915257861
P 2.22899569851835 8.486351490180464 1.2459707512173541 0.3187751401282381 0.37497045637288323 0.5603333674548414
P 6.3786372704288885 7.551772820642263 5.613716410046541 -0.6732225368471051 0.7873710325677665 1.088067717927739
P 4.96304777157607 0.803877913913268 12.64845096187235 0.10050982189130431 0.7804408811068366 0.955933070042302
P 4.057456383795399 6.36981663408086 8.092827565645043 -1.4140517170995905 0.8300055794088415 2.6750266368444384
P 4.856873108717402 1.1021616760762465 3.9873618480707202 -1.2453598389154101 -0.7884169573337776 0.15832313335534667
P 0.27768198958450746 5.47997703149842 3.4990728582596646 -0.08494667734572467 0.022679958096019005 -0.8259900304915452
Ni 1.5555205825861265 1.1205478428820252 2.6900306479881526 -1.1152828448899503 -0.5374798598954357 -0.25454255540141324
Ni 1.7606662372179942 6.6071471646973485 4.554852158301511 0.8921509425893345 0.39277843108858157 1.5640321349171966
Ni 5.9632952157382695 5.816796346135111 9.384374935487868 0.4619845577705979 0.32335016109343023 -1.1162516365611226
Ni 8.473815467358342 2.2655227621181706 10.242730044230312 0.8148342709850418 1.2984124957660153 0.4559064698973181
Ni 2.361014553354507 5.14404795616359 6.925299614625939 -0.7262307136130203 0.6345716572441265 0.37253613589977774
Ni 0.7225572789106341 9.261304802450313 9.569554702756879 -0.6113723363095277 -0.04238772093759151 -1.3122946530647464
Ni 1.4120557938689018 1.0122656747373207 11.641306888343081 0.41358508342128775 0.18000884585889643 0.552646540333545
Ni 3.903317807530353 6.660806792820735 1.7358685306239157 0.8130293565658191 1.874165797320353 -0.9991548568454147
Ni 5.791152003796814 8.230771053875829 7.8047679293417005 -0.6899699315087731 -0.9490371142534172 0.44456147719814404
Ni 5.282925287253879 3.279096543584756 4.778454835520326 -0.12572411637340283 -0.5512843698786957 0.17977873212596135
Ni 0.6977105183142083 7.345546161143851 6.943634002207018 0.3421341265691527 -0.3640885193530568 -0.06095468530650147
Ni 5.164060172306441 4.958015194298204 7.098326707017099 1.6676645615978827 -1.935707722588892 -0.8116862122743633
Ni 8.411516884377102 7.413731224406783 9.20927394888635 -0.7591266930100926 -0.35889874762200125 -0.26816605972211877
Ni 4.5333801313850985 0.3826039585684128 10.56627570919477 0.623641640595184 -0.15671079456290432 -0.760471122853129
Ni 8.21148556369368 6.872093281820542 4.866444998027309 1.089427060169111 0.6786419080904635 -0.8593755479305263
Ni 7.524129981912035 6.123774476010446 7.142706953029763 -0.7158416570692123 0.6144885133410063 -0.8568160147334664
Ni 2.4225137377789743 5.2210082354020075 2.635772379354637 -2.0420272091834377 -1.085246703539176 -0.3587637647060337
Ni 2.3890025869160705 5.068314026983859 11.442552788535593 0.5260171106714747 0.945701622122281 -0.39451546838434637
Ni 1.1114092639261886 3.2193233333169573 3.7431246956052027 -0.6077481092933791 0.5417247512147186 -0.27408551053034735
Ni 3.807299139972507 2.64485554545597 2.744768555755732 -1.2700606840961999 -1.2593605240698762 0.013509090230028347
Ni 0.9773010719530113 3.1997108164524932 8.394116339655527 0.08143609308930493 -0.22180829839318572 -0.6935607341838249
Ni 3.675698152563754 3.1150563261051354 7.072560638080385 -0.20952613859172303 -0.943288384695098 -0.43471338075947075
Ni 4.148605987416537 6.826700161500147 6.052598935419222 -0.35401725115998384 1.6552317351511687 -1.6860152961909287
Ni 0.8028713984576947 7.387605426119521 11.345814662276652 -0.20076433323869294 0.6115661974878887 1.013029815055294
P 0.38318897296677845 5.484864263584146 8.04784867912225 0.13971657399775292 0.3540427050812806 0.39761930412065066
P 8.269805322040073 1.570264035513883 8.200148638706718 1.010938479743904 0.42988510613289194 -1.9435339035015302
P 2.132695424650732 3.2543242723993018 10.359092496650579 -0.39506876978465505 -1.0140988797497568 0.36719106953778047
P 3.9578040864340394 6.086438929779344 3.9669935362071254 0.03420132847205723 0.17642601360364454 -0.9126017542445186
P 6.889698218218564 4.165402441183279 10.377120750920714 1.4271640861118324 -0.35859407189738884 0.6838195956366611
P 6.353701485902277 7.839111181429609 10.160710843897954 0.3477836115454462 -0.5599929533962872 -0.2350736480435242
P 2.234546068043217 8.4904211555604 5.822507503778783 1.27915056221261 -0.09505831185842983 -0.4183148847967893
P 6.905640768981479 3.993440910731999 1.7010747084403717 -0.20211956171500675 0.7373368508285107 -0.4208211961584108
Ni 5.343788586462731 2.8025550789284592 0.49091882938134895 0.3072002908064451 -0.07889892848974799 0.4280719641835531
Ni 1.1633429178929064 0.8585086296016436 7.011906272585234 -0.18235729148641497 1.2857055897223082 0.6489906608829339
Ni 6.881831409693957 0.6926370627010525 9.475542707258022 -1.7968936058007505 0.06685253884817519 -0.9151039518410821
Ni 2.726257937129183 1.5048405309016208 9.067225367385046 -1.1405760722391 0.9673294848047016 1.7406980324457892
Ni 6.2644595379279835 2.1115931195668263 2.837743149945685 1.7370195551529375 0.12672556105472368 -1.0003781877295546
Ni 4.07597881171881 6.735150858600623 10.44222903814752 -0.2991180280189429 0.9895042211295282 0.31884584546517347
Ni 8.030966835055127 7.485649842292826 0.2925090159977446 1.4016132342259215 -0.9570982939949969 -1.0070900525320914
Ni 7.697753897998422 4.146080614703095 8.316470212791696 -0.3398455876452921 -1.6468062300916348 -0.10484418760060009
Ni 3.333809924351162 8.446454234937885 12.706472762574855 0.3294017666041488 -0.6149988773185215 -1.2676865274370686
Ni 9.294461674407376 4.720693747756223 10.18364540681028 -0.2778040970325151 0.12203381200600917 0.8136009127985729
Ni 8.593752503097816 2.412702937309488 5.780680791110538 -0.2918484909407232 -0.7931603855560341 0.9406779436554445
Ni 3.6306593111492034 2.419715842830269 12.038122881480486 -0.32556568068751024 0.5751406076710031 -1.5176625465137217
Ni 1.371895100465568 3.2805136592081263 12.604709326297652 -1.2477352811261222 -0.10385894086919532 0.6064597294992587
Ni 2.8942043066475804 8.43551700922931 8.080277008303707 1.1073000837947897 -0.7703827255398862 -0.6270365252093459
Ni 5.503586541146749 7.75513799667041 3.291464511028465 0.6924636444649042 -0.5069878619541656 2.5510117898526583
Ni 3.1915805697671313 8.494281887226633 3.639578963909378 -0.024573832684622196 -0.049246909951270026 0.16263590179808765
Ni 3.510458837248974 4.438533309438885 9.127214778626152 0.1859488654924152 0.4502844957248503 0.3096310117351248
Ni 7.677986951867308 6.32544093010545 11.412916903858136 -0.6841764647554475 -0.5779659929349401 -0.4739075344604289
Ni 0.18892058915172869 9.410737828119808 0.5903385744352839 1.622191259756432 -0.25261062848602306 -0.19585686863474655
Ni 4.972804067598504 0.21194417599424156 1.7051298393010927 -1.5657514316011487 1.1024167875605597 -0.38108042592536306
Ni 5.85520381315825 5.5178939584980835 0.3539582380124135 0.7103394963040605 0.5188535030435001 0.4295092108507119
Ni 7.987781144840366 9.130948333249265 11.404101717954813 0.49537778851906294 -0.9433626895764593 0.930745515033081
Ni 0.192884879267362 4.774108105867873 5.622358090126746 0.17260046920996727 -0.07598149773263689 1.0668597163915563
Ni 7.954633356957814 8.714879552597942 2.718749041140222 -0.8737094480546953 0.4883810454862557 -0.2048529014857698
P 8.449497399898327 1.5814556153087047 3.6402575442751846 0.48901636507740937 0.084567439629435 -0.18045621780896015
P 1.887107470305758 3.122232744967075 1.54005312892002 -0.66048760577894 0.08889769157367271 0.7454759349958774
P 4.431974607643543 1.3227502573730467 8.02527293715302 2.123975723132787 -1.2752447994003004 -0.2427216515070852
P 8.549531228389057 1.946599074263784 12.4949818818986 -0.08877684972509227 -1.2350312032958923 0.015490125215799129
P 6.305555891005722 7.695491963445735 1.3376426891227473 -0.6145337647566448 -0.4704031208515963 -0.37405025855145907
P 1.6299282368875758 3.0165940425044266 6.250036752830386 0.5557827719696815 0.26492261308415666 -1.245825722808235
P 6.948281414725711 4.089614007556494 5.899834779627356 0.37340079789291825 0.4296375088984601 1.416107828297671
P 2.5742995387462453 8.541837017280116 10.460443515945082 -0.7060552671064099 -0.36593945651886656 -0.2628423335163602
