# total energy = -340871.47519274737 ev
CRYSTAL
PRIMVEC
9.19746433782676 0.00000000000000 0.00000000000000

0.00000000000000 9.19746433782676 0.00000000000000

0.00000000000000 0.00000000000000 13.46141875235153

PRIMCOORD
 96 1
Ni 8.299470039358319 8.666310910313872 10.558773844627963 0.3398985523704146 0.3969539026225099 -1.0023491954129964
Ni 2.5430621400457882 3.5283681153178543 2.8476150222744434 0.6075393357166827 -0.10075973311858132 -0.18878453516899743
Ni 9.051307576161394 6.222149105867556 0.977951682670435 -0.9364505358376581 -0.8064632733125272 -0.09035499284548956
Ni 1.1900507321566478 7.293524953783526 9.223737041580453 1.0215468513873698 -0.22852890494647093 -0.07639878777571359
Ni 0.9278034273163406 1.0853467964675916 6.282902037772027 -1.980509195174299 -1.8581776494222126 -1.0280103476245264
Ni 6.861814365820339 6.306453065330477 12.705829953838544 1.8492392092820022 -1.740601101856609 -0.5131603093134646
Ni 2.829158470293836 5.214622056401468 9.461236728732905 1.0312067430746368 1.3941007278989603 -0.9524793071657467
Ni 6.407781531553803 5.20019123462563 8.507805486377563 0.41571318550788405 0.6857947170851608 0.34311011732917684
Ni 1.304641942166306 4.900344694973582 11.07392842912479 -1.4096497313771528 -1.8746162545942102 0.4621797045005395
Ni 8.513982503525206 1.8327419579247586 0.6886187646703684 -0.6506055707785375 -0.12439639870091478 0.03132220715204928
Ni 7.253046912588204 3.225900298287786 4.237910191943514 -1.3125929010314554 -2.2888400000407616 1.154819469531992
Ni 7.772400139622106 4.4562267274211 10.779420097859418 -0.18510837186899087 -0.021020825226041217 -0.4929308696404671
Ni 5.5238224174340305 2.079325980748335 6.514088585302469 -1.1714470507863437 0.10527561871106383 -0.6646815892556295
Ni 6.044932360184429 8.427986210597178 11.954574616537325 -0.259654679816998 0.4750308494315948 -1.5213122274511672
Ni 7.719266387296414 2.9339635780922193 7.528500856681491 -1.3574501665554624 -0.7453656346702582 0.22499003855527702
Ni 3.5912419825323996 4.715356091801237 6.589620003140282 -0.04373420766315694 -1.1044376746453302 0.32031060293615804
Ni 6.284811431398964 0.5485855284042918 9.384358802094594 0.9413340891822046 -0.15859001386348817 0.576852191045471
Ni 6.656094677700423 5.519830717847852 4.531853798889551 0.33945657973698956 -0.04168580977456047 0.21861395982560414
Ni 0.22104634293652148 3.2971162657895743 12.413838048856073 -0.08195931258262659 0.8226848773777122 1.2404194641909991
Ni 0.6289171029564514 3.2614209061260797 6.592461099919476 0.33817077104603044 1.9591207021961936 0.6962267110517623
Ni 1.5907474698788384 0.17663178694192805 4.185060641270386 0.544730627920578 -0.7634649153741303 0.4763194863360313
Ni 8.522572935353525 8.77050898545629 4.971018931817247 -0.4013916266788894 1.2537449776553118 -0.6431108050633891
Ni 6.418892068650814 5.593621975405239 1.7028020191837319 0.07006667491009869 0.9155587799903135 -1.3364743356347433
Ni 2.159812992450279 6.8886893570434085 11.191043423388935 1.464902738313187 1.899049190825594 1.9627243603870521
P 2.7548705496542976 6.684110154519544 4.165824144301512 -1.051599447798376 -1.0593680360002014 0.5333205863114235
P 7.092302825796423 4.1730919807369915 12.647986179950452 -0.9775637609382002 -0.6761163134551323 2.829791877645197
P 8.16159084927446 1.954442807980766 9.487688636589699 -0.0228103130262962 0.6006688338490944 0.8935419093995901
P 5.857009765841597 4.138251985270534 6.791999172159506 -0.33250277412697576 0.598884231144846 -1.394466338768495
P 0.14421072463483714 8.456424770782576 2.707441064801757 2.261160274737306 0.68646088991425 0.2072802799803398
P 2.3888390555733627 3.7605489087590467 12.683173839574414 0.6329757735119164 -0.20579649634596167 0.26553145031274916
P 8.756979515199912 4.623271077384614 4.678583709046633 -0.17764908737746823 1.6047589232125976 -0.04169892240068303
P 2.040393113586373 8.968686752699096 10.295615990803713 0.5312374785301496 1.7067484149732217 0.380898391821544
Ni 4.595733868718677 5.837842249856355 12.315125341532076 -0.7098574144613194 -0.3640651223142891 -0.7074014967216591
Ni 4.732868064179308 6.47510697157874 5.792798587291037 0.34579049237481735 0.8443772747494812 -0.45091698710252665
Ni 2.661755419215436 1.2853272667493159 12.283477785988113 1.1781157210557711 0.18804225768633423 -0.4575278075508249
Ni 2.4197885235629686 2.653100605135727 5.116900835748877 2.0373030642348913 -0.006806738509188278 0.7069314990637762
Ni 8.91932396081196 7.447389337141065 12.514220095983964 0.5671671025472232 0.04584328358635976 -1.2476782026359414
Ni 3.645525417918627 2.7739460909946967 0.8592528850220967 -1.2607301507238933 -0.16441279119285232 0.6434831008011433
Ni 4.4313567834556045 7.166581548971478 10.07633004256948 -0.06336355185831023 -0.16440250678020718 0.07693949077053201
Ni 6.321187403434296 0.5825388882944639 4.3449153332465364 -0.977141328688801 0.9710295593641083 -0.09689227974337507
Ni 4.028995304661759 8.377151824392557 4.143155153587105 0.09429906509490212 1.146292148787271 -0.015080034261574029
Ni 6.849186247083421 6.880457626329977 10.259768872976226 -1.736097043338668 -0.9022777466106913 0.545132491344687
Ni 1.5814304383562616 2.0744881144296032 8.952650973370753 -0.5408539185739911 0.0212077444258667 1.4028059689824421
Ni 3.3131842362436137 7.179614356145704 7.901448844054605 1.3409516546798068 0.03992151878528608 0.6853560868858455
Ni 5.395076309583063 1.1759694140312134 13.10980650739583 -1.2289718844756898 -1.8612688867530267 1.561125245683047
Ni 3.5434519570720755 7.9537925341810976 12.968125085494169 0.3204759248694287 0.2229300707024548 0.3739672119193495
Ni 3.9824009495843913 2.474495042315472 8.482524415749621 0.9670831731218508 1.5091663361172525 -0.07252953462829445
Ni 0.4379115185184888 2.670640169907251 4.169849874506282 -0.6119912008404492 0.6604719220496561 -0.5352555985506072
Ni 0.0803251363270206 0.3811374097499184 8.389438717197107 -1.0926285978255441 0.023133757803985966 1.2178804025482186
Ni 1.6537133117382268 4.817917018265455 4.890910855652056 1.7775267712383647 0.602073427506105 0.9781782545937476
Ni 4.675310331436676 3.2337549329573623 12.386134366082969 1.413966870695268 1.5382547688427766 -1.5416954190932093
Ni 4.903959298515905 3.6986407753153507 4.730423378119386 -0.8349125297921556 -0.07198986007474054 -0.06399527190503818
Ni 8.221475540531616 7.243849448103923 8.465899998694281 -0.6067091265059035 -0.18082722799513373 -0.6601646752218824
Ni 5.095533286258997 8.512391342169426 1.9513138305632136 -0.008278437958708324 1.6089657622050935 0.5528396301809576
Ni 7.836074186246784 8.655926972911116 1.2011989788580448 -1.0383058160132634 -0.6516280985057811 -0.5489230687353708
Ni 4.69574709752075 6.388080562628473 3.0509498078535846 -0.8123996934016202 -0.7343831675168255 0.38720196544206864
P 0.7822305581913814 7.975378983325705 7.254735567067518 -0.31774412776056243 -0.6101760020085814 -2.43075975233742
P 8.911542905858258 6.303105188258199 10.486687796985962 -0.12903235481102937 0.2806263969726586 0.055377191218723976
P 1.6069442048356575 6.855891198692462 13.438131156330558 1.0951171685753527 -0.09000840813934821 -0.06330133116180711
P 5.63558080838253 7.469224117826748 0.33690128456631996 -0.9620019019442013 -1.3413314066167288 -0.052754408883896244
P 3.1342751570953777 0.4248465202185675 0.8121609471161291 0.24938877911461566 1.3737460755020083 1.1022326965742113
P 4.966566439260406 4.197594026123116 2.6205480190865114 -0.46823336689378714 -0.5098065623498832 -0.5604051012330412
P 8.089556307433572 1.6343250566053622 5.697774063225238 -0.7340157568750778 0.3505598887390027 -0.7988931742747531
P 4.997451524998622 1.228799650028924 10.980479430725149 -0.9265096225748625 0.3593237509745618 -0.0575482307281138
Ni 3.7974491362699827 1.3076127231947288 2.7955196636890265 0.6672115547663348 0.2043656774367061 0.1412533223572535
Ni 2.597796251191745 8.329932041730258 6.131595469287568 -0.7054860248665011 -1.1011908855732584 -1.57118057303652
Ni 8.290162205300225 6.766887334878074 3.081816498662832 -1.8503712660039162 -0.9789868665379721 0.9703129929130581
Ni 3.9733598419963427 0.25079646155737717 9.083092173926172 -0.9454349987244557 -0.7171606329909519 0.7693861659545718
Ni 1.0480418805193474 5.326352854956515 2.758581726573705 -0.48156247990252554 0.193022484509745 -0.6080504710251464
Ni 0.4889178973089665 1.2666380189172566 11.417895205907934 -0.3234992850767848 -0.6148548955414895 -1.2646040318570029
Ni 3.108099173173114 5.580773117520699 1.0281836349513362 0.3323323099873825 -0.827299236221272 -0.3280102855732609
Ni 2.245533361443779 7.554585785705361 2.166197872295267 -0.09442427781885673 0.9022972869947169 0.10224428808390777
Ni 8.35217151085325 1.1077334250223319 3.130533628543172 -1.0208809356685966 0.5175504679613602 -1.1068709666771712
Ni 1.4440019240321333 1.2226649412179085 2.233532509784689 -0.23803453044406106 1.6066509980289878 -0.9868747539264809
Ni 5.84468516343266 3.056841703602215 9.90698540673845 0.9096503849256785 -0.9794535217617454 0.10422223774588503
Ni 8.179976580778538 5.240264587383644 6.866710176165322 0.047530441480795556 -0.3593389204832134 -1.23642602676089
Ni 7.332715349951048 7.390503019305785 6.328805663266626 -1.6170020022460088 -0.4338528325313883 -0.562176077090535
Ni 7.217645871788206 2.0820944175581033 11.940413280470876 0.3845416450010861 0.6975168906180955 -1.5923165836841866
Ni 7.946802461173045 4.038284743790883 2.275383732427513 1.4389525941063281 -0.05271147146110277 -0.4639180273478849
Ni 3.2430351746220016 3.2408461780747424 10.665159076824745 -0.7224717607912202 -0.45274452722956865 -0.54483475759861
Ni 4.961700980548222 8.90121415324241 6.365326035494361 -1.0057240254225002 0.03349530354396812 -0.19558330325838574
Ni 0.265837075228522 6.7702076195569 5.195784729391211 1.2809788736706003 -0.9575199549134478 0.9696984992575107
Ni 6.932478485453071 0.4269463013603289 7.189339755091383 2.2244737179495497 -0.3928162263050525 0.16898678371677994
Ni 1.5061124016944838 5.8544712656439355 7.2631622840280174 -0.8366801632155398 -1.0285225113742547 -0.26850287423624725
Ni 9.069803677239282 4.263484661688506 8.985429817046281 1.679190045738979 -0.14379022984649428 -0.8735724082561989
Ni 1.0571289754298172 9.195063946050707 0.3006605152589072 -0.40027113992120095 -1.1960118846099013 -0.7203007212818304
Ni 6.025930398559904 3.1119069234696055 0.8567640511326503 1.1001876411197247 0.5392215251768906 1.244980344088804
Ni 2.8157393696112702 1.1191658733762933 7.193176937274225 2.533385592130463 0.08388635440201037 -0.41236252386809624
P 3.8526891079625742 1.2074155451029707 5.000527157122166 1.2907459803596932 -0.7092190095463722 1.0597531872537618
P 5.61242159281111 7.440932717073099 7.794201809435646 0.1341377943583948 -0.1934253763751185 1.518800516772907
P 4.991565147728683 4.950130570226996 10.15985773602993 -1.211002958702095 1.1093333121747349 1.2800895290871117
P 7.944098406614666 0.19817776724280495 12.561455514335888 1.0522527651116589 -0.06825610406392116 0.5691543081805811
P 6.212528558016999 7.637537717889092 4.225821964371823 0.1121162957819811 -0.5604935471817895 0.21687306587509744
P 0.6576692966807625 3.2898410713825084 1.5571896009614903 0.8911849791316393 0.5646250528516599 0.5450435311753066
P 2.289285699995504 3.8104267586573033 8.011186552055909 -0.8442980847721137 -0.39677829627659406 -0.46296594784726075
P 6.454173542412516 1.1711407451769658 1.8859446912340825 -0.14563653902661372 0.2732743274829616 0.7379824548323097
