# total energy = -340876.29581756477 ev
CRYSTAL
PRIMVEC
9.17363927467902 0.00000000000000 0.00000000000000
0.00000000000000 9.17363927467902 0.00000000000000
0.00000000000000 0.00000000000000 13.42654836415775
PRIMCOORD
 96 1
Ni 2.547730638097718 7.723314480278489 11.102278669870813 -1.130964260180949 2.0160490399521214 -0.6555660001076065
Ni 6.152686515438169 0.774015728210458 8.369398303725369 -0.027994428330396948 -0.8277496934951294 -0.6249035380267431
Ni 6.202701197113466 6.130293661812087 3.3246415668835105 -1.1422056374227234 -1.4612779970764058 1.0071116497986463
Ni 0.8650540076450671 6.567784521880861 6.063214176238699 -0.7002517730507553 1.060687269032257 -1.1600316098605505
Ni 5.186124353781087 9.266935250905297 10.487798951310134 -0.6372600027095671 -0.5943981703490344 0.061066014073385154
Ni 5.0113114825403535 2.475414839189726 10.90732507346168 -0.9182265566304638 0.31694734289087995 0.05184398125448491
Ni 1.2212590842603417 3.0191823109988385 13.427220137713588 0.5217717051315595 -1.1546932283667726 -0.5342775509080541
Ni 8.049960256216188 7.582526637345475 7.479312186416438 -1.2310971583488086 -1.4785211004275698 0.7152104512431166
Ni 2.502743110780098 5.347892309882004 7.00389199713734 0.8581668723344058 -0.9971116011631407 0.5475449574409215
Ni 1.4342434687899441 4.1839042560139745 2.3168714173164067 0.3549778153010402 0.1909334631912002 -0.4684462542355416
Ni 0.34838363171498865 5.398668403622425 8.089804123956526 0.41917903256929745 -0.08382567636740401 -0.32104516710933745
Ni 0.8902594990924348 9.099782368512486 1.2640623680513858 0.2365011245186701 0.48984914539134994 -0.4007424231306647
Ni 8.291731520991037 3.7546971922681633 1.2671428761413648 0.1910735883134903 -3.243611959895427 0.727228044529283
Ni 1.7434042881478335 0.9647916492646882 8.442626879747573 -0.7930531705542084 -0.44219811917229 -1.4086122912515742
Ni 6.274301452153031 7.625321664861114 12.17877864272836 -1.0527245625417547 -0.7106441720286729 -0.1149769051592278
Ni 5.9867445534380845 2.577434882276848 2.0114442691694205 0.12165920227540983 -0.8154510786334344 0.4131009446960176
Ni 7.51814603646557 2.5269523449952693 4.805012846360891 -0.9901176863438108 -0.8189050986203057 -0.30161945428455794
Ni 1.7441565265736176 1.2153512605261354 3.2835427452816206 -0.6367655795716517 2.4628216658689714 0.013662585088757114
Ni 0.5387017881662112 0.21773082552351253 10.8951745881574 -0.45655335945269765 0.37504784657803797 -0.14876994244927283
Ni 1.976864235681703 5.577380071582161 12.201388911606772 -0.8770703941071283 1.5454271182214998 -0.04804183389957532
Ni 6.881981669235768 3.1416595698115497 12.942641904282537 -0.6010547564336035 -0.17761360615384247 -1.3321674807292736
Ni 8.143036000947951 1.2749982635072044 2.5092738246254114 1.1260447113921446 0.3857747460772389 -1.2895750999800437
Ni 3.101157952130618 8.157658782054046 7.155598305611429 -1.4981697278964328 -0.11593412686617453 0.06485839123628186
Ni 3.972002360926354 6.509375960210534 2.167313575175471 0.8702346021322174 0.6799598555709386 1.221940174439889
P 5.6540900437334525 3.655768665638227 3.9407321765120864 1.4594311736756544 -0.3076674602508508 -0.0669219586335299
P 7.519696381513832 8.81832593995786 10.421807459362332 0.07166718662799916 1.1414168229728405 0.09636494648499533
P 3.0390340665280653 2.5235397511612248 1.4621111503734399 -0.99256306256051 0.9569401711505775 0.3768890135518348
P 6.79176809997772 0.6755119410819096 6.146512656163137 -0.20099624674384092 -0.23512018501074347 -0.06591948551094454
P 2.455920855594713 5.347873962603327 10.0450323312576 -0.13783529781464002 1.1632907402277968 -0.027336997252056145
P 4.670630038414246 8.29397906262905 3.5808869998071646 -0.2525548355474231 -0.13492403770511602 0.14829531680569943
P 0.10832416804076533 2.827297296948544 3.602584491571364 1.5101958058230314 -1.2377704566039263 0.05664243108439277
P 0.7599323570974872 2.927574348561288 7.621392595132294 -0.38399194314520313 0.3668326577570973 0.011965657002308424
Ni 6.287988522046564 0.6096204418028996 3.5105994925569877 -1.6163710535302291 -0.495137904594115 1.7216371591595963
Ni 4.232708017296547 4.320619003080549 5.391135010997378 -1.4811724220074876 -0.23957642100988416 -0.5053976346489102
Ni 3.9997342726476353 1.8556712863764278 8.336543831797284 -0.16269812249459076 -0.06624524428147946 -0.45998243973890457
Ni 7.133412776234404 2.170106948354144 10.63059031707475 2.8320030263639033 -0.13138002910759955 -2.1669316578690228
Ni 1.9168502871270812 9.030108577734076 5.208292453243368 0.02258405594810304 -0.5184704086724684 1.0135203815384672
Ni 5.3637076641021455 7.607900923756677 7.1732272883288575 0.5970302086552428 -0.3621658484090472 0.9008685249679904
Ni 6.478754352097521 5.442261537760543 10.71963516468103 -0.07524693355945751 -1.2371767888839853 1.8030979348392493
Ni 9.079545320131029 4.246991373747104 6.061872072803427 -0.1241570289965991 0.06984581714854422 -0.8121155865022981
Ni 8.048364042971231 8.229910365486665 0.43449291473284474 0.17812962655831258 0.4344907232257033 -1.910182324624278
Ni 4.506880576216141 2.1581078280989554 13.3260376478981 0.13390536663261457 0.20719363380380443 0.17289177519814095
Ni 8.613340968931718 6.969011985643242 11.677727305136573 0.8352100064279164 1.4417784935908975 -2.315991106534257
Ni 8.277714200081306 4.593553120689402 3.5647753370363784 -1.1760238715237488 0.5787761475410612 1.958117200632344
Ni 3.949270082644735 4.27343897596095 2.7892844876202365 -0.561388291081917 -0.619252767498869 -0.11125317645073741
Ni 7.436996022874285 7.904594767253097 2.5349324938561173 0.39599513825366645 1.642588078245229 1.975746226568017
Ni 2.2832270950412497 3.3949345783172906 9.105697531158164 -0.6884992605005176 0.5238753817381235 -0.26202755092454877
Ni 8.982405653172163 4.395897887494983 11.736857832222865 -0.08182150145318168 -0.9800736718442475 -0.9054579441108858
Ni 3.6526771491810415 7.138476625149438 13.450984450420824 1.1627001578316492 1.8599691941049967 -1.8023335458693992
Ni 7.977433463603403 5.823857413337829 1.7938941643408828 1.6249341126088916 2.386745294429683 1.2329056723124574
Ni 3.923079342332377 6.838443576933684 5.361959168444166 -0.5939901362773383 -0.20576821421118757 -1.3837484381303589
Ni 6.815711298652064 5.026292035580662 8.229829637460483 -0.3774960510082144 -0.14778855237261 -0.20544348388191713
Ni 1.7590636904992154 6.688234406399691 1.2148393714510288 -1.710375727313164 -0.8876844221775487 -0.6183821919684576
Ni 4.552785467467643 0.33441676582162094 5.753624947923685 1.6046805045661783 -1.4026768996037455 -1.1019596454184828
Ni 0.7092590081176614 7.460581449614415 9.158503751284266 0.5667397852018176 0.8481722230155393 0.9625390053945939
Ni 2.2871625863176077 8.122927383517238 3.1022037470152446 1.2496944617350219 -1.5343250947710674 -0.1623199132195656
P 1.03358477066657 8.023641084953086 12.652991581070468 0.567970315174809 0.43638099826988075 1.3829683654312248
P 3.0272459399776697 1.612661580290837 6.083031989302372 -1.1231087686922723 2.063185331318292 0.018239662936478267
P 0.46090015293359904 5.006935656575732 0.23033081915539472 0.8539227523460714 1.5962909949509025 1.3268067306379925
P 8.336985083849482 1.6776935095637986 0.3020613398735696 0.37071939440601315 -0.8362716149232113 -0.06030779575112194
P 6.14217352475587 6.875119787010323 1.0091994025760935 -0.5544023466823872 0.726892258456419 -0.05020078922410709
P 4.685472986864473 5.331443974547483 7.221965916772124 0.8967318770917976 0.9144737744562509 0.2235327372834602
P 1.1416227211599637 2.5586014007142306 10.862521018930837 -1.5985239980464794 0.24820015812315316 1.238704024161789
P 7.91233731885507 6.068013824340774 5.300505875877281 0.8816132762828043 1.1361452901612563 -0.2408025801075014
Ni 8.444463442343208 0.683651711267253 8.380005782892857 1.5358926963685031 -1.4133701176515336 1.3522038305548583
Ni 7.799363950397385 2.5241360377182485 7.266018650241117 -0.04142818523779962 1.184725770173121 0.5736833063991862
Ni 6.50298193359137 0.7835205359294192 12.296624131038897 1.1527638725545437 0.441975975859155 1.7785287301403176
Ni 5.996707125760052 4.684674880241994 1.0639596078813678 -1.7272899865699993 0.6688038389541191 0.3511545849002081
Ni 8.843434190828237 3.7356068488040592 9.477102410793943 -0.5549330223748765 -1.4434733647948172 0.026743329532115234
Ni 6.546409942221388 4.50963266801779 5.8418909535501 0.6252727484407038 1.348314265692465 -0.2982299689870348
Ni 1.9333536642976352 3.653961458688478 4.695478675291334 0.649596669898049 0.4318854243923723 0.3052431670800743
Ni 3.6195878320858843 0.5299538056927035 1.9596177937247037 -0.11006455545927497 -0.7197970421725345 -0.9159745273714935
Ni 2.8112984699416255 1.3507725244459352 10.444162701067125 1.0915191668114492 -0.8759781894842139 1.3964103498687435
Ni 6.236184980700195 7.319316577435782 9.38992348142918 1.1354999432677735 0.8188485343507574 0.04746719234302793
Ni 4.188004872798431 6.331526614348648 11.12358628196311 2.3913601674938754 -1.6302580959249666 1.6396328522716472
Ni 5.714581021533693 9.15798911011736 1.1136385343568647 0.5733349219208319 -0.5007899606735697 -0.574740544019107
Ni 0.5919832028100662 1.8397917166809141 5.626649853743145 0.34485666770663836 -0.031651051246377744 0.638511615728481
Ni 6.3228850460914705 7.710416343368096 5.179922056224104 1.0806362013503583 0.3977581436913601 -1.1506964485025537
Ni 4.501211267104745 4.425583784395435 9.545900119015494 0.33727474159432236 -0.2136154781697482 -0.9987715053640669
Ni 8.590296786912578 8.746294523869373 5.5997298091033505 0.3439051024266464 0.4298185145610146 -2.035191674318843
Ni 4.0250168226654495 6.729020406900126 8.881916690490693 -1.5317105399663555 -0.6402018589467103 -0.27543893923444823
Ni 2.3836050566867213 0.8180776353187896 12.9300079681851 0.16041138334294308 -0.5217534502991144 -0.4341785913019232
Ni 4.271640942650539 1.9085481435254406 3.7413477123022987 -0.7094326682190749 0.8334328599228356 0.983719753237267
Ni 3.1178081075305935 3.6269817853929807 11.583191117022066 -0.8522440790920677 -0.3860621954106706 -0.11726544408308835
Ni 3.578031245880987 4.757357624723539 0.3268044798982602 0.22686771519396412 -0.9594338841067089 0.6459940401484552
Ni 0.4755761411478583 6.586351967902651 3.4457492013429345 -1.4587423751387458 0.230038656722778 0.1873020370862
Ni 7.62817466669549 5.743404596336295 13.141973161384158 -1.9071283682893025 -0.8794977726016981 -2.0482521070472273
Ni 5.605359671565591 2.543905230493426 6.5395746635500265 -1.6864292437998956 -1.1749689478966734 -0.48194428872197653
P 0.18588453655876627 8.782383621028329 3.3581813096702047 0.001320775693952564 -0.20102427176829896 0.8579850953409031
P 8.179657169188559 6.053583689660795 9.693122352580765 1.4663165879415778 -0.10883171149343836 -0.8517735672135524
P 3.5989746644915344 8.84624132446592 9.086268680402457 -0.10806552275137517 0.6916054102296669 0.7254213303378475
P 0.8959627506693851 8.505899304995348 7.2136683599901525 -0.28996824319887476 0.12099328655663678 -0.12669470781678824
P 5.970406301775629 2.9663238011285036 8.713239149239769 0.6295502927701352 -0.1745946168218606 0.7320486058463779
P 4.431849380063856 -0.0050821961937114885 12.60903241872273 -0.07047650875400766 -0.2248774242368127 0.07964069175177896
P 5.179721153522584 4.461406846013564 12.217702394443013 -0.3455752910402177 -0.45988422359814346 0.23354589854508812
P 2.354405362671227 5.812500447836358 3.810064692497668 1.7183677443797052 -0.8037073078339448 0.35240774058101887
