# total energy = -340890.1903377927 ev
CRYSTAL
PRIMVEC
9.09359171382226 0.00000000000000 0.00000000000000

0.00000000000000 9.09359171382226 0.00000000000000

0.00000000000000 0.00000000000000 13.30939066751313

PRIMCOORD
 96 1
Ni 6.220744251780177 2.025452067266995 11.22864070540443 -0.35051617998526086 0.544690518711262 1.4715719228032462
Ni 4.778573347239302 0.43111354499549837 6.032521452076858 -0.02509782350889226 -1.4442251553591772 -0.9513297669423357
Ni 2.9361480013434615 1.609402057023388 4.739673689763802 -0.3691062842826224 -1.1537565754851162 0.03323510790404599
Ni 3.6363000053803622 4.338543535522264 5.175515902474955 -1.1744968933562612 0.33082975729992703 -0.8723935574567492
Ni 5.188157813740926 5.154475149858641 2.710763329550146 -0.06979645196784753 -0.6056104941250859 -1.3126924027237974
Ni 7.326488635535677 6.433406988700027 2.9182836403292205 0.30362491475036096 -0.740784443057479 -1.2312159433148604
Ni 5.121165323238552 4.591918282755557 11.532427597282494 -1.0316374028541524 -0.51489066174101 -0.3658438114812667
Ni 5.876460867713405 7.778722047395811 12.495628111467907 -0.7825738682894394 0.026081270468084113 0.2821919416875656
Ni 1.53822651431101 6.369960998984395 0.5234689722781329 1.2814771534632576 -0.17983426795424515 -1.7467414104263916
Ni 2.6901117826611958 1.5203030449503232 0.15697994649047722 0.04610785010165608 0.5757887827779633 0.8476027236653145
Ni 0.6649234295552663 -0.11449104834695938 4.522903377445564 0.37319665230191207 0.2947985747079826 -0.0010256130510369432
Ni 8.684325570086187 2.216708489181743 1.37529935880892 -0.9085440392353772 0.08630756224899329 0.015763947702476074
Ni 6.812727981821456 0.8243195433766083 4.656357292691478 0.8576855618226131 -0.9817996533964188 0.5872139938957693
Ni 0.6536901156530559 7.336546148023206 2.4702896609480076 -0.0902331225556446 0.7804545079535914 1.0899255970720843
Ni 7.6875769771765485 4.140557855704468 4.003464685035851 0.24048376331550195 -0.6466139331206412 -0.28501372740707687
Ni 7.648601842889433 3.7106128372502423 12.870473238724632 1.2788533426871653 -0.4400041968447648 -0.8841656103910128
Ni 8.060568830432407 -0.4362750676789717 7.0954886708300196 -1.4643088134829296 0.031639481282151966 -0.4977383183314396
Ni 6.748163480319235 0.637727224676014 0.34511271963536405 0.6592812441756646 0.7653929856347786 0.3160682827200363
Ni 1.9839307272868345 6.562044937749382 9.176079731739089 -0.07652811426472626 -0.16148456180246382 -0.5788720496889773
Ni 0.10995243669910607 4.617316684543685 1.5106156416474619 -0.5755481275220669 0.4049623747492832 1.123739974518368
Ni 6.537837796481929 1.8797818208495196 7.243928825297858 -0.4488871011566915 0.24446974454644346 -1.058114108988442
Ni 3.5777372744403197 4.165310612477573 0.7052689681207457 -0.23416707706885478 0.8174562819889212 -1.0109389939645363
Ni 5.837931319422572 5.621540209880763 4.8284344202233624 0.4613510379516571 0.2846591722811356 1.6213361108449882
Ni 5.15124692478353 2.892280514688995 9.16698886805574 1.1602918055004727 -0.8215075692401593 -0.10315034483794493
P -0.37059114503098695 5.653867928590678 12.755946725369805 0.7925098964562287 0.5260597909839521 0.04052161426313021
P 3.962932727839274 6.170393034200206 12.8489387040757 0.4777078820431257 -0.9745571129013926 -1.0024548677529252
P 2.3190023028998388 8.252207183201111 1.3717192117326629 -0.20377072416518457 1.4556799341633382 -0.5843682969168582
P 6.22305402408744 7.614691839213126 5.850035799415475 1.7492289527349358 0.9986966862620736 0.39453526587868826
P 4.778100480467737 1.085329270252333 12.7373394179087 0.029974949095535476 0.17067882670722218 -0.6951936418015575
P 4.085141507513689 6.149395930824342 8.155435907759395 -0.9758683755136485 -0.197759227863782 1.5443027748090694
P 4.78954931249468 1.0504553458493728 3.6208463555419295 -0.6681186399616365 -0.17296479452792146 0.17519959739571117
P 0.23967979804141346 5.649657595605392 3.6978145162059852 -0.518393532687946 -1.0658474730769578 -0.3251902996259625
Ni 1.4124712338498535 1.0975965255377549 2.338659920209325 0.8597658413904097 -0.7711856810571557 0.41847172208962763
Ni 1.7028841803251953 6.587506994679835 4.8787037954774854 1.8287089505391345 0.26463233553724747 -0.6125879538841836
Ni 6.008527100856609 5.5300041152157835 9.148768947603648 -0.1690772865480572 -0.7387226754324439 -0.217265930438142
Ni 8.406370844323245 2.304952703629285 10.239473439945836 1.2633195087176243 -0.24607334158813748 0.18943579559975116
Ni 2.359532441378064 5.369911432265559 7.007886463960796 0.12233437396556351 -0.6154627043288176 0.2615141016232399
Ni 0.6416529282391841 8.777225703515297 9.029410099587093 -0.2298998171520686 0.6543526965257956 0.8683340426753948
Ni 1.5744371967028192 1.1248591136368618 11.168389294474393 -0.2812393479663092 1.1036743141167444 -0.05705663580367593
Ni 4.155353129499414 6.933981934360978 1.5832852614861515 -0.27144215937022925 -0.16536255670063132 -0.21844452412727539
Ni 5.542626020579879 7.756551870682794 8.234360100011216 0.6795559352643006 1.0425584206420302 -0.5895133314529074
Ni 5.322242824255045 2.7064620606472514 5.002294801099554 0.15814829834037925 0.39337312724978707 0.0871611684985402
Ni 0.8723164300496888 7.348877058450954 6.9139623920994095 -0.023530736132088507 0.3282450272918863 0.8613522120409229
Ni 5.0720599277298195 4.554680024494769 7.023485611267402 -0.9300400043256241 -0.25805005433403944 0.908661538649848
Ni 8.070635436511695 7.013423551983992 9.188430648068708 0.3026730923600529 0.2368605647406179 -0.34539145716418584
Ni 4.47082801486773 0.22059416765368656 10.513713433474457 -0.16295806102419677 1.3781256926269427 -0.1835374278374452
Ni 8.308196427672826 7.268098682839091 4.942748143530984 -0.8723359647459363 -0.3856549326699229 0.6274777265118225
Ni 7.328334634663135 5.967224007078711 6.982478968580907 -0.16417573548138178 -0.15076023340642422 -0.1861255002795956
Ni 2.3863767242561704 5.152419998120682 2.6960962753990283 -0.3848046688544857 1.1691266301832832 0.3997258089406922
Ni 2.4200684817302167 5.611200796048647 11.267636754952596 1.0080871263380382 -0.9567820483061587 1.4528005557330141
Ni 1.3998402348939964 3.2864786239312167 4.008003296683705 -1.514529914422011 0.7604186723486388 -1.1423395918974262
Ni 3.9183741282109805 3.2027357374053076 2.9980999139327826 -0.08150474154371125 -1.3316684296056678 -0.2642713526534029
Ni 1.1770381431607693 3.3533256169654173 8.208286953714431 -0.6933619879094575 0.20238104290650955 -0.521636979325908
Ni 3.7293729170529297 2.3946609863503285 6.908238885445114 -0.3121355233245334 1.0785716055118457 0.9846638623180913
Ni 4.150206156562758 7.1453897556178285 6.252685492840255 -0.9340264997771979 -0.5873268653245498 -1.359956992137716
Ni 0.5874769459645882 7.117954389275265 11.326052169706113 -0.7238041064493986 0.8887159487658565 0.09199458533144156
P 0.224314356043061 5.5316136809574585 7.9837980007095615 0.5135300339480575 -0.06599070506851215 0.12585215731083485
P 8.488276825313458 1.388946111964467 8.168159661351213 0.35838375565879566 0.9940116220815783 0.1174708752256751
P 1.891494367037528 3.434804199142868 10.477831029745216 -0.9823182449040502 0.4343665389430132 0.6489538941077274
P 3.775195525935985 6.2996584410810605 4.10504192372319 0.15510128398393933 -0.28343944094142154 -0.7427469661004885
P 7.049479643315866 3.9988069473359302 10.392252147042788 -1.1207798634487796 -0.5822077989304295 0.08145691902491134
P 6.5219240109003955 7.944452757237778 10.35746097432485 -1.5560524591458298 -1.2648485437676409 0.11278195439043802
P 2.4186862557825637 8.604183745897585 5.771603570477918 0.4162364050012057 0.3431839079899057 0.4644129647064324
P 6.907055809157024 4.019522149367206 1.910736407203542 0.9932896563138893 1.625828085178071 -1.0014693639112042
Ni 5.639663738260189 3.027211229236876 0.4866908497604453 -1.3022922904363958 -0.9164239562040863 -0.9361725995859231
Ni 1.175892350598899 0.9528629190716497 6.906495643904554 0.4550996577253066 0.9036563721257728 0.04695142904887398
Ni 6.647097301488857 0.6757375288773003 9.300681944764966 0.3305214820308888 0.17583106033212298 -0.39146999668980326
Ni 2.661166880086327 1.8105977747327735 9.24820282671295 1.1324048492822174 -0.8596732816766034 -1.0989720235450686
Ni 6.369433570662264 2.159191521294201 2.635552050814291 0.3840145688530225 -1.2090664038010146 0.1964577354435391
Ni 4.35634878819006 6.984214935248058 10.308762062367832 -0.20831154945833155 -0.8921833384891666 0.702328453074126
Ni 8.39655885881326 7.644164170110125 0.553764273229492 -1.8993926902079417 -1.4005084311975173 -0.25114767078725136
Ni 7.8023108244235235 3.8234188430439113 8.344495317904716 -0.2498351226234149 -0.2068251947207922 -1.0580809417576618
Ni 3.3007555629957923 8.356019626743274 12.499700221858426 -0.12808464618577942 -0.49237988223300366 1.2563500193783266
Ni 9.31402042515982 5.054572950773655 10.160016363216828 -0.28541919037561164 -1.5366504004701342 0.14937929389849755
Ni 8.442908896018446 2.4162491731906486 5.800339320442286 0.861728107323103 -0.19398690530554333 0.12930154931201604
Ni 3.6976999369497987 2.5976390480448464 11.432140739266023 0.23715315628037223 0.2299656373929975 0.2145696145529014
Ni 1.26401834835355 3.967688676330212 12.734558597548224 -0.31344987126058277 -0.8348256265053042 -0.5080273589622735
Ni 2.9269270992979335 8.609139753407263 8.250637629263183 0.9500447295823251 -0.3171507171509377 -0.5629013852923338
Ni 5.44642491334157 7.903522500722075 3.720693083717174 -0.3020575702632411 0.3788502510432637 0.3981654064321078
Ni 2.996165706965245 8.512002006217584 3.4837459099999037 0.47485781418884027 -0.26291766683898593 0.18884444187265542
Ni 3.414416366414984 4.271942069465608 9.211043682700481 -0.16508127801478667 1.2668915423395986 -0.19377736039789853
Ni 7.045851300203277 5.9407707486463215 11.258360381997326 1.303278565609065 0.8613558115853488 1.1546932283667726
Ni 0.7714303043361763 9.061964248731853 12.948014295669623 1.0575849759578495 -0.6476524016874846 1.5363549807169024
Ni 4.640014289578832 0.21095496038715777 1.5022704524885058 -0.9051378417673057 0.7670009535518468 0.35150065538571723
Ni 6.143685155198512 5.488928361231906 0.19397085905536934 -0.3136211067311244 0.7729746546367785 1.708324244100774
Ni 7.827218172256562 9.148244247359047 11.511345014144077 1.1739983564532877 0.1261527192703892 0.008996032851023216
Ni 0.27592776415944203 4.757157938642438 5.798555157738802 -0.40700280221807966 0.038153114030953644 0.5605549965473443
Ni 7.883007357709538 9.01856053525719 2.615427932247472 1.0883492537239 0.5790034330605189 0.46678275049018964
P 8.91061050746383 1.6687377432631052 3.743133340105488 -1.55324584293497 0.19060770442066527 -0.19862697518071598
P 1.9817027973054198 3.1537758393647506 1.8366563712827404 0.16344888461768625 -0.22370602963653086 -1.6507693285044407
P 4.672005545393595 0.8305204635983497 8.116785414698143 0.42227926876117594 1.1324691268612497 1.9752155508755274
P 8.929579739877017 1.8132167291599057 12.457283163089821 -0.6299436715538119 0.5753912902292283 0.14628754234705127
P 6.343007593005157 7.947653701537607 1.677528518418344 0.015643620074527898 -0.8613545260337682 -1.6372607524950449
P 1.8533922175594568 3.1428908100269815 6.04661560994704 0.20988429326209015 -0.0031148914798978613 1.4333193070799508
P 6.789393825363047 3.8577744327165018 6.115718723097114 1.6885588885483886 0.4790687669463943 -0.2911100701128019
P 2.378347082731317 8.294128641218752 10.544218796395494 -0.28127560052088335 -0.3508499091755958 -1.1430065360574637
