# total energy = -340853.00180765014 ev
CRYSTAL
PRIMVEC
9.41100246486273 0.00000000000000 0.00000000000000
0.00000000000000 9.41100246486273 0.00000000000000
0.00000000000000 0.00000000000000 13.77395338602814
PRIMCOORD
 96 1
Ni 4.965781243151026 1.0914504033030612 0.3758980184597865 0.7395652259383972 -2.7175182303497456 -1.2046680176230027
Ni 6.5782623780577865 6.209878103838164 11.869525018121251 -0.4200948595153475 3.609142096791017 -1.873455658627206
Ni 9.114169881117467 6.882275396512485 12.174287152359414 -3.2917820918427503 -0.3356418339765897 -0.8164463526671681
Ni 6.529833360197216 6.463692835998986 6.0136944675915585 -1.026108245505807 -0.008223673461372934 -0.2770543633506841
Ni 4.173421904097245 2.627147170404848 12.32361058482966 0.6350383124678999 1.1394967231319921 -0.352479988579851
Ni 6.385901490947397 4.910049287501919 10.13521939947891 -0.4265107903440203 0.648782915747502 -1.4641164949664656
Ni 4.4882952192116985 1.019268015625141 6.3530702683068245 -0.5010627547189823 0.011792621759553883 -2.07499826479282
Ni 3.3379978184966377 6.16668160325907 9.653833456184467 0.10387102505405336 -1.9022083052798655 2.0954896998779526
Ni 4.654117079822514 3.1038144371436567 0.7457617022417264 -0.587985067733839 2.884265583213046 1.885015081330031
Ni 5.695322141820175 6.309474741230006 1.0422628586567224 0.8391923881144321 -0.8919362554753671 -0.025054628975782655
Ni 3.2254516419333723 9.145866136880079 1.5078900785917542 -0.7237575694821794 -0.2608695260607055 0.8550447817656565
Ni 1.7061770738534852 1.7945463854956847 10.590186777103279 -0.6763610824760868 -1.363300454688652 -0.6519435728636708
Ni 5.2238779813605385 3.8742555518295263 4.8681693861452695 -1.6716644267858953 0.9256439321404574 -0.6877850080423122
Ni 2.5815038092265024 3.3779098792713524 4.425006228711827 -0.873046874770032 0.03837140068934682 1.196752619430668
Ni 6.429512075627903 0.08834390193597663 10.452763557047469 -0.6687629584138547 -0.17697520123889518 -0.7682481956953865
Ni 2.461758215900054 2.1512986608665585 8.1118388463403 0.20509458518293067 -0.9349096737130995 0.7673598795531622
Ni 4.387456329515621 5.092632143217608 2.4314331431732534 -1.1735512416135403 -0.005664140264312825 1.2348113739756026
Ni 0.6868083605036827 4.775716640603011 0.02549158194304858 -1.5564453237088742 0.7595563243483434 0.12563258510086106
Ni 5.03675902253393 8.127172192395532 3.5985696503123172 -1.501263536330408 -0.8064982403155208 0.23855337906200852
Ni 1.3668257417442118 0.6849289833434113 3.395321174635488 -0.37703762331455715 -0.5258685009087525 1.5197366554339309
Ni 7.457306459341205 4.512415618118936 4.302128653818337 -2.306258709737841 0.9630966776702768 -0.7471594933458874
Ni 3.653040531652578 1.5036146602446774 3.6237619623820723 1.673607409444879 -1.1176451744745397 -0.2826411134098422
Ni 4.354997782566319 7.422203420744251 6.349544906843441 0.1322205227310239 1.0384559684378825 0.2939364838180034
Ni 6.476256524075913 7.9270189953767565 13.401119529318372 -0.22329259624819608 1.9834060571061194 -0.9226735366582238
P 0.9224043333026166 8.58491393349936 1.7832315374246075 0.7583929001678615 -0.8629318978232171 -0.0016704457238874456
P 4.065383597637985 4.552722940990452 11.076104118007489 3.9136365586305244 0.42304108662786494 0.08645102980539304
P 8.606305141738202 1.1950843606836685 1.7043889834155705 2.1010587093252977 1.1068272579234293 -1.9933485130308122
P 3.010109087194628 3.326083489578744 2.39709521906368 0.1793367594925363 -0.7883683634840294 -1.8659493229478314
P 8.675099568586388 8.96842168842282 10.792208999179792 1.724293880056153 0.8720675415758982 0.5582086078023547
P 8.848892548149381 4.882945600864057 2.189783072591633 -2.0426866971443083 1.657902340004796 0.5067124968055918
P 7.13046234929503 4.479702974107404 6.494377409013831 0.712456028426431 -0.7873898016208439 0.026601147527296122
P 3.249901425921278 3.284731545451393 6.513385751469094 0.45633712967683343 0.46296106275125426 -0.24316773790556828
Ni 8.12353013450357 1.9734871833194103 3.5357182714196194 -0.2853865373654633 0.26808892662728023 1.5464411613083109
Ni 4.821830551896597 7.638948214826413 10.469926401950758 0.719580041065722 0.6995030678101889 -0.1680987246848718
Ni 8.231248466884466 6.4837006268990205 0.8117638847060755 -0.2599138470156556 -0.9338506363209659 -0.35027758161189354
Ni 4.981939934108391 2.847844585455032 7.79564422650225 -2.093575256464059 1.3979848934447148 -1.670497660171304
Ni 2.6010316390089905 3.727434504872129 9.994724428270809 -1.1297291022222673 0.7360464141518615 -1.4110903204784215
Ni 1.1895412803261334 5.649245874535808 8.49711022309568 -2.0773407968830675 -1.2866599832157777 0.16934313861493416
Ni 1.3973738552256367 8.27241219096572 10.737760704245062 -1.091344846017114 -1.0436843067163575 1.3044049659040244
Ni 4.924946904150439 0.7636294312176455 8.50919018565414 -0.19362977907644072 -3.0545304623113005 1.3052266904743715
Ni 0.9261950850309955 5.6214834177366075 10.839398588036817 -3.5213150125737034 0.5738951652996761 -3.9455642605770564
Ni 1.8931831006524362 5.587227369347087 4.5323744718069845 -0.04898902830419305 0.7437617805182482 -0.05532911158960794
Ni 8.701252743991466 2.4842599224108635 6.461636531995384 -0.10620481539355257 0.45848811458156524 1.2387577602178603
Ni 9.34675339207863 6.933141863970002 3.007914441457145 0.6008791500876877 -1.5476853181280572 0.7107845542612791
Ni 6.513919355299777 3.826955854245533 2.2473586435922517 0.28796741071876214 -0.44387113599933875 -0.13020657762478866
Ni 3.2241811566222225 5.6323154813894485 7.44859563560787 0.8426975730542133 -1.794469312629974 -1.810912802897978
Ni 2.3665847495914742 7.562916727205824 8.265101724375342 1.8224999935149453 1.9107052870072838 -0.7246757104210746
Ni 1.0344950173543292 7.882617886502646 13.369687722720524 4.333479964256698 0.7980205418618127 1.3085958640569206
Ni 8.346759109173748 8.840337947054307 3.0830236508518625 1.0910339996449148 1.6659699475042793 0.8371840994351517
Ni 3.9414312862812855 1.0390405314675544 10.779426975849393 0.08331402683830813 -2.3623612091583635 0.5187324040846034
Ni 1.5772181092706243 5.534704565483922 2.235816049265398 1.2531978469025902 -0.5800645273351817 -0.06428812055510863
Ni 1.656091719587267 1.4553362184209837 1.3607895248659043 -0.2925383179188962 -0.7275124085389213 -1.640168670170459
Ni 6.72380352870173 0.02520548747298225 1.6747885578662403 0.1293902523710804 1.588142654812155 -0.12636200706771786
Ni 0.7980445255461184 8.31833788221321 5.125398429942278 -0.3599109909365995 0.3135290612379503 -0.7909052709732702
Ni 5.002465330135189 5.23565114524386 13.029237185542048 -2.5190054121493906 -1.523399963218131 -0.09103813495544322
Ni 8.192738645453169 1.7421741576693972 10.753780112368315 -0.714559447922679 0.28753135162260807 -1.946914389937989
P 2.6121366217286703 -0.034212757778919335 9.539964092697145 0.960279519936456 0.9458378905898291 -2.3194381845425927
P 8.382982057044975 1.160376584183516 8.306120519021102 -0.023681659887655988 0.6423219906135067 -0.08273578573733494
P 5.993396817820537 1.6198875937206494 2.9964273720438896 -1.5371743912944043 2.340826677520697 -0.9426183552112668
P 8.526546897204907 4.868415013305424 9.55489464785373 0.1826244291048726 1.0194472885458636 -0.37032421585012354
P 5.152815502956892 8.254870082669548 1.435039509750192 -2.7550167415158358 -1.0333240465279558 -1.1638550973716988
P 7.464054147993758 7.860596141109382 4.767592122313266 1.4591056720154354 -0.8610778753336138 0.5239000643284719
P 7.447255508879665 4.977912025121931 13.063037741420017 1.6115566628607214 -2.159884006993622 2.394345475374444
P 4.19134045248561 5.869660959516847 4.7876742601315065 -0.45161349894891895 0.22848159664830328 -0.6344215048195074
Ni 6.440974676435166 0.207902216316559 4.469702843058309 -0.41628808417474755 2.4538423451884968 0.32665917086200513
Ni 8.979394917110232 5.9812848578542415 5.475118804390995 -0.5122169715635888 0.48309485738665187 -0.15516041935664893
Ni 2.6894009506511902 7.360570766650027 3.4927852789050595 0.32803548238424146 1.6113954546925084 -0.6778821471063036
Ni 5.218579587062929 2.630422199206923 9.860690110144962 0.3690008690530096 1.2581698461958848 2.7688310216911085
Ni 6.366684224240967 2.4507379322011174 6.178664632493788 1.67226580781532 -1.5725255171001886 -1.2148529285758047
Ni 7.777299359709477 7.352994909794652 10.036239182738033 -0.9864597778762495 -2.1995640991920635 -1.087706477933578
Ni 2.116986146463208 2.957078089207003 13.512207000524391 0.465491799592908 1.5286473276599997 -0.013345568068970564
Ni 6.62859241838393 3.41135658146266 11.757983936604141 -0.06097422569052724 -1.2160119818809123 1.2946895383884736
Ni 6.74042335877203 6.675270989815806 3.0433139266267015 1.0157094187699862 -0.917643173323168 0.40454739869905165
Ni 7.4806363340548385 2.3150689229749246 13.91706455527655 -0.30772839539577324 -0.32363246822053937 -0.15760785245587697
Ni 0.2893930263741704 3.122777606787856 8.790592329971291 0.20103866994600217 -0.25700001580297027 0.17332809140461117
Ni 5.536520888928751 5.0228495611274155 7.905478152201269 -0.10789994370778837 1.9932161012180059 0.03830326645557274
Ni 2.3890958671045883 5.2678461841286275 12.155940403366179 4.123881320555826 0.37926496998317905 3.440203906923985
Ni 7.239921717102316 3.3264222856617174 8.536352220506291 0.9875517253888475 -1.0106533444033177 -0.5503577442993682
Ni 0.2994477412366332 1.5543305516653179 12.324244886385005 0.36962564712120216 -0.3748344450156512 2.763997090637575
Ni 0.6574385045108204 3.3113552709717107 2.261201286882402 0.8117016388933311 -1.9445559170081415 0.06124804817720419
Ni 1.3548831798194034 4.484530818289773 6.303677563810241 -0.13341042927406702 -1.4223160139909117 2.509587204159285
Ni 3.683532179120174 8.311721947592927 13.079401592227626 -0.1564058617279758 0.06283339038645308 -0.49177515876946915
Ni -0.09676863119924577 3.689743440641351 4.585734854875278 3.846235346367731 -0.6729155471296475 -0.2494687404229316
Ni 2.222718757357789 0.29576615713499016 6.578922089319355 -0.7744458398656662 -0.23630932022283818 -0.4468091355817402
Ni 0.6917914862240814 8.971734361234112 8.282484786732562 -2.466986338769622 1.473176805396521 0.549877205118524
Ni 6.776053413498055 -0.05598511161110558 6.653769672849998 0.31793644627702666 -0.6786619626951215 2.2539115635946927
Ni 8.192832755476216 6.9472395454226135 7.663262480381129 -0.05191262970889124 0.11871837447953101 0.5352548272196588
Ni 8.613880998593576 8.774131545839943 0.35630431166116455 -0.7174133724317064 1.7254807012754025 -0.1696383012578498
P 6.907412183668642 0.72084136813858 12.380152827777211 -0.22729066166399564 0.8622230446816505 1.834808378568653
P 0.8330515719195639 7.068942627228463 6.816136754514716 0.04793898977312389 -0.2227963733380679 1.1403282178943523
P 5.747675547641853 7.680921285105882 8.42602327608604 0.7667042482470344 0.20830666436232514 -0.04535400265476705
P 3.453404939760567 9.015128492861608 4.912577082720993 -0.4501320293073861 0.08282526012734769 -0.2984559689549118
P 0.915570063428861 3.707059684882208 11.73812201623983 -0.579551335144189 -1.7604847281544131 0.13072388358083936
P 0.4189721760089183 1.2508163163327746 5.2452870705037595 0.6119657469191525 -0.45953712467136987 -0.14155568408902072
P 2.7838968247938234 5.58480874175475 0.5239415546165787 1.092162456822403 0.3495468740934561 -0.9320583203072335
P 2.6283800117067786 1.0073819197141614 12.882241093941781 0.8787650082007317 -1.6263680168419408 -0.14970890932377443
