# total energy = -340860.15504004847 ev
CRYSTAL
PRIMVEC
9.37025970120795 0.00000000000000 0.00000000000000
0.00000000000000 9.37025970120795 0.00000000000000
0.00000000000000 0.00000000000000 13.71432223308701
PRIMCOORD
 96 1
Ni 7.452177063312339 -0.49862900995610815 8.382317785661627 2.0401621309502413 3.076733994991533 -0.2863609854635907
Ni 0.5933688966581644 3.699978302463801 4.801562921974795 -0.3715652873460762 0.7831089148573029 0.4859636942940147
Ni 5.302592592515537 1.4648995804015517 1.886981063238228 0.41582914226045803 0.6261731487677861 -0.935864324316885
Ni 3.1270806125942845 5.3565559192404075 0.7943815859388128 0.017734955385917843 0.14371618207544926 -1.6585790543568468
Ni 2.7148360285934765 0.6069248516456396 4.770815351161287 0.6802251934171832 0.33039395531408905 -0.24764145740620577
Ni 4.751508867677362 5.1611297789080774 3.7776511977964042 0.0269076230241214 1.2818731033500956 0.5949830963182269
Ni 2.847565759980485 1.4957745867496062 1.7166494159258454 -0.74341365315021 1.0056026693532876 0.1856056232203836
Ni 3.2939087197326042 7.346864712372798 4.302183354201241 -0.09670047544754314 0.7490546534860713 -0.8187217789649059
Ni 1.2233342803551641 1.082508644420441 10.384663614652808 1.1369947826457452 1.0555687168587693 0.9604983208154813
Ni 7.130533522218766 2.740613613559637 2.1379391118015474 -1.0450786159607226 2.1384926858020394 -1.0968390363624656
Ni 0.932162824434239 8.127351139916003 4.9554647555904605 0.06664196549926588 0.7607752843571091 0.20532701290871092
Ni 0.5701222188891543 3.2094170862757276 11.36334509432678 2.268839902769751 0.09715916025151654 0.7988497226313275
Ni 8.391423804225827 6.503578803025447 5.625656665008917 0.10677534318504191 -1.338447400200714 0.3354762549330029
Ni 0.13466469005495188 7.868366526728178 1.725453712121485 0.6890805869252842 0.2239232878536595 0.11465474593311867
Ni 4.914935570474455 3.1512465128588163 11.806441259025908 -1.0427024024190623 -2.0107391977034337 -2.4886039170393977
Ni 1.5297511491223061 5.974749445433594 5.100878070768889 0.18628953666128562 -1.4062072813545072 1.0105384160920081
Ni 5.841279463515024 1.1601599881552904 10.730977175993166 0.5387432999888916 -1.1399271258011916 0.24744553934531577
Ni 2.5675355430725606 4.759164370010097 2.8530867171095515 -1.150910878506205 -0.9111295405743662 2.495070755710664
Ni 5.800350168301579 9.139142432922553 13.295953701088898 -1.7362837054281774 1.670184756916575 -0.8707753051270357
Ni 1.9591620492474342 6.490591622813489 8.971155224635446 -0.001620823432874628 2.2578042137808794 0.650602485454744
Ni 3.0575532841868287 3.954221564145672 5.758259897887368 0.7090536876131014 0.14200305603908447 -1.8297417626790229
Ni 6.674904634912498 4.9763014025149435 7.576230871064244 -0.6132520698307439 0.7772408861123001 1.3198251571138366
Ni 0.1681783615889282 7.156798360699372 13.093516732304485 1.9747260128336186 0.9818919559999089 0.6862911971056053
Ni 8.16643449393049 2.6276457602873617 12.792774492928658 -0.30163539512415793 -0.3148693773159287 0.8489155289394671
P 5.341797759908636 6.2362452882727935 6.19417001027441 0.05355222219484325 -0.7995210376667392 -1.749421528361716
P 2.668312688223798 2.5494790522583872 11.095174815365661 1.363643954071 0.5622269849331284 0.2693567375961103
P 0.5472250518141599 4.9918372934178485 13.331459489876165 0.9535892524004738 -0.8269757914435821 -0.7032000570458019
P 2.4918332133954944 1.680340595865731 6.780086739239523 -0.9436858772438328 -0.3158541098267012 -0.1756053174745621
P 2.0909734951649104 6.8565564932018415 2.357656713880978 0.23425552301760302 -0.39554596653138974 0.5515530501590501
P 6.115575081368317 2.1826802287395415 13.286092439577306 -0.19489630449369016 -0.49090381190810944 0.9115635427879915
P 7.62450551300796 6.6697791027509234 8.57548381930772 2.057035252556496 -0.6837229221577967 0.836492729795082
P 6.9168634858744 6.74742107622588 0.5147065018808402 -0.4948969922279025 -0.9514948317652904 -0.386260941685038
Ni 6.103215708569202 4.213674690328155 5.4906527715458315 -0.7291391455090669 -0.4945411515503805 -0.8877828954286259
Ni 4.498305704843635 2.8891322328666673 3.973121378350232 -0.6573017518517905 -0.7760507224589409 -2.463116828511887
Ni 2.8771945217627457 7.649374182764481 13.22894509854073 -1.6804403732063125 -0.39562052852306706 0.6202488128635512
Ni 9.021836149319732 6.170100623686778 10.456649699256236 1.712009406261845 0.39447921582977225 -3.433190194610313
Ni 9.24767815326535 6.0823293992672856 3.114838368043834 1.1806158617698053 -1.3783090122823423 1.2534978946415123
Ni 9.026961681481305 2.2311525831670034 3.047775417988287 0.760373163822684 1.0294776761986721 2.517873098317161
Ni 0.1514749363033312 7.60860418196922 7.608130046818625 0.04818967233134927 -0.42536459255471903 0.5069485240757979
Ni 2.0220833444301918 1.9663958898849756 13.053031587409976 -1.003486394341233 -0.11879345069184057 0.8288267286093918
Ni 4.594182204070735 6.8006160416395085 1.951369741120259 -0.3664505918273302 -0.5509233869948512 0.07835282617829087
Ni 0.30011724304095166 2.1102200089855185 8.04487598638814 1.1055450487768959 -1.420486931201973 -1.0327131524168343
Ni 7.985972658647581 6.045897828802571 12.221600930879486 -4.221620007459897 -2.3334890062087035 2.2588480816643615
Ni 5.929491090149496 4.555895322147168 13.468397404981204 0.3404186865399428 0.8336570601184996 0.7033329830792403
Ni 1.3898344283972224 4.556176429943965 9.518891892639775 -0.6430334148582345 -1.1155558960456788 1.9344951903380299
Ni 3.981086099259442 9.346806132675386 6.927885722586756 -1.8671855093477778 -1.068396978971689 1.561697316136433
Ni 3.6414141781313756 6.050957769144892 7.467860067295567 0.4310904392949027 -0.4731827404792625 -0.4461223939273607
Ni 7.910804433784428 8.054553590805824 3.9160696139645674 0.28983197473132666 0.7196224642678832 -1.458260807516637
Ni 3.693372269239103 4.468095986947997 9.395229761751404 2.47495135925297 0.5156882179416409 2.187108904147846
Ni 3.5875820350450103 7.6603842381389775 10.704687037810848 0.09746614996897407 -2.2679703556806037 1.420475104127431
Ni 1.9985452515785036 8.982687203485993 8.489906172729224 0.5039313345160288 0.9217229998194963 0.6403255290087682
Ni 8.281060883203859 8.901924933466605 6.000440824008738 -1.2694600743977233 1.1626780463444621 0.562323915522309
Ni 5.8358540830368675 6.321439691221658 9.775898443964147 -1.042679776711243 -0.7887946523881706 1.1392013033787607
Ni 8.046101616382169 3.3899070323383156 6.510037723169821 1.3530741489749536 -0.5949437584398594 -0.4907284626725097
Ni 9.127954342610087 1.4153496460863733 1.0076187162761143 0.003365316927807107 -0.4717349522891424 -1.362302609551757
Ni 5.899871698627129 7.546245102380053 7.742009509094527 -3.3668426204230144 0.1610652148768581 -0.9997346406082848
P 7.822827063647284 4.267319428216657 4.124034099059972 0.3711953056011672 -0.3604136416046309 -0.7891425226458925
P 8.072778746298075 3.8252867880154047 10.953026098734021 -2.8780676819324498 2.145621583537337 -0.6124897377434225
P 7.649008742628647 0.520246199529693 2.642997057070372 0.504655100055931 0.7069883204436405 0.08551540536500112
P 4.636423335669227 3.1717486415051113 7.736070638374224 0.23177312291538146 1.8166162810406585 0.2441496422028634
P 7.260058624722304 1.4299766217796397 6.977257621963965 0.31438343881844566 -1.0024502397672348 -0.8733883172698507
P 4.595231673178772 4.011614405991448 2.0085451929365137 0.17168438515360107 -0.4531841858701485 -1.0699550674874283
P 1.6622466240119849 7.108054268735008 11.34939746247577 -1.4929545022440804 -0.42719856043966425 0.03699200384331694
P 0.03755412759991901 9.202691535518154 9.417241439266492 -2.1052688907519035 -1.4495015732667682 -1.3641574033723087
Ni 0.5539079211699817 1.1490093788823965 5.604550154599511 0.016791103415409788 0.9825882107359853 -0.08282320324481865
Ni 7.017781184924035 1.8276504516465402 4.503659871346603 0.04599883532761756 0.1569869310424264 0.5617343615674262
Ni 8.359414996430697 1.8624047455903745 9.996286956651929 -1.2800028829105763 -1.361246914593733 0.5859852636949909
Ni 7.258456310280568 8.182007865872968 10.519996404238144 0.6870221617343587 0.22055102894731693 1.4266542363549495
Ni 6.973581669007866 6.020644978390429 2.596820416316741 -0.738536784673883 -0.2967814094659663 0.39784967496390194
Ni 1.3819634100869445 9.106637001353084 12.334140563274643 -0.6325798236250784 0.5684179442351889 -1.5410151051967331
Ni 2.415849775921633 3.652189977008542 7.827106461340504 -1.3071097664296973 -1.5326459072964316 -1.2895290772334567
Ni 6.214768652597606 8.495883461515088 1.960202148095578 -0.3638846308723669 -0.7538160794304566 1.5406260972884305
Ni 4.046031370579128 2.8246273637619606 0.11985780537173613 -0.0323187667373637 0.6784182221154317 1.877382761595754
Ni 5.498777723899216 1.3497859376137367 8.292694060861251 0.9326537877993873 -2.1606959613719563 0.13213927587112725
Ni 4.090118443376578 8.947961020321838 1.1675287605352933 -1.8079346941062606 -0.5929874060444368 -0.7313958027537275
Ni 5.717048557851137 7.244344698881427 4.339499477199873 0.17453933810389297 0.24615818799245992 0.029085861622362815
Ni 3.3371899501792397 1.597479387630269 9.30629193997521 0.6328934982107552 -0.05772563684624251 -0.44527033033971053
Ni 2.6497220925957126 4.462202093475182 12.277596666975189 -0.031999949945364245 0.18896065573554552 -0.42291381702138137
Ni 8.720301185956941 3.9753046489053445 8.888046641538805 -1.6590444240290394 1.554895205612935 -0.5382331931216925
Ni 1.096451591141505 3.608262198629276 1.252044756667892 0.14017757279457146 -0.5154071963661123 -0.00992137287877001
Ni 4.737706474854696 1.9393533198332347 5.868989196071159 0.18936200493902225 0.5016427955921683 1.7269508580630257
Ni 4.905049946287141 7.056967611797347 13.008501301319578 1.9080796764589787 -2.063168619147744 -0.429031499883345
Ni 7.815068488455725 8.763038941329771 0.37685592346220437 2.3186239161714135 -0.23408942975338395 -0.05019950367252645
Ni 8.25235040689113 4.7728355791942585 0.9325479421158491 -0.33400095593905704 0.22724721002056994 -0.09028942971487676
Ni 6.181101308801381 3.1943590786273743 9.534869122783649 0.41232267176909637 1.638050338275876 0.2202808060050658
Ni 1.182873498136378 0.38471194935665326 2.9231397170970146 -0.4610296500564964 -1.0384459411355536 0.757001933357606
Ni 3.8283883440400497 0.3284135538664009 11.769521498020758 -0.5356770023587419 0.9542873069087631 0.3293562580781941
Ni 5.759364651528775 9.250854671369142 5.594181962027697 1.43404127284764 -0.3408478036575614 -0.7647640938015281
P 1.396253056424056 0.04543076806613287 0.6760052186561898 1.1263329320565247 -0.08219868228694231 0.32912357324209773
P 0.42493753805212015 4.793946774733611 6.929902202515771 0.5212991363705152 -0.013070460030712973 -0.30776670483287644
P 2.3496207789965795 7.686939554676271 6.865019711937369 -0.40308109856617036 -0.7674730080922589 -1.7910893404141477
P 4.7495692238794724 5.116780338833618 11.375522684083966 0.16132078253108992 2.6380482598478756 0.23020372154573254
P 4.312109270506096 8.69352098318221 9.20202249896178 1.6634356111181996 2.4753452522572785 -2.4276605445868067
P 7.530643619657895 0.44173466593664906 12.244009907414046 0.4441830108128028 0.4985047641838189 -1.4959071571145013
P 4.239527237373461 0.2853609577611591 3.248538858355777 -0.03195521275035787 -0.9659166636175752 0.9962073441813165
P 1.7321581330750608 2.4592434494869866 3.4941895917155947 1.456017777118731 0.1271150831836585 -0.2812992546699672
