# total energy = -340857.02055897226 ev
CRYSTAL
PRIMVEC
9.41621055191084 0.00000000000000 0.00000000000000
0.00000000000000 9.41621055191084 0.00000000000000
0.00000000000000 0.00000000000000 13.78157594787081
PRIMCOORD
 96 1
Ni 4.173641127347961 2.3426778344805386 7.523458942568046 0.2214555430394573 -0.4829958699149424 1.0933706181978913
Ni 2.980720255717561 4.624357457556511 12.629767242072854 0.011693891398160506 -0.17908350583114965 -1.1862712602833698
Ni 3.286285701578875 8.068562424875735 0.30717467623010664 2.037280695637388 -0.6005845016654044 2.1632855764760035
Ni 6.775857970927615 0.41386128244111 2.3052992454111396 0.923163588920765 -0.005510388295267929 -1.5224501977103522
Ni 5.794566429540752 7.52178191548389 9.073155320683984 -3.6436213615148088 -0.20384785726002314 -1.5811574817435738
Ni 8.399495141734873 0.9438150237286079 11.507312581471487 0.21725127515012263 -0.9283358771503238 -0.20630943142663824
Ni 1.2426290466851557 6.395989208272008 13.617134122452958 -0.7123161604144571 -2.626852134021741 -0.8316773106843095
Ni 1.9355868073651283 3.2094588403794524 6.411202979523375 -2.281192767908149 1.624031141178648 -0.3532153240839788
Ni 5.579603760791933 2.488346610403454 12.321680135048505 -1.1261832938525378 1.4609792348890644 -0.8361957673799534
Ni 0.9381125666698544 1.6023565351520677 1.5321257293847077 -0.6814690931266134 -1.3676862424611733 -0.04939140594893429
Ni 0.8750456138257103 3.9580099076559923 1.2682081824184848 -0.7173053860989325 1.3277564961457715 -0.2543633495110716
Ni 6.303173621699792 0.44398750620890415 8.207272621263613 0.9221806561822055 -2.160528582556157 2.761945093204553
Ni 3.756851403451646 8.29203734788663 10.16068713990572 0.8272637549976463 0.5408014680695009 -1.1499163758034197
Ni 9.03056956722639 7.135886778129468 4.899157318959327 -0.30295128572210406 0.43844893654250294 -0.42662366177280076
Ni 4.593020309122673 0.8737235778761578 2.4073521344513824 -1.0915595331310812 -1.0712092516095033 4.591627720510866
Ni 4.220976417365058 8.906332086326136 6.7318032886371855 0.27938943924176396 -0.8480169283845976 -0.059175481918891625
Ni 5.486665763483647 4.0729724212463525 6.017145870936245 0.14421471897842258 -0.7372939134057174 1.2064785884691804
Ni 2.90516458293117 2.979072418885854 0.545299339485402 0.3742652027757425 -0.266418995124025 0.37078058666125174
Ni 7.129399009117774 2.349852986856315 9.997113439779998 -0.342190690838701 0.06360729243800013 -0.7741565907600215
Ni 8.757122815267666 4.1850724068547756 4.8666327863856145 -0.37645166890410003 0.39586349777180857 1.2209459288474198
Ni 3.9959949006794595 6.9380145313780694 2.741320637565048 0.13393416298802094 0.6003266200183275 0.16340877540837018
Ni 7.9497769298358145 3.0191478106329726 12.537416816297702 0.0028030166664338822 0.6329629179961098 -0.7356548351403975
Ni 2.5806443053999897 9.046699535756188 2.2662144390051386 -0.010151743722021225 2.1812053941792175 0.893863554405067
Ni 5.316364180979327 3.0664454358082023 2.2847926222563286 -0.5585935019455993 0.2736517654270384 -1.3162793487441071
P 2.760823492684087 1.7374509067206563 9.369624707234275 -0.2776153780604767 -0.595790936931503 -0.4532116966739744
P 5.403181641484129 8.031688544687363 0.9975260298528421 0.5338579468721322 0.11353605894764317 0.801342150035878
P 6.240649984199588 6.31149755175253 7.314075378520863 0.7464773796771983 -0.3718715057325854 1.350873541779209
P 0.23597305916360914 7.905134676012251 7.1765214927783205 -0.6051834338899964 -1.183518637238897 0.6818069360820065
P 7.747686220795245 6.6115733469116424 10.822864250190449 -0.7140459986213703 0.4115706240944202 1.058463264797745
P 6.2891811329459815 2.503798611779634 7.683311356317248 1.8355326583291873 3.493824263352602 2.746948362685405
P -0.22014535098979995 2.0810201780263715 5.31079920059339 0.3290029885038334 0.5795281952157374 -0.3504431606554803
P 9.474685133897646 9.103780603606525 3.0299623283542054 -1.4876153494193542 -1.3248627195377443 -0.8084299101205947
Ni 5.982269168987901 1.2064613822817996 6.2594400321862835 -0.7102001425127188 -1.0817366335033887 -4.346533455006546
Ni 9.000174039839244 5.038576555995363 11.814228311913753 0.9162480927478543 0.4658201294666043 0.11142055526653714
Ni 6.767166808666667 8.190351691054596 5.949506406289375 -0.17072690633633822 -1.920267733884738 3.134206892397022
Ni 2.6434127643723335 1.1670357090568968 6.41116154819732 -0.6749066094177473 -2.2441922794243996 0.18090616086218522
Ni 1.2651432059115093 0.3993556102168533 10.471681972722248 -0.713041468616256 0.2565297610347711 0.10419267005953023
Ni 4.321711036939935 4.616523170448051 3.8686679611250154 -0.8106464581559395 1.02503480993597 -0.25055426017762655
Ni 1.9635058713994815 8.905701200224852 8.411530000332615 0.5667464700700369 -0.7777471363247573 -1.116361679776426
Ni 0.17154169742281147 6.743164888186544 9.739205318333749 2.583235168662738 -1.6343176107063209 -1.5920296485713872
Ni 1.0057360237589306 0.6663419001742384 12.98727438811167 -0.9568632951660554 0.8016650805929355 0.530228320539345
Ni 3.063884226561206 1.6978463254968825 11.771505081783342 -0.4577849178669536 0.2963363515087477 0.8322514380202247
Ni 8.741943883995027 3.345786735519205 7.138580755944047 -0.33035101789129556 0.05925055813120118 0.8343368597943438
Ni 7.665934681521635 4.815572443507812 9.55462876076161 0.9950380064635638 0.31239597607477165 -0.13087480733640686
Ni 6.614238134473775 8.478195828817208 11.019541579833598 -0.09240210518250538 0.48609970565124666 0.7038212355695685
Ni 5.255394218206161 6.3450098448042205 5.522856026792124 -1.3294703935130845 0.6782858103026255 -1.9676799046201148
Ni 1.852394587890083 4.948416340774813 10.278698622445262 1.4768802223900372 0.8578619394994774 2.1823708752422286
Ni 8.395756906179514 5.946581731318357 6.975669015414149 0.38386107399429376 -0.21088702349499164 0.4158206576200258
Ni 8.303082562764303 8.58389279130814 0.9009618498937543 1.2369068230520504 -0.2171725993933873 -0.1653504725157733
Ni 9.359995690410825 7.8198614740240195 11.73356434494907 0.5909881162262208 0.9875674091181315 1.531001686824789
Ni 2.767763239798191 8.820399749605222 12.128186426164213 -0.8235037737345817 -0.5847128247404704 -0.1173700879817527
Ni 7.533797000039653 3.798405140242068 1.1841063570123367 -0.14513903056490488 0.5613093582148656 -0.4225168386932788
Ni 3.6774256681633593 2.7008610644308795 5.073962674929967 1.046022982151863 -0.6350203147457709 -1.5654359572432588
Ni 1.2949737606706428 1.0286079989830264 4.038042988519393 0.4740507449065127 -0.5943140952756603 0.0937161960082386
Ni 4.707370769032685 6.036063979385291 10.326672331532015 -2.0702777193886988 0.8461839889409168 1.2725078600851116
Ni 5.568360805494456 8.36161372702654 3.907944858224541 -2.1352834348361225 -0.2250131784837286 -0.2543939456386909
P 1.0823274796966806 3.458979001541788 12.512844273463285 0.5477635012096308 0.0548521719531894 0.05930712240074948
P 2.6863601003118562 2.0418110776422074 2.717713256303487 2.3571655238900373 0.5487248366816356 -1.0641225199660511
P 3.05767894386352 8.274909261047343 4.405445630137875 0.3619886994012347 0.07063771692222028 0.4635999818868338
P 5.282541152982228 4.361927671844057 0.35248736423891414 -0.9878952247711953 -0.09443379090055348 -0.15535685163817115
P 5.839368758942254 4.546108748576587 10.945272161396986 1.375655119599263 -3.1820934316656553 1.330946720948295
P 5.711232966908703 1.393749808468405 4.2051581254017165 -0.287751180942898 1.1195567896749556 -1.7055302262954044
P 7.014050430898272 6.751667726238154 3.9780381873190844 0.3266612277445342 -0.8579051340325871 0.49545106495915964
P 2.1401916446003595 7.111903690070279 10.799821841556904 -0.7077298265953553 -0.44288768904014686 -0.17413644623851945
Ni 0.028717558681946153 2.9710027265157226 10.331564994490616 0.5941482591217574 -0.2749550576194942 0.7740069525560347
Ni 7.831255088688967 7.714475246478496 8.802774486853282 2.265447075038118 0.7851061477929898 -2.1281491377841864
Ni 2.9134414319315733 4.021851814621562 8.363542166930161 -0.8610454794337816 0.8673963613524739 -0.5290893218388952
Ni 0.7420614150227536 1.6323377492786717 8.234739707195555 0.4729945357278563 0.033756013404522514 0.6950476031419965
Ni 5.452550832962076 4.219168504955414 8.82299203234676 0.024668449280957516 0.244684688770727 -1.7133173264399912
Ni 4.360411661958887 1.1327512867469205 0.46255250676544063 -1.943629291428814 -0.10816065356834277 -4.660356907556464
Ni 6.4276559240721864 5.676684890705654 1.9478881447190843 -1.8033187926008039 1.2498117040391765 0.9750134837125208
Ni 3.8896858845081788 3.2875851386233066 10.348006639586865 0.6459253916940488 1.165103367956503 0.8034383704432744
Ni 8.979976268387746 5.491260874191494 2.9367983419947143 -0.609359419644557 0.02538064485663371 -0.5809417877338124
Ni 6.744191255127436 5.589886262621786 12.704311613855099 0.11322495546512758 -0.33186694031518976 0.5134073923272642
Ni 1.2094463209998063 8.953940446446772 5.653423084368229 0.06043095159254753 -0.3219658791513939 0.01082023054395556
Ni 3.3434703477443475 6.492495949347247 8.52601322881021 -0.48761279986166345 0.20369436240129435 -0.4836579289789735
Ni 8.392997956512714 2.5367741808347115 2.995549845581879 -0.18317670206391679 -1.0198645785889404 0.26992315162254155
Ni 4.489131259041385 6.715980288568609 12.812840972454474 1.0247273059978803 -0.5513512185608891 -0.7192277999326259
Ni 1.4405201258574885 7.197101562374773 2.5088118022322106 -1.7803768390926498 0.1024702880517848 -0.18269333466959503
Ni 3.2468129473016374 5.628558639009336 0.9573470597905873 0.2696549855628194 -1.0327257508223247 0.5440562275613727
Ni 6.668155355607234 4.006154991773243 3.8039352806492768 0.3891390345637814 0.7704392898094344 0.6864616612451985
Ni 2.3643916158172056 7.086065608549109 6.3279071817331936 1.8799615780665235 1.730030525429614 1.269579373584407
Ni 5.053209347060922 1.0183443295741073 10.23253094252606 -0.46960685020254606 0.9700936778134004 -1.7278980524676435
Ni 6.487900838639401 0.9589280415279796 13.73176895191907 2.3784591431614905 -0.9529845289369394 -0.24917332066969988
Ni 8.633111323418618 0.5355978178413567 6.688308870869536 -1.1764874414237285 -0.39061227667519827 0.5933702433051523
Ni 1.4576011316444417 5.449528229402201 5.326138207443967 -4.3885591646190285 -1.4665119917818354 -2.3036456975950266
Ni 1.1857457192546237 3.203498379153906 3.7482581697795543 0.8010832399475364 2.6331207406392716 -0.02074108920209331
Ni 7.420322247703062 0.09647472595965227 4.4376810850502535 3.742721704653096 2.1118601708161755 -0.4313079546223475
P 8.23411823730474 5.984999870023302 0.8870512821710055 1.2959853743817615 0.4171470897409332 -1.3460594082200172
P 8.444711784396919 2.0178091571620835 0.5058181106187445 0.14820481397442217 -2.0087869590730696 0.9019213917125369
P 3.2541481752553514 5.040949441033022 5.982155232841252 3.5949146403377252 -1.1309478051207167 1.604230047292321
P 1.7846543697912172 5.309866995757168 3.1733457899968043 1.0282602588518033 -1.8643354414934925 -0.6636634324037602
P 4.839376623568131 9.547095792388092 12.03278985630302 0.22274880792958413 -0.24925790996370623 1.7795000929146514
P 1.291715751849096 8.279429042071454 0.38799966039377404 -2.634060478844722 3.049480044371587 0.5779755060166368
P 8.344730461659394 0.2990635525339205 9.331822388693865 0.5923258612010379 2.0522193192250913 0.7139351840751188
P 0.4898990652034064 4.486221650007114 8.874604165157923 -1.6543519036493766 -0.6165646791437446 -2.4308212017029747
