# total energy = -340865.1667633398 ev
CRYSTAL
PRIMVEC
9.29340975552298 0.00000000000000 0.00000000000000

0.00000000000000 9.29340975552298 0.00000000000000

0.00000000000000 0.00000000000000 13.60184456946212

PRIMCOORD
 96 1
Ni 0.7443259033158552 2.8986702159226683 7.261385148527767 -0.279749393684344 2.2683033135399904 0.10868541572356119
Ni 6.754821836518798 2.295936842650334 1.0497110602647606 1.178483388807835 0.25357144973739554 0.4252391227204482
Ni 5.333868801487859 0.17410924090670396 4.077642381027498 0.6460434053291519 0.045349888889709 -1.5108614644314884
Ni 5.489356837571172 2.104232389340514 5.431488634649436 0.6169282331307504 0.9556535911286703 0.8008086461299111
Ni 8.877287895502217 3.590731842307955 9.845817305512828 0.9551486264677936 -0.9735163303417042 -0.7383964024412767
Ni 5.761235535534077 4.966286571423707 8.058344277135467 -1.1387529029874324 -0.7873337515719279 -0.5902090719683513
Ni 1.5492299677939525 8.818906696370343 11.520979478826723 -0.13966180950041754 0.09021821015730914 0.21527538237067437
Ni 6.893247172569301 9.024393276122789 2.2496500867770117 -0.016610611973487524 1.6626699365967685 -0.5399488902612185
Ni 3.8860206390631533 9.130040756500238 2.091337783515064 0.0035254966547552183 0.342204831906088 0.029886503146787244
Ni 2.202426555215614 4.57469946435261 4.692663500478146 0.41502824362571755 -0.015140455185864248 -0.36695427093662614
Ni 8.238895709579612 0.3960051939968041 10.39187667899753 0.727623994416121 -1.366201430385531 -0.2980973000639124
Ni 8.041243474123279 2.3838617909130937 3.945649943104834 -2.9028256056034203 -0.09044523856645068 1.0144971436294399
Ni 0.21548164178146922 2.728414951978713 1.2083058831786677 -1.4057251995117663 -0.35476929883465996 -0.24597204012358284
Ni 3.951901619745396 0.39521246615758904 5.8013904997507275 -1.4913187664128702 0.1917299909505666 2.1067336482228876
Ni 0.6561909239960466 3.3597162663735203 3.4135594935957965 0.9190945610577139 0.27569065023393813 -0.25249878549850713
Ni 8.402022928357356 4.666202375312882 0.51948393938131 -1.608408861260359 0.21657970300439472 -0.24316928056746512
Ni 4.187024882724767 3.6422916787905453 3.888440642924016 -0.5189568613905837 2.0138738866776733 -0.19330839118128
Ni 2.1218991609975806 7.523173062342727 6.4752667822230485 0.14862133268655048 1.080311471021088 -1.359219085530427
Ni 5.375642677657513 2.471507936887736 12.572225810358052 -1.3548710929743764 1.4916244705787471 -0.05713634000167579
Ni 2.705265068655329 4.471208055003271 11.56034357388608 0.3015649468975387 0.4158283709295097 -1.269102948168621
Ni 2.901504705851866 1.9588462894966692 12.375053114837282 0.6862778273691665 -0.3196279750468366 -0.13233005172569468
Ni 0.6424273843726298 9.323984921524605 0.6549679112921698 2.113525988554373 -1.6037518221043219 -0.9820307955706183
Ni 1.7182306214413776 7.202754886018508 0.5322344973578989 2.346243220550579 0.8902912636727766 -0.8409484515735903
Ni 4.842135912524837 2.28856716883442 8.678411718001048 0.8896603149569968 1.0841305876568619 -0.04075635598175561
P 1.5415443180515045 4.7050488274573 8.325090224974122 -0.4480124118612219 -0.6865958728302175 0.3383803159536753
P 6.124589264228441 4.381666053469428 13.265892408581937 0.33807872555285645 0.1614143706861607 0.31708386846874426
P 5.581129257409959 2.30931935247999 3.271162154280575 2.058239814387558 -1.461574445270902 -1.0387398182268883
P 5.916881559580657 -0.31872027038958106 9.698985151134611 0.11404565159421004 2.5804311235550395 -1.0728802115540232
P 4.068236521167363 4.831560012395567 5.919658430370312 1.014999280076839 1.298814102079808 -0.7755565564313417
P 2.9353977706773904 9.373611728809578 0.02617395880850193 0.12605604579152485 -0.4667459837149833 0.22374793861805983
P 2.3556655861747773 4.009557932928164 1.9423021617197573 0.5755234449317185 -0.5027730525418697 0.5477413897224438
P 8.820421522135783 7.182132810107392 0.8055648259009367 1.1289870818499201 0.35350637296183635 0.5540205378629361
Ni 4.415094447814756 7.320892708903636 6.311581958869071 2.3885049574332675 -1.0379258069660253 -1.1798918391195874
Ni 3.320581718531381 8.03582541632419 4.300059694396379 -0.25876790633667046 -0.151997448247635 -1.0135149822218288
Ni 9.338947310986928 0.8328920968412861 2.7596919220007314 -0.9821148706439925 1.5775162854465605 -0.1458820793785165
Ni 8.975779450484643 5.3785793950923555 4.747478818344992 -1.6288529880473237 -0.19908283177121197 -1.799037648726947
Ni 2.7559699114543585 7.791064887585545 9.693122868356454 0.3179585577642137 0.8817940248350427 -0.999285211775692
Ni 0.6279696270517995 1.5806323988456243 11.718560155029108 -0.594759667453511 1.6335884458497802 0.07347364370911862
Ni 3.2699047559611634 3.5960290857821935 7.386848966203671 -0.3839245802423775 -0.9048699328178996 -0.03263681219841476
Ni 0.6975075644131883 5.684434798567218 1.9226066387461531 -2.1778020249246235 -1.202869273851367 0.9185659422477535
Ni 7.6768302967340665 8.108258250777201 8.333374370295063 0.13359760558420863 0.45508063156191303 1.3831995076054244
Ni 2.1563498303993405 1.5465999328760414 1.604664226740421 0.976195419835764 0.7066607619008927 -0.0615018160592231
Ni 3.341398956044179 1.423378614937564 3.73741994883731 -1.04574093213507 0.22547674838370846 0.4360022747742233
Ni 3.3218084485990995 6.008839847611522 7.935084856217614 -0.7131427700808105 -0.9706266674987347 0.7799662554632631
Ni 4.1959744361733495 8.539630444362713 11.884883377369642 -0.5354196349322973 0.6713600297170695 0.27596215872776986
Ni 1.0105653603310962 8.802327253636937 4.717989900330769 -1.0283265933133645 3.7135486826335655 2.3867478655328447
Ni 4.762983942928185 6.2553196571268925 12.278452768709254 2.3501798366008235 -0.8335909827672546 0.01647794305036517
Ni 5.239940310620961 7.271600464364404 8.696135179456697 -0.5459261908905759 -0.33479208438178465 -0.6877623823344929
Ni 8.53051360954126 7.632286984502442 3.07447922144593 0.7999033607068224 -1.721236581287068 0.10961795484015961
Ni 5.443484567766186 0.40045580785612506 0.17543076375238248 -1.545193662054455 1.5044691877518992 1.4751614399267174
Ni 7.485525460037215 1.8173541282768704 8.61796552325518 0.1265556111357627 -0.2882065233127617 -0.5431859091412774
Ni 6.838425349315731 6.615838895892058 0.39435189642826535 -0.7118114528638967 -0.6829053113525078 -0.8070427999650811
Ni 6.523629685801889 7.157570328524211 10.692655092805767 0.10138785362088344 0.8130866921663158 1.6668459223513294
Ni 6.606954396310704 8.040193318838035 5.248135239209705 1.0682997912721923 -1.0175958371594216 0.4194996491335098
Ni 4.760576949840767 6.129784280197037 3.8139437421979707 0.42624313850493045 -0.006198158390911906 0.4075594460524981
Ni 7.836323792356674 2.799974205928956 12.240068199022152 0.17715363579828847 -0.6834904944320165 0.5333362700407073
P 6.267140874143088 8.272277636876922 12.681543258188094 0.3745035440387937 -2.113729619924747 -1.3041835939218378
P 3.477426592416869 8.593773848715196 7.77912564426738 -0.11368312604846871 1.1720386616237557 0.447856603009648
P 1.3287066513023527 6.8898736648830745 4.411444925863293 0.676051521655468 -3.251514502571955 -1.1244074328990377
P 8.410071021074357 1.120608623451204 13.784789004476279 -3.034793131783373 2.640705237854749 -1.305719828060706
P 8.183534868569016 0.06525553421589901 4.351624177583772 -1.1529844732057821 0.47255796241107 1.21467192291325
P 0.4361267019388807 1.291402905152187 9.326363105042251 1.2760744943904474 1.056074452850594 -1.4425786208946896
P 7.391857184639228 2.2359200034281694 6.425633469551353 0.2986781122680469 0.793462233067169 0.22274032328915186
P 9.062719297329386 7.64846681062288 10.121540687028878 0.2935348775042106 -0.42801334303147576 0.35681589695104354
Ni 8.950566430229188 7.346003501653449 6.49890642823256 -1.2854515647299734 0.6192229427021981 -1.539343373921265
Ni 8.479037413745106 8.557380856706216 12.54145811918233 -0.6207339800300858 -0.9563614158289724 -0.6478424062111037
Ni 1.050313273207095 5.818891848716844 10.117853991438999 -0.9893209014741284 -0.17965274807105833 -0.716840530647372
Ni 7.629694123222945 5.588805613742803 9.475126429936164 1.022095267691672 0.9420519411848356 -1.7193532482214262
Ni 1.4814531315525081 8.542938898181712 2.5630359400539384 3.030407086900536 -2.252758938047488 -0.20795082368480314
Ni 8.289442564415376 4.450223536117603 7.145851339013659 -1.2738949702406255 0.11532271853442073 -0.07320264943591909
Ni 9.085897060881582 0.9431137934257892 6.71559807194446 -1.3108982869378523 -2.183770583803233 -0.8865356532850861
Ni 5.964445229933559 4.596343815320157 1.9779804905301959 -0.884282081364219 0.44855285774572423 -0.6379161482363271
Ni 4.496969386425358 7.395509494613572 0.7552707518064008 -0.7129316825112689 -0.121089702925185 -0.9952719768512409
Ni 2.1217690532631255 2.747141172330627 9.474351359575195 -0.02111569893269267 -0.22475812505012904 0.27395464137943787
Ni 0.9576208058175203 8.263430310933982 8.187630474181468 -1.0259431806828525 1.1089527889068644 2.0622201391915453
Ni 0.4374036164184603 6.226008243236104 12.555155675597558 -1.3487703793932773 -0.11605522582507109 -0.23255062451135436
Ni 1.0808514171656014 5.576082935995026 6.3918333388218675 1.1616750590012446 -1.62626183028138 2.22026379363326
Ni 2.039764006918068 1.119065917456952 7.2772991831335325 2.1718064694628207 -1.8510397528258506 0.9983143632219905
Ni 1.6944580796745305 3.8705378186630095 -0.18116386813704546 -1.2960144278474839 -0.7034008602026983 0.9266577181169524
Ni 5.946574003265208 0.10670692907229766 7.2874197061922095 -0.5301447596866031 0.9561834954902112 0.12056185544617301
Ni 2.4494175022592 6.799829819230619 11.687153077272633 1.3261798956872708 -0.26178098213138146 1.9610469726846291
Ni 7.597892075558305 5.115882585818131 11.736324507487016 -0.5310996674007047 0.31660975704580313 0.47427597354344125
Ni 3.456321259206349 5.304548094187467 0.19290702051256847 -0.3042052127338632 -0.4063533415595389 1.7034023813191244
Ni 4.473261898525739 2.3595223511604075 1.470386539396151 -1.3558707378834842 0.42993087176916284 -0.19032282619039478
Ni 6.381403345223379 0.8461826019158631 11.414232588093128 -1.2928535136209993 -0.2967040192608116 0.6920198720592663
Ni 6.2679772810074414 5.254280041639822 5.524932938875968 0.026865456932276315 -0.3821934564838837 -0.36857329459728777
Ni 2.696259754749123 6.176195567759052 2.6105336271986523 1.91706851022115 0.4260515913194146 0.7701644388814929
Ni 3.848707599503383 0.7208758428622645 10.028218126468156 -0.09501640287690087 -0.1245018139305275 0.08047347206571946
P 1.9157713359824644 2.094065399233817 5.336901241041621 0.004680179084488713 0.6454106568411595 -0.18660989611518183
P 5.882300782444443 7.218544388935581 2.3101920036417987 -0.6209011017355693 -0.8505463796746706 1.4041105467264787
P 4.024585376257715 6.178323758558352 10.323432575946523 0.5018394849840068 -0.7768073981193073 -1.050102037317243
P 6.730826252921456 3.6282493368790107 9.49499852769224 -0.7835004938687669 -0.040366833852820805 0.1360982605188753
P 3.984493607226371 3.159675624648977 10.64727909107363 1.3504554804051838 -2.5838504336492343 -0.376609534638203
P 6.929826032770359 6.542439546840239 7.092341745196164 0.3466911498122158 -0.03619110520857637 -0.17797278926547414
P 7.788890229738227 4.69499335826585 2.9699627490172786 2.269831834369375 -0.5691018576760909 0.4791479569237619
P 0.4073961261483382 4.270386766871998 11.671144249888908 -0.1770309941774951 -0.9972388707696246 0.8924322212751792
