# total energy = -340869.46959783597 ev
CRYSTAL
PRIMVEC
9.28581221813593 0.00000000000000 0.00000000000000
0.00000000000000 9.28581221813593 0.00000000000000
0.00000000000000 0.00000000000000 13.59072480552151
PRIMCOORD
 96 1
Ni 2.5165201087139795 4.510852567981522 6.642656834063855 -0.36905460510908056 -0.09796185865846999 -0.20195963909837475
Ni 6.385546622777332 6.764695620991032 1.0045354502010457 -0.5044578964434603 0.8226062016209769 -1.3884957230073571
Ni 4.667494934097142 0.25330581402541963 11.305376074943068 1.2021146550735298 0.36454206195070765 -2.824551969402497
Ni 7.877525927472048 2.835051324842034 0.49907154853896046 -2.622913975309599 -1.4058069605922952 0.9197540490185837
Ni 7.887638176965196 4.157731701383334 4.376023503320771 0.1672803425486345 0.7197029397968315 1.7643591235081548
Ni 2.591707330152013 5.597283310358756 8.897711685566346 0.06769766045728985 0.22072200730754246 -0.12164326143580986
Ni 4.900113815688371 6.953671185210547 4.039475954349185 0.5887042052880506 -1.0637450820219745 -1.6010729897205782
Ni 9.278699274596983 8.23991403465257 2.7936960315980643 0.7284518896340552 0.16807429920483957 1.6815909418709878
Ni 6.044311595803779 5.099823778818886 3.0513355341803727 -2.057996330918185 -0.631449309565061 0.16133929447385115
Ni 0.12676247959674944 0.8877097182467367 10.620812070343343 -0.284792098314574 -1.4141018536112355 -0.16902277916103794
Ni 8.011510911803207 5.047999660893029 1.4705300070783516 0.8438301439967596 -0.07703847824224151 -0.14206142008084569
Ni 0.27173072260604775 7.21947755962869 11.701492109220936 1.1550233580126819 1.1287253435481013 -1.2000024938265332
Ni 7.881314538852401 6.955333345595555 9.603056409303552 0.5890284213966888 0.2790492822935258 -0.23931134027395556
Ni 5.087046501222402 0.04524047707127309 3.949600435162519 -0.043019698094635586 1.122832375102434 -0.23573570710755531
Ni 6.419216977838998 6.321409517865328 11.514211205729154 -1.9287626587296267 1.6057961062278603 -0.35922090684811037
Ni 9.199054863299711 4.681507224717124 6.338686700057202 0.05707489063612106 -0.05490153713388609 1.3793654785713148
Ni 7.018671870657779 4.6317909861621995 10.387866328162438 0.4398211342996813 -1.9683494198833131 -0.7060398404874421
Ni 7.32113863166816 6.926593756815672 3.0684186428971256 0.8049838605535232 1.8538597387731492 0.5380133638014024
Ni 4.354024485621766 8.488476655802783 1.4480509128882575 -0.011976712745901954 0.2833574227505765 -0.17615039134475471
Ni 7.145460350528708 0.3369895536326268 7.313794482793845 1.1006517252403367 -0.8616669150678645 -0.07469054683535523
Ni 6.922238710890708 8.44169473390519 5.019516360530052 0.9201006337247251 -0.2860267420526235 0.6191162419210048
Ni 6.839994272175547 4.681237936163129 6.546950753392572 -0.7758476053091994 -1.2375352006646687 1.4979316437436976
Ni 0.6561549907344021 6.47912903819693 7.773704046932068 -0.39186080437031867 -0.357528606747352 0.46679174935125417
Ni 2.8576994208142907 1.906674392035847 0.9060668403982556 -0.37988254896251994 -1.2757201963748224 0.19814900710303293
P 0.08884850835660002 0.28401028066825046 4.497551570576577 -0.19349736726363448 1.0085003026160566 0.5503878262063553
P 2.8747946010869123 0.623975008531919 9.614744461128184 0.2502930360964399 -1.3913851287400103 -0.9367873503517866
P 5.861464667640718 8.071144397794939 9.753492138540182 1.2573859168420087 0.2514073522065412 0.4540755873361664
P 7.933036512843985 6.521853060160176 12.786153904372785 0.690437872284127 -0.28122469267828987 2.2237895473983316
P 1.6803791485574144 3.579801321259792 12.43654586053241 -0.12076265860306944 0.3002441712035861 1.3471480132985059
P 6.529439568733088 2.2127161907458266 6.658245855596543 0.9043672821498682 0.3170728127251507 -0.04181256516041186
P 4.302822517113761 4.239242560934162 8.870964832086031 0.3123604948511459 1.3302977745103863 -1.459936395446847
P 3.979536965135852 7.959593935755281 5.535624588724732 -0.6770599083153243 2.281760724596477 1.407844302737298
Ni 1.962138548346749 6.5244252301414445 1.9447647937079249 0.4070007453355507 -0.3725168526260681 0.9231075388718488
Ni 3.9363486525622697 3.0453656855126545 12.769640944525527 0.6612309117028677 -1.3156435149323213 -1.3409969060954454
Ni 6.901809924035864 1.341883436184853 10.665660686139491 -0.8818482751117458 1.6256398804266647 -0.699739352190711
Ni 8.56394245160702 4.286823062681535 12.594103807731617 -1.9454306063036106 -0.09910471401366158 -1.8020144719670834
Ni 5.780770959564083 5.930031104975339 8.511939117505571 -0.12977823183811843 -0.7831472242944061 0.7482313862538275
Ni 7.717484954088757 6.9914551550798025 7.001329687780458 -0.34076372858418735 0.48585853617471814 0.08506366253956318
Ni 3.105890609476234 4.352668757039581 10.7463488227288 0.016199235467681778 0.2531492745983124 0.7522610762385109
Ni 6.609223267213461 0.8941187858318338 13.032566859997136 -1.912551339077087 -0.868648231481704 1.625844540238303
Ni 5.87869913509644 2.8869125860167175 4.550650630518421 -1.10909188558789 -0.6254864071134066 0.9121070739962871
Ni 0.7073941024912339 3.2398941654318048 1.0237515099816887 1.3837183562233717 -0.06956505268333181 -1.0810300943546673
Ni 5.820532807433375 1.891427088392368 1.6155298218491527 -0.5593602049082947 -1.1578382017536575 -0.014851206080219585
Ni 2.4769346912766155 0.4955290111820863 7.0247735778588325 0.6775412188271169 1.6230641492796887 1.011956122375141
Ni 4.745198610643205 0.7170420613740444 6.374281075408105 1.8334438941209588 -1.2555295803595603 -0.10819767745386528
Ni 3.7626389636106468 7.586759289842168 9.588447040958677 0.3348198522959266 0.44398863541380956 1.1402752531692297
Ni 0.838565485723747 8.502349659239664 6.356858105964585 -2.3026344827216922 -0.9337902153966757 -0.5788872191976289
Ni 5.133865566368822 3.070780953522522 10.388070616030987 0.0403938304360143 -1.1739934713572815 0.7061113171553258
Ni 2.8270562405320248 8.467147145163885 3.4856543284580215 -0.2121923725699765 -0.6421587255627651 0.24438618369370171
Ni 0.028097010575176135 5.750842786821735 3.612605310042568 1.4624496487870038 0.9992985815121308 0.11029004120651974
Ni 5.33970416555579 1.388999647321889 8.60373029975049 0.17881302577858238 -0.49039524770280707 0.5184822357470102
Ni 4.7196161980136155 3.2019430509428286 6.863384304543122 -0.7060182432208872 1.3768655949675965 -0.07299104764574527
Ni 1.0687598417477933 0.8330784992907799 12.947896967133572 1.1431204359275087 0.5062260440874766 -0.025195525429021128
Ni 9.031984530075913 0.7495089751737158 1.1928758648656197 -1.0531917319861603 0.4737602102492872 0.6069868056473223
Ni 5.3456470853681095 8.042999100996287 7.625021479040071 -0.45623274288848525 0.0372578559101939 -0.3141612955053105
Ni 2.3987667241202164 8.957010882318635 11.457334677381604 0.04992696673743015 -0.8110629768680677 0.6027668540287039
P 3.9485037807409022 1.3618200749927396 2.727006256910425 -0.3480306945592458 -1.093964028807516 1.0067774063876789
P 1.1899304052336395 6.264403916728106 5.5653475450173095 -1.051487861921176 0.5197199648088534 1.5786097756210555
P 4.3049118248602785 6.169363628792047 1.8066290513203513 0.26207537344334864 -0.09289395721725938 -0.32608658618798675
P 8.413595866167574 1.577260204001485 12.407258408832329 1.3190497124003928 0.4450924100009496 -0.5937327688508937
P 8.801427098794584 8.889586599885442 8.51336634684175 1.0867402573655671 -0.7189007556105103 0.5529221625924348
P 7.258097252596553 8.924501253782813 1.8497653633455755 -0.6553896224307423 -0.17019545931290042 0.2755487253394351
P 8.437859693463803 4.481407257473926 8.885548200156729 1.8817783195602884 1.656687750871405 -1.3831383153501857
P 6.962325562187236 6.118932382697201 5.068293803470875 0.12679420950913 1.4969271137385833 -0.7343857386199868
Ni 0.726743877967654 4.620536581767621 10.62647920153312 -0.5554539278753531 0.4118992110784325 -0.8645511785941948
Ni 2.521896593981686 7.398498733162573 13.516940824975258 0.3887618537300208 0.4393735052393013 -1.2498438428286927
Ni 2.6456021841999746 5.841853032260067 4.1627302540942255 1.0466770707960942 -0.9737518433912778 -0.08528374897016924
Ni 2.976994250234374 4.385698391058981 0.835836385516184 -0.7490366557639423 1.4374934930622985 0.4340934877872847
Ni 1.3847653169556124 7.896849702674289 9.623741484575302 -0.9406206080549476 0.3009365692849204 -1.2859220766084887
Ni 4.065031438123374 3.4683808605910302 2.795979412819703 -0.44487720866634994 0.48475424736694583 0.7861515583383687
Ni 2.1105072557861586 2.1550884401907524 10.89692105340487 0.1445106529522866 0.25797009302572343 0.06983733250811199
Ni 4.452844099125971 5.962085728713031 6.336566749130401 0.8607325761790531 -0.2720687372106347 0.35833027671304096
Ni 5.522801810648434 4.267434286793847 0.7884239569697526 0.4169588849895271 0.008724267246875297 -0.1295882273144994
Ni 0.698455579661019 1.9900145565914047 8.703989214146741 0.24149446396820348 0.16452900505574244 -1.2321561957409426
Ni 9.117618290246536 2.56644992094966 3.2262068782390596 0.9784497630875795 0.12401793231557352 -1.543064531526594
Ni 0.0486548702196941 7.372442744110439 0.7181935020876811 -1.401775985056031 0.7159619846971605 -0.7094270117921201
Ni 2.8266848080437543 7.517347843596733 7.406578318363664 0.09820097125246958 -0.4406048065432412 -0.7302246652637618
Ni 0.865266838724249 5.588944650997096 13.188140429127762 2.4840877743365994 -0.8824175173516545 0.7292998394566472
Ni 1.8096376544753374 1.3124009824284302 3.3230003275197526 -0.5819139218390945 -0.032752768950988755 -0.5563070199042677
Ni 4.874447830748921 7.61873034127 12.743601669935366 -0.24221360152241508 1.2103416709690125 0.11678747600540532
Ni 8.709200411957168 2.229755656145208 5.858635280661321 -0.7962086854640545 -0.6795153118343523 -0.43216901707106214
Ni 7.354716128607759 1.3123638391796033 3.604096720317526 -0.4635598726775178 -2.844002621927941 0.1385040417468905
Ni 3.1461353195802766 2.4119154342049702 8.511191609622928 -0.6733361796068339 0.6652408041932092 -0.2650686517437177
Ni 1.2068955841353668 3.5864406769876163 4.690607320679736 1.3818717899329362 0.17409325170540985 -0.3963334954296916
Ni 7.635017655880634 8.783830484662797 11.458381188417306 0.07145121396245115 -3.0989385561130303 0.16738421511635043
Ni 3.353710365649907 1.9072872556414926 5.171651393400518 -1.2656026483248461 1.5859461613814687 -1.53739782015912
Ni 4.322220578813656 5.353670027114739 12.52818846978202 -0.06402946757708329 0.8610261961600719 0.36913996573403524
Ni 7.6358812364158615 2.5623548777664844 8.834691663862815 -0.6321949294818339 -0.5870792680901179 -1.1706088711557645
P 4.338117889311608 4.367665343753478 4.881964695730282 -1.021537338305673 -0.2537781664315629 0.1310897515606904
P 4.409163638505431 0.7393103676270453 13.236795299347456 -0.6663978006157878 0.06777607910370909 2.3065492443950664
P 6.044348739052607 3.872072260467165 12.240309719748439 0.1875270086128125 0.4640373265345686 0.6702739957417425
P 1.4329493964964244 4.446074742027252 2.5559671675494626 0.5060185560623608 -0.09721572452106482 0.5631921770598752
P 1.6592539257870642 8.8761778870589 1.3723501860351912 0.24831585776541107 0.5268198090784282 -0.021683398510704593
P 1.4461352498300057 2.4645288461684007 6.609196338358061 1.1029850013592035 0.2100087346550964 0.48039108530224367
P 2.676347508416515 6.613764029382561 11.400620650747674 -0.47328687015729454 -0.08232312367994855 -0.14084631672682194
P 7.076216048902992 3.3019883916583246 2.7020125647747437 -0.10481616257614207 -0.7893122154545373 -2.6280299563799256
