# total energy = -340854.2325528276 ev
CRYSTAL
PRIMVEC
9.34150747569831 0.00000000000000 0.00000000000000
0.00000000000000 9.34150747569831 0.00000000000000
0.00000000000000 0.00000000000000 13.67224044472978
PRIMCOORD
 96 1
Ni 0.007570357741818476 4.756714342114329 7.1414760507674835 0.25556148358423086 0.04714400467565429 -0.577344043080225
Ni 3.6947157115166296 2.1562067793269257 4.209013345415433 2.4572153754257875 1.12929458578801 -0.24264194730908534
Ni 4.028058067956722 3.7623202018640387 7.995950288050992 0.9340357557485784 -0.25433686714851034 0.1313931417337221
Ni 7.871910947968085 6.859235477386182 3.317295451566209 0.1859522079265249 0.5206283355557356 -0.20896872342635625
Ni 2.4780497399375774 3.7539128450431645 12.389907734661262 0.5194317441444731 -1.0212509174135058 -2.0006105939098644
Ni 1.2050171116283517 4.808597075206703 0.16403126817829142 -0.7312122259880117 1.5502718479083106 -0.6241669169710348
Ni 4.262567274213645 1.5336980557866478 11.774123028276168 2.959024521392491 1.2137486397680322 -0.9890833315420255
Ni 7.465209732512074 4.07064600100824 4.8721165242899245 -0.08284480051137345 -0.01567344487119881 -0.591614179845994
Ni 7.039806818883407 1.2400571065562405 9.851150339421668 1.4391590536901793 0.7286259533180741 1.2797234039969445
Ni 2.452155080929284 8.22308624237601 2.1826908874634383 3.0171340239407134 1.6086315187941265 3.1298606996131837
Ni 8.559800883052029 8.256332667848778 9.386676570344882 4.2743075676616 1.4467872596593985 -0.4190551053969235
Ni 2.8478239759347916 2.4525474242475918 1.2594715617571555 0.04367764339360865 0.30936181723413814 -0.08952992584103292
Ni 7.586116865103826 0.1458171967012459 7.608943773023259 -0.27408293942718603 -0.049633346756411297 -0.28012631740778854
Ni 0.22770204968428912 7.667453371591997 6.52130363827265 1.8970686700604558 0.47776881718804814 -0.9779635674797801
Ni 0.7384732644721148 0.4537870844066968 8.429332717453427 0.6295667478303674 0.20020229008763588 -1.1312535092865936
Ni 5.754144472327712 3.575480708781473 12.317348508694085 0.5439086462399149 -1.4710723574590083 1.2733792069464713
Ni 2.62061982860445 4.8430578966647095 1.9777167257182464 -0.48520547597175157 0.8562020352985512 -0.6605827365959075
Ni 2.812970811158478 1.4103808142395775 9.812977202851865 -0.149338156247917 -0.3126844538494679 -0.7821830606089238
Ni 2.4278297951942207 6.119051782876398 10.982104242362663 2.4251038396032234 -3.6433372546154863 -0.4013407188362959
Ni 3.357776874658719 5.911520850506903 8.550044612536784 4.138545607436221 -0.6987985855439964 2.544568862440792
Ni 1.8770638498587378 2.7234698270464803 7.398309591836102 -1.4383805236529421 0.2788803608158294 1.063382299365917
Ni 6.177090569463168 7.243134072842466 12.300668312761472 -0.9410175863830503 0.38131773874714975 0.42727517931387055
Ni 3.8130819540469627 1.7780999185694673 6.676606201769358 0.520413391331452 -1.103016111707455 -1.4315691571580638
Ni 2.1575706394334233 1.2911831775347358 12.10732993285637 -2.735975408613669 -0.2710346395191655 -0.19479577436008388
P 5.9629178252051815 3.221194692349825 9.574807059774828 -0.28248761855111354 0.522500355767468 0.00905902487847472
P 8.910425028512808 6.0305129740450125 12.925790790122281 0.08789007624476476 0.8685757263725558 1.223507776037325
P 3.715220320651984 6.578196221879508 3.29271327437273 -0.017470131760305395 0.8712689569340029 -0.008780831516423587
P 0.8464881824544357 2.5756871771506655 13.64906635591453 -0.077753244921079 -2.5620891307127422 -4.784668459853056
P 7.205300967148531 0.7670358580448989 2.147745241762095 -0.07535054901685732 -0.7212710556148998 0.38255315381614763
P 5.066039682569456 3.8480939244521153 5.672175545776461 -2.163146736905294 -1.7258596818813763 -2.0909486174744893
P 1.7013687753176197 4.072234057296627 9.913987858451641 2.8195228916190214 -1.8511932476845796 -1.250796693660265
P 4.531714790572572 8.877374774699193 9.41272256177595 -2.136293364157876 0.9210432001436526 0.9509857533393556
Ni 4.333217096031727 0.47709227751416067 1.424114698681855 -1.549032576184571 0.633732963392915 0.9192174597888233
Ni 8.474466211320154 8.343180663808411 1.3685504774526958 1.9720826616735 2.2348350065792157 4.514713169440999
Ni 8.476652124093581 2.419964245812914 11.921578725406727 -0.5849930749850506 -1.5288514732510057 -0.05940790964467188
Ni 2.291948225953733 7.913228435988892 9.6214697584322 0.6255393718385291 2.3538696267475845 -0.5099526010094443
Ni 0.27472439638343976 4.833454826873755 11.089322329748518 -2.512653501789434 -0.622097950257148 2.821021073431103
Ni 7.972892644894365 6.778917195224095 7.70741073610934 -1.0728701842516943 -0.45654513192258145 1.3292749896728266
Ni 8.432186548018734 1.3553967006310588 4.295749243284121 -0.1321189641561531 -2.200587655360571 2.257325731482564
Ni 4.293945398170664 8.306010805152567 7.297435322246978 1.5077044068597454 0.809823962254644 1.3771476449843898
Ni 6.8831403952802015 2.16633297354229 0.4104424892412997 -1.0299458740843423 -0.7132327586914554 -0.35978834931580617
Ni 5.065469850607152 7.439529928178092 4.985049746012457 0.42628787569993687 -0.21561039711258995 1.761074539219612
Ni 7.0330809334267075 6.903374100695773 0.8850097572569244 -1.0903657699332963 -3.053344412423 -0.44539502884303295
Ni 1.652540715203497 1.8896001530294193 4.798833331485394 1.318529835341181 -2.9029811573446778 0.7803470358414496
Ni 7.6089942171641844 8.531701628255151 5.292702022460231 -0.9346211959384033 -1.0640685267996641 0.4745508244713827
Ni 8.3047216771067 3.892568842034541 13.561262723729591 -0.5681366655493442 2.000063463157143 0.16260479144983606
Ni 8.012902321854149 3.3246425472768952 8.416576888854644 0.13716012612448636 -1.1193840115425173 1.6701852711372074
Ni 4.607418367990756 7.02417847670416 1.2928412951299637 -1.2896586608327854 -0.2351482100352015 -1.5771344766271096
Ni 6.000844345974904 0.8924558729479456 4.132407378365142 0.08039171098519057 0.6603202269631402 -1.6553731458250396
Ni 4.77440715746848 6.842906522138528 10.315937983153098 -0.4781321140647378 1.871610634998667 0.3210202274086729
Ni 6.516794492564388 8.323124447036836 9.565099365098993 -2.0871487841124248 -1.1342035930538532 0.2858549923614496
Ni 1.2639153169123665 0.32085649741033556 0.3287519396158945 -0.1146136082825381 -0.3608067632779915 -0.6646538213414875
Ni 8.361433969617288 8.575980374178423 12.991199092037927 -0.164532090379536 0.5907826850836342 -3.146175634723124
Ni 4.170936426373693 4.596610243722143 0.1966424711357054 0.8091498190057548 0.25766875973522074 0.5012147069158142
Ni 4.417729715096672 4.574442846237772 10.753996771249456 -1.2622463302581035 -1.688471728151221 -1.1237769984038903
Ni 3.3129936873261947 4.6275119507926465 4.00048380588577 1.3932198679559038 -0.9175776101925552 1.9553915741710646
P 4.672005551390229 2.2882676719677058 0.023820844325810855 -0.13228737141321734 -0.13555704330342463 1.080723618857842
P 6.914406421146276 0.7528479763342943 12.163891827094938 -0.05677458578688287 0.14497576551416322 0.16186817039412768
P 9.29679912347746 8.489048304650582 4.093591546073922 0.9569028901547391 0.2707595314809079 -0.7706827732788082
P 1.7924578157180049 6.290244250764559 7.646105224322281 -3.397994877656102 0.9865453956115201 -6.253875996189184
P 0.1585272519128923 2.386652429787094 6.123604833670281 -2.0791099729683484 1.028941601189544 1.2643672332558482
P 2.357759146846022 9.326729313759772 6.748918811936457 -0.6299053621167088 2.189439866273868 0.7684320295714185
P 6.642306988392465 4.738376962737243 1.2279710640508545 -0.5933293627648879 -0.860214241781738 0.833519763209687
P 6.450086786944539 6.539083329647284 6.397938755036929 -1.5879824750852072 -1.1368407735663841 -0.7914531730569401
Ni 6.580083206410415 4.110524896861921 6.966197607464378 0.0004746256435733761 4.1446810309099975 1.677088426014944
Ni 7.878197782568583 2.72444134383467 2.677284479426386 -1.5099888320185477 1.5625722625422185 -2.0685237128120697
Ni 3.6820019197019516 9.150156137506253 4.501913513094846 -1.0548521504077188 0.820588914080632 -0.3849309100197048
Ni 5.887429102461308 5.444744399811955 8.963944393732978 0.29017753099620347 -0.08987239678211618 -2.9407406354816388
Ni 1.556566066339426 5.319876468006812 5.261160422120583 0.296644883888102 0.012348237152707766 1.4469129866039854
Ni 1.132966063673458 7.402173239370673 11.903640228403253 -1.712478889699096 3.015781623677877 1.8464264224235554
Ni 8.827173512970994 5.015539492598736 1.986959213316661 -0.509052200682362 1.133121672843584 0.7038451468289685
Ni 5.815611592195883 7.8392997450106705 3.0100261769291645 0.8997444386658764 2.385980134128884 -1.664913738325623
Ni 4.9807704013906315 3.379066170430689 2.6482034321829815 0.8151983391926799 0.39398350714027636 -1.311697642910696
Ni 1.0795232988154329 6.698907182812107 3.3010393600776693 -0.034236809695682976 -0.1984922493750646 0.17635890781113497
Ni 0.19043597350038435 2.338683788370216 9.923162153044728 1.7260723121128143 0.006547057089898402 -0.41899211336947195
Ni 8.16533704252418 7.0452809423245535 11.159624647484668 -0.3031932265295811 -1.4227176203047045 0.3208153104867184
Ni 6.14248962539148 9.091145834131293 0.5242360638118351 1.7075811952871625 -0.5436859887061475 -1.504770263932086
Ni 2.7337454853831047 7.4572040605170855 6.024112173052052 -2.5382241511696866 -1.5234819814089762 -2.2107406846341733
Ni 3.7597512872798826 8.68319285665973 11.897296410606526 -0.2574594719378921 -1.4210345761753267 -0.8959173516103021
Ni 5.115465599168619 1.5284854945577055 8.58045215385637 -0.26821593912344777 -0.8027251464263335 -0.3257132620089681
Ni 0.7717038093819999 6.153512604334405 9.325876434117832 -1.4579432762762181 0.6881853288045244 0.2161462150114019
Ni 1.202055853725888 7.241489967508605 0.8987894150863376 -3.3868504310035084 -3.159398561171301 -2.682630160223309
Ni 6.794592244941236 4.898387646053641 10.907590773010009 0.9843149636191048 0.09218433274474445 1.8941851778650733
Ni 5.807774067337312 5.536151051470017 3.701868503869678 -0.31537485619743755 -0.9632411736679409 -0.2763226273909822
Ni 0.2232825824487828 3.2936007175927107 4.092375281787168 0.49970649780140397 3.7621849555840305 -0.9629015309403351
Ni 0.47700726979519403 1.0329185175050524 2.3072318665033245 -0.9176048638860649 0.33650906707289147 1.2887654595945548
Ni 4.105443116739081 5.703158523962898 6.148707332835896 0.5889037228933663 -1.488360712225811 1.7245044534050622
Ni 6.553385177750349 2.023790909398154 6.440664008249855 -0.05223041805962617 -1.3254738707591818 -0.8746368449649712
P 4.119679574289095 6.115707523163206 12.250382043314303 1.1802461371352124 0.315053982522909 1.6898770931391798
P 0.6479129534006871 0.22142081998833807 10.719748002013487 0.6014442785625383 -0.006023066265628337 -0.39331476320802583
P 5.777386143183641 0.02602076936060633 6.017030376156603 -0.9054918826726147 0.5773746392078443 1.3256641323931169
P 2.51440688743407 0.9314230376619407 2.838781396598563 1.3668526908162848 0.11605162628064529 0.783159051368948
P 8.913461018475902 5.761720434974078 4.754384570124189 0.01619306482009469 -1.551760259528379 0.7139971476613058
P 8.113482333954543 5.498047042056299 9.47498557808983 0.11148354729398866 -0.4210927046522426 -1.5121521582184538
P 0.8021907535160063 3.3587950989848028 1.7975853692279802 -0.15543989827028068 1.265534256980756 4.590500291774643
P 2.890533348584834 8.173679008792003 0.07162974596309217 0.8581236778012963 0.36982799293999535 -0.5291978223923015
