# total energy = -340876.17135323916 ev
CRYSTAL
PRIMVEC
9.17826742545473 0.00000000000000 0.00000000000000

0.00000000000000 9.17826742545473 0.00000000000000

0.00000000000000 0.00000000000000 13.43332213063972

PRIMCOORD
 96 1
Ni 1.6213593144188805 7.108816009549352 3.792092091849361 -1.1146164149505446 -0.7317696411533784 -1.6860687751366834
Ni 7.351397620174147 3.6396419861241713 1.6614600830522814 1.3729431199847386 -0.24556914825820936 -1.2622933814459552
Ni 0.1698291552794099 4.297264854125172 13.348558388256384 -0.6710329853949539 -1.5078057083243 0.9747818273176889
Ni 4.4451175656482445 4.808613672617003 4.762313902098775 -1.153666072653839 -1.521094455013406 -0.17298099247783758
Ni 6.319393219922472 6.944993112536793 0.16657454161586271 -2.3522896838549743 -1.0143742448983304 -2.5521093937922115
Ni 3.8516783224334405 4.524041488075887 1.9309863336434467 -0.9973131756509857 0.42137629733093235 1.2537290368157117
Ni 0.6739904724742205 8.903543619204395 12.488798863296092 -0.3750853846841928 0.15665268763145923 0.15590346817026055
Ni 2.2818825149570525 1.9563844355322446 1.424026562680967 -1.0084614789583213 0.9067668927302964 -0.7941057801884388
Ni 5.275585567636613 3.4605831650239405 0.5269784902562269 0.9814435556085805 0.05242170813482584 0.16231631367513982
Ni 2.144860159110759 5.915898223089813 5.655294166357457 0.6980722489009333 -1.8777064634837597 0.36277931362333005
Ni 3.501380564162314 6.224994738451566 7.886837555259545 0.3343773654418693 0.5772391420712446 -1.9988609582086092
Ni 3.2396439092176585 2.558157545657654 3.7679128638875765 0.00900451749145546 -0.14995007880030303 0.5916810285281874
Ni 1.1496238985549945 2.1054945697059257 12.41210801335672 0.1990586634014959 0.6915527026148607 -0.3322451495902149
Ni 4.2580736518032705 7.504950035828812 3.8662176160161392 -0.6493251614042173 -1.2731889453125362 0.3721463566605268
Ni 5.695316919716916 3.353224969810993 3.1999387239144856 -1.8361034432309928 -2.1579821619852186 -0.015877847572521045
Ni 0.5359254654373488 4.2823868824708855 9.428459752748273 -1.1642199369102855 0.07131108884016106 2.130545405930505
Ni 0.9807621326724765 6.469696528874103 13.049639653750544 -0.5373980988149067 -0.30685781986536187 -0.054002165248068286
Ni 8.001622804551857 2.3038552874063813 3.545000280563915 0.3211228144248083 -1.489576329800467 0.00935624440391937
Ni 3.1065131388009872 1.2780462177325242 6.060550472727722 -0.3451562012249281 -1.0729123503435392 0.19402521474264647
Ni 8.617062355018557 6.642220423498176 9.106409030604988 -0.615949671267565 -0.03712955786244573 -0.32463854088755056
Ni 6.124501887345594 8.001007860627835 2.2312212317120403 -0.14222854178632924 -0.7535517700254765 1.155699301033784
Ni 3.8892633279388704 2.601634998912654 8.251633304909518 0.4017163570081598 0.13709122055976392 -0.04517865341916735
Ni 5.966259376986833 6.819379343221208 8.066441565450623 0.8638868055373187 -1.6952203597289646 0.5565790426187317
Ni 5.837222113885282 3.347681296227286 9.616714280079488 -0.5511511867349411 -1.5599970456158747 1.5342595316404546
P 4.106604702876257 2.016896753309364 10.630809126914132 2.3208607759217323 0.5669310752770171 -0.49651087368224167
P 0.6744741671726663 7.279540963738978 1.7668045663707501 -0.8145203392890489 -1.2658175925491297 0.008719382150868853
P 7.07480135011025 4.69584947783319 12.91740192876383 0.07526210306810908 -0.9888951267906195 1.5053806438225752
P 0.7497221934574703 7.650315436853234 10.761931692396837 -1.188082859570812 -0.9392648653580018 0.2820459030280046
P 2.238037931001145 4.400336798405022 12.741398552921906 0.7351732675182887 0.09401752929874131 -1.096561614331363
P 0.5246664846672604 7.044182649654544 6.959777465862349 -0.49717113297405996 -0.834543319378195 0.041784025915321585
P 6.7563888932129625 8.488227013802506 9.300910286812151 -0.21831776874142403 -0.05493650413687958 -0.9030048545847029
P 0.2267096325977993 2.0842927717285034 10.381661383703603 1.6849403179591949 -0.3321032246957119 0.3686113469240749
Ni 5.039694914035862 8.657336592908138 7.101001632580532 -0.20444461030375755 0.6279492668316025 -0.7321421940014488
Ni 2.0144553341483276 3.2396806222877492 6.385167438470351 0.5503616009541101 2.0079428659052194 -2.1454937997102212
Ni 7.2812848345682895 0.8740491696663741 5.864451280144857 -0.6702683393147876 1.5702102387034507 -0.7668163483448664
Ni 7.843747424894003 5.860342169774948 1.3301484889785993 1.1461085720215554 -0.4998995876488165 -0.38946710732716155
Ni 2.4161146774764473 3.4824274417279515 10.455799757444915 0.5380655571955765 -0.9646277696028225 0.41227047837492226
Ni 0.054034296559602124 9.380372973543375 9.28243902342273 0.07092568047628431 -0.6032620484975675 0.403634399966479
Ni 7.7745065747028015 8.380042774512516 7.258480511081405 -0.6950815417037255 -1.0341532272974707 1.368190692901418
Ni 6.618834197850352 5.546280211683417 5.73123331618672 -0.20502310851504688 1.5471626128553677 -0.4440817093482481
Ni 4.124520681080554 7.832595829853929 9.482985086620339 0.8757064238800661 0.796315643355564 0.1749622845739245
Ni 8.869216898669519 8.3111598767547 5.091215283120999 0.13787360725174316 -0.330747739109082 -0.5623341999349541
Ni 0.420604205321712 4.606352191219403 2.4949844481257064 0.3683750625435526 0.2771782905230581 -0.539266262371897
Ni 8.639191158015771 5.684642594588023 11.485732622716718 1.8935550004802422 0.6228266008930564 -0.689329983931929
Ni 8.14345457258004 8.044696414035858 0.6490310917730072 1.2591409518599024 2.316177254403134 0.11672371264700541
Ni 2.7179970745653645 8.019290969533042 6.538025059273548 1.3232784057697597 -0.1333669776306413 -0.5604812058866154
Ni 2.1650982389982985 5.877395390832113 10.78162458319353 -0.3500850059851132 -1.5562877150850876 -0.13556629927480524
Ni 1.5715672131082674 2.1561310716286264 8.21854656831696 -1.843611835792896 -1.6137714111238528 2.2292670255731353
Ni 4.882599687117437 9.13222933279983 11.503115343577948 1.0810203241626544 1.0220762415282785 -0.5122128577985308
Ni 4.524436153579362 8.650471248801162 0.4034876542186405 0.8283636729300443 0.08482763526935713 0.9076536662106238
Ni 0.4920643605999002 4.854174592599656 7.341176701460874 -0.4411426813245822 0.9690860624844924 -1.684486004030596
Ni 8.916907176717437 5.7068815367955095 5.147581777458117 0.23529836245982058 0.5347642607364855 0.6890193946700456
Ni 5.438279537743879 4.377822508171854 7.422555810450838 -0.8085726063460461 -0.034841790269533546 -0.40406094598093634
Ni 7.276301035303467 1.0907728471994829 10.410516021141447 -0.24025313536193463 -0.32681240861041777 1.132260096174237
Ni 6.519038895076104 1.0629994096758117 1.7820781213552648 -0.3699382932656145 1.5106436919937274 -0.5387607834903883
Ni 0.7443308791146401 0.244362194524196 2.3362564074149943 -0.19132967018835437 -0.3366072832136526 0.43524482778290846
P 7.341687013135137 4.23272327690559 4.179549901839617 1.7872010611033349 0.7282803970531972 0.95935212302618
P 4.152523575292293 6.723117673443197 1.8229149870439858 0.6814176710633878 0.5988410366117365 -0.24015569055212188
P 2.4169040084833986 4.54265501461191 3.7735813619095917 -1.0888395630967571 0.7907296646273543 0.04726870317897666
P 4.692802293015656 6.479746731811452 5.951270348295521 -0.43184737206558527 2.0389120605932245 1.5433247271665163
P 2.473671593111259 4.4357006631699605 8.216948631941259 -0.22525460507057335 -0.9728077343104535 1.0079014926897933
P 0.1419143724358894 2.298541070510742 1.7496099999937358 -0.6717369534405141 1.0104132033680533 -1.047856435816176
P 3.1153242756227733 0.47114617108892914 8.109118673777644 -0.16887339806736723 -1.0499002057190823 0.6111761611383216
P 4.766292681069864 2.6910680376537814 5.875842427967273 0.2672720871529397 -0.03074473738202447 -0.12467587761454657
Ni 6.007093489195297 1.3550977735855374 8.359569730976395 0.018070484348465653 -1.0142351482173049 -0.8810342638508826
Ni 6.521021400861006 5.434268634836463 11.006028634989628 -1.7168132554083917 0.6191985172221658 -1.4519284375407058
Ni 0.8671195776867404 1.2158634552662746 4.69555026631195 0.30308369753491027 -0.14329195005383707 0.3158579664814431
Ni 6.447347447456344 7.783730733563108 4.737918984850208 -0.6180260941806195 0.4003045642622977 1.1700689394918944
Ni 6.105209169012892 5.62183570993023 3.1747104199748577 -0.49803965162194236 1.5261618422339844 -1.2251260283670384
Ni 4.075995180688073 6.010177387082922 13.176061110608126 -1.7377104105723749 -0.34199760099128845 1.5919013505236392
Ni 8.120848499671647 2.532384970453931 8.697901781878185 0.18678421690951702 0.055787282172949086 -1.454637866052069
Ni 7.4809121531868765 7.89825715571128 11.340128586736705 0.14799449773582898 0.35436460719707363 0.31156936640841826
Ni 3.5262077778112 2.4179686875160313 12.673976835353702 -0.6391073403309508 -0.39023278184859245 0.9217556528296449
Ni 7.844380725353068 3.341954057293125 11.11987586534112 0.8597799824577966 0.9922157065234202 0.6635353914663282
Ni 4.3107569073835315 5.090716903194516 9.58008106091616 -0.12893105334647473 0.3149303124608512 0.6923487161535947
Ni 2.4344987473244024 7.813853807572589 0.6041594596813101 0.08885758236435665 -0.8371123656569519 2.28146761883609
Ni 0.8309709710486114 -0.05650508617671125 6.9822247547426 -0.18362947333061921 2.598024154046455 0.6383282960730814
Ni 7.586544834105558 3.7379412312922202 6.611357581126366 0.29692333436046925 -0.8434449927431991 -0.07632808243877823
Ni 2.8557353352784283 7.883920701840832 11.555800434811713 -0.0907825673012114 0.6239897679632221 1.333300308782136
Ni 4.510476008677346 4.227005216238952 11.767119948427458 0.1433135473203919 0.48434081397861106 -0.5441855540503854
Ni 3.3737292194566906 0.20626137038399012 2.5561998211950643 -0.25248104488669415 -1.4389286828469283 -0.05030903266719723
Ni 6.028533922128309 2.3094448523277014 12.073427188289068 -1.0493808428805023 -1.2907084422535384 -0.13257482074664909
Ni 8.153348744969506 6.8881521017687515 3.394546448024912 0.8684098902186527 0.5809633850003671 -1.7354216145381984
Ni 0.49821288201335273 3.5865732433079565 4.550094918265805 0.36427826676635977 0.16236079375983006 1.451570797090971
Ni 1.8391137113947877 7.669461302905573 8.919175126622294 -0.27291385881974933 0.38394977705335814 -0.8174688803944115
Ni 8.171852132295255 1.782089135276292 13.250306870079454 -0.6686470016612808 -0.6087557246222871 0.8356216400440384
Ni 2.379383250850627 0.7985469053711916 10.454684597940906 -0.7725285682382953 0.05564921393318803 -0.7414668138364844
Ni 4.741906024262066 0.6378703184654118 4.524356302651915 1.7321907663057265 0.5221033774393654 0.11431844563962248
P 4.338668018920043 1.9586606458778726 1.931631565850292 2.0700586613993575 1.4337121716429952 -0.17410790699342918
P 9.053479797455116 2.2267486619482315 6.498624592452129 1.2348633102594604 -0.9411767376687339 -0.018616329549606646
P 7.2570633865759016 0.29897472193772784 3.680018102783253 -0.07714775012659618 -1.1163729926303354 0.7207995152951199
P 2.5274195277241533 8.810182281963554 4.503588636728316 0.23394621930730036 2.2663952978840003 0.5555408311622045
P 7.294327152718037 4.606480686964721 8.893531047163888 1.3194950274679276 1.8412135107640482 -0.966225967327878
P 2.691380098749553 0.48117801749123335 13.17666504061112 -0.33393924946318615 1.0837145831653658 -1.2538781607990663
P 4.708368634734144 6.61637442215427 11.297948022682663 -0.02358267241594648 0.6452923860957402 -1.4276824205091476
P 6.465382743138437 0.0969417794014427 13.165582282577468 0.9921773970863171 0.5899650742783452 -1.093957858159929
