# total energy = -340897.76191841473 ev
CRYSTAL
PRIMVEC
9.02411149099191 0.00000000000000 0.00000000000000
0.00000000000000 9.02411149099191 0.00000000000000
0.00000000000000 0.00000000000000 13.20769933824077
PRIMCOORD
 96 1
Ni 6.376545349882606 2.0081535408400595 11.516651184488511 0.7605464561757548 0.5614957631940588 0.4617840117240176
Ni 4.472466884926053 0.24391180252733038 5.97269290550697 0.43720040884738254 -0.0440072588188855 -0.5189116099749451
Ni 2.6664985582687697 1.4351224718551774 4.716759504951196 -0.3821227511469484 -0.08234857760124528 0.9823714667394888
Ni 3.1354725995927906 4.2441027237964235 4.929984816926037 0.4260449064511953 -0.27339671199343885 -0.11484783578053125
Ni 5.190100313744222 4.383119158721024 2.677054963693943 -0.03420004292047659 0.5465157448454588 -0.2333813479427658
Ni 7.2704286969424095 6.001575476206074 2.558358120234433 -0.007810240073038162 0.14685318504253417 -0.044610953841155425
Ni 4.9600215714633 4.756563957584038 11.135371652175218 -0.30711338751959366 0.17050939100889345 0.4863784132339301
Ni 5.654670588742816 7.96089052656824 12.227687987929862 0.26727337270452034 0.007404777104503377 0.5798164158801176
Ni 1.910855572559823 6.439641936250201 0.44605460338689024 0.6115258311682565 0.29556116390562004 -0.039276943222751715
Ni 2.7849941640457847 1.4971632371980288 0.36639065104214 0.18947616191938335 -0.4100349041761842 0.6580913376326214
Ni 0.3454899068078741 0.0526439582226316 4.862137035947095 0.20692752462661138 -0.6971461375422381 -0.5506413369780582
Ni 8.609462431434578 2.308475965656073 1.4297594424961582 0.7931092206031244 0.7964483122786864 0.1475736081483265
Ni 6.793648799324342 0.6349256437243074 4.829487801181941 -0.9044891524397132 -0.2220954906163014 -0.10400806485254992
Ni 0.8938264951584707 7.445920589832944 2.6469288704545866 0.5197747293061887 -0.7732628753011587 -0.25098851950156775
Ni 7.660026655072871 3.8355992524451223 3.7517264545795133 -0.2751640883065068 -0.19853235858438065 0.20596336094112916
Ni 8.005478660613191 3.8933535649097406 12.54892559555826 -1.0489612388445806 -0.20016243798863592 -0.5948416856443562
Ni 7.7098848701302165 8.73152256118402 7.189729679028956 0.029978548639961272 0.6234287532534296 -0.3842585665430286
Ni 7.122694970480181 0.6190468174410665 0.4766264877255829 -1.7849760284275582 -0.7135711158674808 -0.050835337484312446
Ni 1.8874921483456208 6.637116564322581 9.201064219110231 0.5267282778058864 -0.46120628484367665 -0.3797581075695137
Ni 9.144763690979685 4.838872876957441 1.388300870257885 0.4888615846671 -0.35273812733724413 0.3652192905233904
Ni 6.215194239434579 1.8973194055759284 6.970891369811461 0.72057171555503 0.3479841575920265 0.009729054362305825
Ni 3.507527685312124 4.339252953581882 0.5778192624526517 0.3762290113703327 0.5291741682432176 -0.7454309406905549
Ni 6.0864743155290615 5.592350075948964 4.886068979174621 -0.616871411750886 -0.3058000680248088 -0.011471233864393146
Ni 5.4057043814637 2.957977353988639 9.432807007519042 -0.6269732760715783 -0.38993967608820584 -0.46426924003971654
P 0.36895801071341877 5.679730545885667 12.309641357317155 -0.20146033086445303 -0.9477168527800969 0.0468778954984612
P 4.019709171648738 6.19309419080554 12.56363850665862 -0.061166287096675306 -0.04508840769820622 -0.1790120291632659
P 2.466650588918546 8.453381401998948 1.434488076829199 0.28135479049825096 -0.06588708961111234 0.019922192845223754
P 6.221754768366107 7.72977401148522 5.819206308076587 -0.8445932474150293 -0.01320055785067404 0.2662927539588059
P 4.802009382204634 1.0331975776580489 12.671295252326065 -0.053749682917630014 0.26507790771509837 -0.18850119960062375
P 3.9861033810833884 6.087620377667031 8.09293854272953 0.12393745678662525 0.026413199886206124 0.9138965617965422
P 4.700497153936745 1.0347677730281806 3.7132918620454425 0.040968729102877834 -1.198134073159227 0.8318138362621739
P 0.20585080820201482 5.638120368577174 3.67197767558833 -0.03988269512755067 -1.124927567068566 -0.9149214035166309
Ni 1.415152113498271 0.9712380293171008 2.7110126946008735 -0.21058389043227604 -0.07161190791003151 -1.0315402151546558
Ni 1.922668134281102 6.3600312261622545 4.769828498817122 -0.6543287852663957 0.30952611072614433 -0.082186083881452
Ni 6.137252989941313 5.91081998863472 9.01049032896624 -1.2199138880384797 -0.08324306439105664 0.7981619525356834
Ni 8.502589881041068 2.4842385818862867 10.197479519017376 0.03196395450110624 -0.2623003449699612 0.36308604623047147
Ni 2.244305510041089 5.279439015837928 7.051603923891897 -0.4253594503483964 -0.473163714315869 0.14193415047436203
Ni 0.6235823357918036 -0.022049513605632454 8.936804850372711 0.53981596422778 0.4951353334909537 0.9960649050661813
Ni 1.3911209050461963 1.1463509095320872 11.40026541593872 0.08738356892199145 0.14867918250767945 -0.30725788351725797
Ni 4.126338071036539 6.754466107961628 1.6644079947508432 0.22910380361333446 0.17961598129585193 -0.289508787063953
Ni 5.409647918111674 7.9343506151684835 7.945118184798606 -0.3238371280321778 0.4151663118654785 0.028343069919067317
Ni 5.199530510076335 2.9534472501046953 4.695640377222924 0.47275310914101165 -0.1679827679322978 0.8330878178785911
Ni 0.670859655010887 7.459321395147 6.881792709078936 0.4753992885146071 -0.30193390020118327 -0.2402675335396378
Ni 4.852201489380916 4.325644593707406 6.864463708106154 0.8518473578742813 1.1861807574520926 0.6868766372954299
Ni 8.408161580161417 7.167084574076033 9.31395043728912 -1.0944365975685602 -0.6601988708939275 0.24610470904670514
Ni 4.5801967258952105 0.6171030238621791 10.504677414250077 -0.10129529390707714 -0.3025368238925048 -0.24445997435443056
Ni 7.9424813394701435 7.165324872368126 4.687187492147048 1.1188301959215765 0.1421102710409101 -0.38943779675112283
Ni 7.46116231385681 6.274789470609006 6.962121738428162 -0.6540662756336284 -0.7526629396626199 0.15720830302461314
Ni 2.439858002401756 5.0387749909756 2.6256247484442006 -0.5133796244131222 0.4839474351949342 0.34179628361375974
Ni 2.394638180564225 5.250940872281168 11.249024017405398 0.36754742443593474 0.1881844396911533 0.2931700379656241
Ni 0.9987074241830848 3.181396302113485 3.632196685644928 0.04192235126539877 0.5884242121537866 0.2057864690436327
Ni 3.531847665326522 2.6548123341060066 2.9228112945756117 -0.1783761953514799 0.6226126851100374 -1.595358455834304
Ni 0.9306656248107066 3.308970163881032 8.258576106055791 -0.2194462259189124 0.10818070817300078 -1.0654340396886233
Ni 3.453870319387965 2.5376162003594454 6.817800930868139 -0.012879427065829433 -0.8643755722482791 0.8146013290386294
Ni 3.94868039142858 6.774905720107308 5.938485206716403 1.0561495290629035 0.3864321771555796 0.43021060779311066
Ni 0.9144673449866457 7.551439523528066 11.387321230657587 0.2534619207427248 -0.3247267297259827 0.16896467222959288
P 0.19343272861098967 5.573354321614898 8.006454167047162 0.7578442267532433 -0.4846879129053846 0.24613093429895028
P 8.447912790537455 1.5816740397341458 8.096901030011283 -0.3363334607269756 0.6871311765083972 -0.363025111085549
P 1.7631398943202399 3.2149840444561892 10.349288534152889 0.36072140265303687 -0.12227523859285394 0.19559950120830186
P 4.101422499674849 6.042319338827597 3.8429918044405937 -0.21374891842381896 -0.27698391512406495 -0.5991300286070649
P 6.8991948053534315 4.196139572116824 10.41729513949111 0.7172549924769711 -0.3252358081519173 0.6610046546246745
P 6.393131666493539 7.867951204056818 10.012532162283026 0.314933912005277 0.024205650711926055 0.9770940203906334
P 2.2892365603162976 8.394318593392553 5.692465371784115 0.026708619639437877 0.35756048842655197 0.5377133160624804
P 7.017897965690866 3.9289627081887066 1.5010156303216453 0.18427867687884392 -0.09149193466341018 0.2863699843246552
Ni 5.335668253489027 2.8725821885429075 0.5058221950875795 0.14183207767885897 -0.2309269728650023 0.005191314392952349
Ni 1.2708746216725972 1.0540342507019242 6.899701960409761 0.477990446280551 0.5077517367033836 0.19535833173177322
Ni 6.759763261307992 0.9237351073149525 9.303503223610951 -0.03709381952850386 -0.8917030564186386 -0.21539288178514518
Ni 2.7178908722509565 1.591465200519163 9.217098260108221 -0.052776520371083296 -0.07607457166707544 -0.3290893775700526
Ni 6.372719126681825 1.8653560032712913 2.59338430592196 0.314755991666516 0.5004189504873963 -0.16280508038610025
Ni 4.197718791598278 7.221599230575839 10.340453026756936 0.03892830163408134 -1.3022575805437184 -0.7650464009286372
Ni 8.294566066832571 7.0195493780629015 0.40250875419970056 -0.10657325447656485 0.8231913847004855 0.1916582571723667
Ni 7.326585741702927 4.094654416182902 8.253504555492492 1.3929439885866979 -1.1988395838666837 -0.8740156664412044
Ni 3.1854391039860075 8.396583645334525 12.393536715461071 -0.11860318905790543 -0.40609700257435866 0.20036889757248716
Ni 0.21427842576618777 4.802451563659441 10.182198088903691 -0.7751222971074005 0.8043675671257632 0.20052984863038367
Ni 8.500667745329354 2.1173723601774457 5.717718444909269 -0.44800958364774457 1.6651744481861774 0.44050761884374456
Ni 3.5505817204322327 2.7512710600332415 11.614916537502529 0.6796911752905842 0.22347822989644092 -0.5408513474708299
Ni 1.3628212919385336 3.406818602951947 12.63164511199684 -0.7211934082994289 0.16366742838639553 -0.29764632856942286
Ni 2.9292626317601362 8.55281808466264 7.829141208491727 0.44625120619574116 -0.5408341210796492 0.3401644044372916
Ni 5.738134594365511 7.758416540823141 3.468830491138566 -0.9169546318965756 0.2744462363038757 0.2471259512223679
Ni 3.0992137202985974 8.253677818429885 3.6804179269083552 1.2228701424533261 -0.2470328772879294 -0.8316269170623485
Ni 3.369206106959364 4.028634017746786 8.991405235930081 -0.20203162998689078 1.0127907024612945 0.09444201843066961
Ni 7.2072147971276195 6.139743644666349 11.472167730134903 0.723413041658567 0.024411853185461185 -0.806346545229005
Ni 0.6462319528003886 0.07776527932247593 0.335317026113911 0.10485215802040009 -0.687932332253454 0.38609227731765766
Ni 4.699432308800679 0.26448226428718924 1.5791788729534477 -0.2725983844618596 -0.38612313055559305 -0.19405581087026577
Ni 6.127452805044973 5.527177943977171 0.35400325342961175 -1.187175003044562 0.5180155805232369 -0.35937877258221335
Ni 8.037676689812214 8.881864255818478 11.36657209149354 -0.8492726551685695 -0.1087005852322128 -0.545514557274454
Ni 0.1559610087550397 4.801016729959148 5.753392561789758 -0.813493183576115 -0.514760563921049 0.17768508282172624
Ni 7.956468712020167 8.564874297389629 2.564341106041315 -0.7415853416922196 0.9477299654062192 -0.09888488469337163
P 8.345092066127789 1.5500986742163803 3.5229029661835645 0.6505191817123185 -0.17561328789436206 0.16675018107677733
P 1.908978557404723 3.1104036183386174 1.475181404427316 -0.8356247253678318 0.48228084612578875 1.6006811535987981
P 4.683486704093651 1.0816931519056827 8.233481857289915 -0.6386088034279775 0.3362115904371306 -0.2316268271455043
P 8.518526461636773 1.6502211893405891 12.511098325716198 0.5365277803948115 1.1125312502867422 -1.4865118319425301
P 6.311472483135362 7.65950325661616 1.207806010050102 0.3487557456507284 -0.5805226979185227 0.8145781891101779
P 1.542121359807205 3.0468648505162146 5.922517041731069 0.2856194793118758 0.2622052141529936 -0.11629125309527713
P 6.870182287451284 3.7898289598169126 6.044411127832175 0.027922180331564815 0.7140701669910864 -0.8433421486167477
P 2.4520495767985846 8.566904722437213 10.169664500687738 -0.01706698278461577 0.41932378567727785 0.2298255122707074
