# total energy = -340892.26373422076 ev
CRYSTAL
PRIMVEC
9.12072517215099 0.00000000000000 0.00000000000000

0.00000000000000 9.12072517215099 0.00000000000000

0.00000000000000 0.00000000000000 13.34910322646821

PRIMCOORD
 96 1
Ni 6.502703205014991 1.9211987026007986 11.280419135068819 -1.2906403080197644 0.08027883955641012 0.8897212501019194
Ni 4.60684187735936 -0.21284763062738998 5.843556594629893 0.9915598181069762 1.9365659568241294 -0.3956457253340476
Ni 2.7664801632895255 1.343957117681899 4.890804715396745 0.6717279545794496 0.9881757321260919 -0.3466592681330159
Ni 3.5799029304276884 4.294849226261684 4.966053435522777 -0.2098758086216579 0.07949388176126955 -0.10277573510734558
Ni 5.508069867174673 4.462059483594209 3.0679839802666318 -1.2104812818706703 0.1326262428098748 -0.819011285180867
Ni 7.406858947658742 6.1606030396286195 2.4391081451534986 -0.5184603813701394 -0.7135569748000936 0.7807890084748746
Ni 4.935060298805291 4.5697296460231875 11.583203501881165 0.4435394636915329 0.46082293336232893 0.04512825979720615
Ni 5.90096335188057 8.013569596093781 12.59394495271308 -0.8448390448772483 0.36859154942973293 0.05756108624392022
Ni 1.865452829431301 6.657609603887822 0.3838466372587714 -0.41738877343809405 -1.1211650147023402 -0.27493757411799746
Ni 2.955853783155081 1.8819157386379344 0.5060616203591172 -0.037916315429799216 -1.261009629637525 -0.38674713729283716
Ni 0.6475167735267165 9.290279605974847 4.678340155232888 -1.062650306295899 -0.3734748456639632 -0.5090591426608975
Ni 8.963912691769329 2.321334043212549 1.1289314578475593 -0.5786982431152743 0.2831018550963447 0.664188708779611
Ni 7.023596948893126 0.7889710146217837 4.7252754077411065 -0.2515554477486313 -1.1008854385176976 0.09648964498831769
Ni 0.6344631914455344 7.460324639497681 2.3334901459220228 -0.27436858898840494 -0.3773199304416663 0.7006986307801868
Ni 7.615158072567934 4.071655956901283 3.9903136801874672 1.1520305939329447 -0.6206270221385763 0.06118788436323011
Ni 7.655216298183188 3.7230891972614475 12.767869888027837 -0.00502367846683651 0.2662037937894254 -0.3595268681243034
Ni 8.01263016138559 8.93673293030907 6.799339290887621 0.29588486579362594 0.6225900594022181 0.6991737094952282
Ni 6.782089263085679 1.0847825869252832 0.3535630929713562 0.7453733479797422 -1.0419637244808249 -0.053243689815488944
Ni 1.9047449141194874 6.782818921111457 9.339019850024336 -0.006265778404053724 -1.054380610087939 -0.48081223200006223
Ni 9.194968026357495 5.007907531953978 1.373195426847386 0.010225791493066261 -1.1005925898676272 -0.8900644923739511
Ni 6.6215918595903185 2.060052624906497 6.898602880787095 -0.2461515031242406 -0.5051358963470913 1.0156579967067605
Ni 3.6168692301587044 4.427984453790341 0.7126898283892754 -0.11538391078965934 0.7977899139082453 -0.28699501950316375
Ni 5.785631780180914 5.8820378468369325 5.068614167626238 1.3049850067772106 -1.1624358484266688 0.01261228944737183
Ni 5.149771293616014 2.5918273940940573 9.339646443853972 -0.32711759855566247 -0.19887200131198654 -0.6973225152191024
P 9.31572642962388 5.744013910535558 12.412917708589902 0.5311721725098529 -0.5600037520295645 0.4827482726805106
P 3.989788326408907 6.135995322709231 12.802738420934737 0.03130755186402995 1.2428355298316596 -0.17449280113667368
P 2.4025084985804357 8.505778658833488 1.6152147853454109 -0.13792811463876248 0.893417468006584 -0.7655217979031591
P 6.536832959170793 7.733298827666838 5.837215866385876 -0.8527413304434605 0.9932222934110638 -0.3353312447147063
P 4.757981416674108 1.134089228017283 12.651079000276622 0.21189206772073832 -0.5214842557981277 0.870131758005766
P 3.9441208547204787 6.322723932231337 8.212208048741662 -0.7353439887681981 -0.988776084714252 0.993192982835025
P 4.627573286016799 0.9441957268083605 3.5978105625253636 0.09278185711942731 0.2890179634704635 0.7011817410641925
P 0.12338426008665618 5.61556673582253 3.733450341227506 0.7134926972210616 -0.009717484398080038 -0.39563184137697666
Ni 1.5535057819602367 1.3387947871495143 2.605544964978698 0.09876841372016537 -0.2819065492366629 -0.09339609366465851
Ni 1.8552284963450765 6.487444231550892 4.875586785196597 -0.6719130740070621 -1.6796577294040167 -0.9865775344010363
Ni 6.049439639401226 5.678134911533059 9.345854009508283 -0.5763366848616333 1.6189645252890181 -0.059417936947000906
Ni 8.510384625121217 2.4879058497725173 10.128859157696795 0.7931773548368986 -0.46015264676818174 0.34124683886819296
Ni 2.337249708899848 5.028401801753039 7.144987418424342 0.2414859793277712 0.9362420193712778 0.33924780616029315
Ni 0.8356007228317076 9.238473886144552 9.314269849789918 -0.6784426475954638 -0.09453123571036623 -0.22940333713162428
Ni 1.5110579263105572 1.1299940223475997 11.610075894898067 -0.38344146995837186 0.18668548654812364 -0.2604072417123064
Ni 4.2192931376922935 6.917568517022151 1.5971931441812077 -0.3133130885724023 0.031874223000777364 0.204679352022383
Ni 5.540302510463451 7.796505454149923 8.072042566134627 0.15555096992684822 1.1490365443016277 -0.1750378750068663
Ni 5.497964103517638 2.5285113189071056 4.881433170128149 -1.2343719724453386 1.1134776733604115 -0.39248815354167244
Ni 0.5259001100075094 7.274197997846841 6.679223898756454 0.36164802823236425 0.8628851037456817 0.696588465266555
Ni 5.246159118821388 4.678932090306302 7.420192536007317 -0.897996345626518 -0.7570716102532767 -1.1810956296197015
Ni 8.403881915533486 7.44489237225246 9.385768127663447 -0.3598641968590641 -1.0062017363898672 -0.4646266233791353
Ni 4.572137517508258 0.2102463997654887 10.678575305665722 0.8672500655825968 0.5361205176540638 -0.5950301475060784
Ni 8.217135064560734 7.401295305212179 4.448295397010425 -0.12760025035019318 -0.25001689961691775 0.936166428938336
Ni 7.383920323473322 6.310967317290977 7.229033078123668 -0.36798245509082433 -0.67179300348943 0.029161194944988485
Ni 2.15758054077715 5.489919623783427 2.5004203969871552 0.8278034295512001 -0.3771037006658021 1.2753571566084487
Ni 2.4389822791440516 5.226111764563116 11.605563872081156 -0.8783402619584872 0.036899187019194514 -0.4174461090385907
Ni 1.1865060364441646 3.565027027427124 3.9773649864474914 -0.1960867252573655 -0.1350263676109352 0.19553496651895358
Ni 3.618209976781073 2.910596744106153 2.8141779084346834 0.004939346283146333 -0.49491756105319273 0.293579614699217
Ni 0.8068622294138789 3.5679000559036274 8.293064190795803 0.37987894941809414 -0.857334863351414 0.4498597494826059
Ni 3.8310421021754153 2.6595305381610044 6.887776579829604 -0.2602059243347777 -0.12470261708742393 0.3579574667546545
Ni 3.857473964159251 6.770405613947896 6.085442790538213 -0.03803535750616675 -0.6894269145211094 0.22912437243862474
Ni 1.0101476916134382 7.8014032836479625 11.703292443908898 -0.09648450278199514 -0.9889334362277226 -0.3756687679914885
P 0.24036029856191038 5.748008788226698 8.181118232335761 -0.09671615917682698 -0.35213108988086456 0.9476726298057228
P 8.616923817610239 1.5389126214446613 8.079571724888131 -0.220773172260452 0.42987842126467257 0.24489654767121696
P 1.756268626598832 3.295555197781705 10.548381512053487 0.22512759257440582 -0.7320624898034489 -1.2154391400965776
P 4.096044776412938 6.135493682816508 3.7260817072396724 -0.9861119076185275 -0.7048915858156118 -0.17510858034380164
P 6.535984731715825 3.9399800454241842 10.32594526289483 2.2512206470260905 -0.8061814804060503 0.7982557978010704
P 6.308595928707196 7.681502228561868 10.254727903361227 0.1286860272152042 0.5222522443124039 0.434740120232348
P 2.2259951014192314 8.37786048618915 5.808181861467607 0.7440754551039249 0.4508018016809011 -0.1802101632364251
P 7.087177525114423 3.9962731621130154 1.5706819318870688 -0.11593541241775517 0.4635768419583823 -0.6899645321921344
Ni 5.269827401032586 2.9125120964238222 0.5541570291283241 0.5304651191404993 0.3173265806071696 -0.26191699348861347
Ni 1.4163118316631853 0.9467677713492306 6.925888442661091 -0.5767961409965551 1.2690600107458272 1.093888181264258
Ni 6.899837826995726 0.6073737251659658 9.29411304682778 -0.30108337927542983 -0.4128826580376244 -1.1070254899771643
Ni 2.7312559220950563 1.600304223588622 9.276678780374331 0.5633569847725137 0.19818525965760708 0.03834774654026299
Ni 6.503387259414159 2.105875148925403 2.5545774398055197 0.523882323716659 -0.19029274428340776 0.7164854613007983
Ni 4.103532891902494 6.898487959648036 10.601403936641766 0.6022945423779756 -0.3330984987294457 -0.2075132219267523
Ni 8.152824830313659 7.058693499933084 0.25148758345503647 0.3064790963697044 1.1881481655911086 -0.10585180292950802
Ni 7.506393423100287 3.9091884767363205 8.253283235230345 0.3262794189250832 0.30735507121675454 0.17703767904571446
Ni 3.2437129950501244 8.273738285910522 12.853477927974861 1.0807261899610032 1.5916162151830524 -0.609415469693473
Ni 0.06549228024883709 4.840095306750185 10.513033228994635 0.1747383414885765 0.05093226807349292 -1.1012027126478003
Ni 8.70934412730044 2.2336200277886196 5.79827675376766 1.0014176847376626 1.1474182919719143 -0.07572567296808894
Ni 3.7250775153816944 2.706283376162778 11.494605688173513 -0.7908641333226897 -1.0816451022308466 -0.11648511427363811
Ni 1.1377740010474657 3.349102976148544 12.637422538251641 -0.5312737310847238 0.509757968500135 0.26709365259354645
Ni 3.0211490557369576 8.50190235057154 7.7820737304725505 0.820565259931548 0.11191266441160727 1.3412172496363675
Ni 5.678144032258381 7.8311368481984465 3.534509080498927 0.0448778343492969 0.7302143808511167 0.5983741242776469
Ni 3.0897186687095166 8.18054271456793 3.713226956970515 0.6379333746275078 0.7367696654711311 -0.6166202149720283
Ni 3.42737704086396 4.251553143157037 9.345333216092387 -0.2546767669864324 0.8117103806440795 -0.007699168416470611
Ni 7.152682574378711 5.975972196930626 11.54861679938672 0.6844777980459502 0.1860671362378344 -0.8534226727812012
Ni 0.5346195234155655 9.124738441376289 0.3797049158899447 0.19809501393664594 0.1905827647200008 0.2601431894176423
Ni 4.941162064045866 0.20702860787180438 1.552633840619431 -1.4568958088483102 0.625203328655349 -0.13337494805044126
Ni 5.981517597926544 5.728654609092915 0.18699858299164518 0.17646072349632191 -0.9048771319067513 1.8787012232968614
Ni 7.965211510435294 8.702749842892466 11.381419311069646 0.004955030012430177 0.13842999397584546 0.4484204459329181
Ni -0.02437605049620394 5.0000454667262115 6.066459824925047 -0.05213785834581988 -1.4781464906969706 -1.0205250949910747
Ni 8.11078740730348 9.048060503592264 2.764265651181287 -0.5833334278944405 0.6829081395659851 -1.6803020478562352
P 8.670626648307556 1.9341501325583716 3.560392786890896 -0.3053118155344806 -0.3561193851046512 -0.32119737641648555
P 1.867614441332671 3.500160428935392 1.4870631221328228 -1.1490905374680145 -0.46020792548614936 0.7561136172153816
P 4.984959787043236 1.0066818159909892 7.844560731727712 -0.8295875180348165 -1.147015657216857 0.5868077595962862
P 8.34222581235518 1.468382052527822 12.334798696204965 2.3674800184421674 0.9495343656048099 0.23948874639208434
P 6.490116604070307 7.836280937280187 1.4675338250728542 0.19619753980361693 0.2574003365651825 -0.6412585823459989
P 1.6961356845493398 3.1853768358891124 6.223071799433136 0.7354907987587075 -0.7106344018366599 -1.004810255358979
P 6.891309948819436 4.121573686589873 6.057662885351752 0.07529835562268322 0.16076953801331023 0.27774161922569585
P 2.6180768415714484 8.516623201241625 10.421911710590319 -0.873223252446896 1.3156340018506243 0.10505013296381907
