# total energy = -340897.8028624316 ev
CRYSTAL
PRIMVEC
9.00056617818162 0.00000000000000 0.00000000000000

0.00000000000000 9.00056617818162 0.00000000000000

0.00000000000000 0.00000000000000 13.17323839294816

PRIMCOORD
 96 1
Ni 6.551350062653323 2.0253973921581756 11.43234176416784 -0.8300040367469448 -0.5144790281248882 0.6620292392344469
Ni 4.674867036816335 0.35285189345418216 5.9266531708651735 -0.6538685578005254 -0.5614055174730976 0.6842338003559442
Ni 2.803118308754201 1.593082200671967 4.800920865269939 -0.7952985149449593 -0.8342401863154794 -0.44218140700174174
Ni 3.234263426645864 4.320919774466336 4.634134074820374 1.3906294815209082 -0.12350808255869053 0.13265632471686187
Ni 5.245799946991731 4.466548934156686 2.9089541655506705 -1.0134247365008675 0.23255165295261884 -0.28334225324192497
Ni 7.284203157181586 6.06043218521261 2.716624668532179 -1.0338513797863356 0.36007862686271536 -1.9328368287989999
Ni 5.043989253630977 4.585014385321356 11.542193673563434 0.30207171133062816 0.09084993020403709 -0.19226658018032694
Ni 5.463505640106081 7.770818764020815 12.269896644162474 -0.05841572093473165 0.527813026229633 0.4313796884005474
Ni 1.7304758423699385 6.486635992308847 0.2952005673377054 1.4144862335338477 -0.04263506106170722 0.3304561760105922
Ni 2.856374658438243 1.6332697283615474 0.4113420723322868 0.001075235342049761 -0.7231387049512579 -0.11863841317121503
Ni 0.5143652522187914 -0.029145633183515995 4.590070003306404 0.045319035651773566 -0.6727679658081898 0.883284236227324
Ni 8.551059839128168 2.444850774670496 1.4391365178942332 0.16677614921870632 0.07305558233509353 -0.5970376648544105
Ni 6.91850115548946 0.6313852124658932 4.841679028851012 -0.3691895880250481 0.013751288147821478 -1.0153924017501996
Ni 0.8162451396681288 7.340168677265305 2.4317009475810276 -0.45920750924609305 0.1234792862032841 0.550135086765601
Ni 7.645215863929417 3.901799412900156 3.6848974703395982 0.14720131241057227 -0.8593164125578169 0.5441379886419017
Ni 7.445403296245502 3.985585682835722 12.60869955397261 0.8792157225849052 -0.2774863086817802 0.599252156007226
Ni 7.797721456129248 8.841148084914323 6.960949625386347 0.8359260586583346 -0.8129044009521805 0.385483182978749
Ni 6.959138711484636 0.5587677450185689 0.2711384538941838 -0.4876817054263859 0.10297319583013233 0.31526815541624414
Ni 1.7689352613660363 6.5402973674679235 9.033034754080107 0.45441934382883037 -0.17147741134911756 0.3564834533122893
Ni 0.2447325930351265 4.901825311893705 1.3525357709354797 -1.2870117101282414 -0.5603176837255576 -0.12675050075538816
Ni 6.496320601445238 1.9073909698652107 6.9503982617333815 -0.6768781313218215 -0.3357978999384797 -0.07017054747781463
Ni 3.5125879325237794 4.286825630034504 0.45481390659609505 -0.23889173623803373 -0.3129492774750804 0.23313503625991464
Ni 6.017013454288862 5.700130523187618 4.888246157800699 -0.6621899331820273 -0.6908191668829459 0.17054461512220306
Ni 5.377721244493675 2.912889213054788 9.335386271193709 -0.7578946203752044 0.11601768771891631 -0.6824993341633407
P 0.12767483041035485 5.510470594077913 12.260688164973402 0.1921909897473851 -1.0015876346566233 0.7824823370168976
P 3.900557334776715 6.115353639627351 12.654002103383577 -0.3743492778491166 0.9578467421252471 -1.003552214582162
P 2.339166127384706 8.487128818035428 1.3334608711745553 1.1842262048288832 -0.03296617051337548 0.3475018186389693
P 6.18961731061654 7.767740570410549 5.8711277784643245 0.46876249992437974 -0.7841473834241464 -0.5718423965357055
P 4.779984648437076 0.936283889789158 12.441029807987471 0.31962668949525597 0.7153102100457746 0.5046985516993566
P 4.000292607862547 6.213513813643603 8.131839571278148 -0.28613369994413296 -0.49935605644052067 0.033925191992535124
P 4.681599460268027 1.0021860348604026 3.8094500043657393 0.2453403200768549 -1.1989072038798256 -0.9528690864049975
P 0.1722312328906456 5.567147158884472 3.567313174597281 1.3749881754392257 -0.43936502059886906 0.30397921276598616
Ni 1.326413427908947 0.984760938867787 2.552512846331067 1.244615761660534 0.7682577087770833 -0.67255276447359
Ni 1.8053155495902882 6.51163056440156 4.87051504256028 -0.09174981631048715 -0.6823931476027796 -1.1622890384361595
Ni 5.8385952322529056 5.478761599665731 9.240368194807118 0.8088094049472007 0.6772601972515885 0.29230409042090305
Ni 8.60255207785428 2.2394218537327624 10.223552234492102 0.5951003386223817 0.943674307279607 -0.6035911497022122
Ni 2.517152322247293 5.01797761756762 6.914171883189643 -0.7849768213039772 0.020695580676138553 0.3745907044359613
Ni 0.4681770471024153 9.076800906855775 9.21320448628144 0.4558771593212794 0.20598110155294203 -0.13766611922662741
Ni 1.6678589039295333 1.1793531782068076 11.330157437042963 -0.6186938096716054 -0.27507589946807465 0.4127903554341343
Ni 3.9747310001047844 6.859070417452664 1.659920404618848 0.12690091029032338 0.7595426975015886 -0.6221028353531544
Ni 5.705701873610877 7.842805291783696 8.052484280039463 -1.2651195380408404 0.6483298873704834 0.27454342400337234
Ni 5.2506692532582635 2.7489709030250826 4.81327774248495 -0.4753036434770072 1.0881749329295647 0.555511777696482
Ni 0.6718409570256076 7.306443556044061 6.774429993793079 -0.3400067958135048 0.5066849860017661 0.6840769630631057
Ni 5.161167623841648 4.5486070953987685 7.119331687200631 -0.3808528832955893 -0.4238851797957151 -0.44065725704773134
Ni 8.251845019304561 7.11208533142395 9.126406626924837 -0.7456841943519416 -0.01425393881585287 0.3426277783761196
Ni 4.495143732694154 0.38137378740614425 10.335037746637004 0.2655247654445298 -0.883142311332821 -0.2558203936725723
Ni 8.018199323606058 6.996176041035055 4.715294879621102 0.6330225675894517 1.459210573024416 1.0527644146407547
Ni 7.154667009699292 6.20653837490689 7.097332503509954 0.6608349618160296 -0.8682772212955304 -0.4339628757466913
Ni 2.279006343492846 5.2245586109676765 2.522701171255272 0.3851180863298464 0.14621812256169658 0.2840714180984656
Ni 2.276675196869867 5.15517324681113 11.33023664202475 -0.20145955953350467 -0.024517525525390032 0.2848381210611611
Ni 1.0988431143359685 3.4185320166545488 3.7721831603794667 -0.4921320278882557 -0.4623303711457909 -1.1501038092238773
Ni 3.658100084854674 2.571749756282006 2.6727055061326097 -0.13537758030276686 0.5659062335569286 -0.4836016218197413
Ni 1.0384763174235352 3.419711090815206 8.124963138768665 0.10721603026688632 -0.4697125225424749 -0.14445254602084154
Ni 3.6550578935088556 2.6094351265924813 6.86292806008822 0.2295961698687207 0.2874171946422469 0.5995928271760964
Ni 3.964497356435568 6.704404689385979 5.975354334039989 0.663709198040031 1.2746107653607275 -0.1808233713403918
Ni 0.7759487051285948 7.308072658510313 11.433027607305565 0.6925749732317878 0.7211162752045903 -1.4880791764296502
P 0.18034434318390152 5.525987570054808 7.887225785715697 -0.11277424108095416 -0.47127369638200767 0.034416529806656854
P 8.5451014643621 1.6208939499577013 7.908632732156212 -0.6295466932257093 0.7843258179835395 0.7312682760369277
P 1.6677778988345262 3.133196069775473 10.363649646250085 0.8911158164566008 1.1372896881783445 -0.41965982886045794
P 3.916650346984771 6.193118530834065 3.732175644012124 0.14744659565215898 -0.39184023554502845 0.5853556005307918
P 6.9164220247176145 3.945992192509526 10.438144631788349 0.45596586238034376 0.40008396361105936 -0.5333853781110879
P 6.354687693108567 7.743205027189543 10.138743500246227 -0.4086513935650962 -0.1539211476329091 0.5048139942312985
P 2.293092229457951 8.483654599516239 5.83731175152535 0.7159360165552314 -0.23482502236782787 -0.46273326301116435
P 6.837253045197447 3.957503916566631 1.6036182633625433 0.3543430099305188 0.07477359346746476 -0.5759109101781242
Ni 5.2813881853981375 2.7348940176260896 0.47537119959564744 0.31587339310041085 -0.112270047751026 -0.09880003828904921
Ni 1.432314088781422 1.0378912806262626 6.987639004077929 -0.11589144655369718 1.0442239812699114 -0.025228178439169458
Ni 6.803851944356231 0.8151452704892561 9.355831057116864 -0.02387834927949436 -0.5499702790529625 -1.237237981139224
Ni 2.8953741114010536 1.7256155366695192 9.167691323623457 -0.5938528393685256 -0.2810421443538385 -0.9279008464954341
Ni 6.317380346574792 1.985533884848623 2.6801741758922546 0.780927848045584 -0.157665959387322 -0.3685167303277395
Ni 4.014657511377121 6.775734175822692 10.28699452484497 -0.002924629845962705 0.7668124916901244 0.4948923642422122
Ni 8.111535194186338 7.091987067296103 0.31207662879749554 -0.7363251217345448 -0.3629621190580975 0.9753965780835523
Ni 7.542852425538913 3.7772585796099603 7.88817444538389 0.7733492643673778 0.8385331572638783 1.1189001299275634
Ni 3.052280980429599 8.39913928372561 12.355746743907497 0.2400533606463027 -0.6528869106135466 0.016919658573474085
Ni 0.008558638315794379 4.891006631427215 10.01380844216033 -0.31538616905134714 -0.746844790318946 0.6906525593980944
Ni 8.596278683274294 2.304351937663923 5.514752163377338 0.5023961288184251 0.3537187460829586 0.872517227518807
Ni 3.7477997267257503 2.685831931750187 11.302703910288482 -0.3564217468364184 -0.33239401646325334 0.4970124959090086
Ni 1.1393546624055768 3.37434823761129 12.655661807774608 -0.7308034205853672 -0.12034922521473468 -0.711148108248285
Ni 3.1089485446700458 8.32005130930045 7.901966912893748 0.5404841939393982 0.24128363350897802 0.40239152869831346
Ni 5.571971462320444 7.825398196923304 3.6426110106327254 -0.6547684439069755 0.46540001121005015 0.013620676107228155
Ni 2.967324636899487 8.320132314395456 3.7428593159869354 0.8260643353729062 0.10830309268347801 -1.0097269759343064
Ni 3.3113892776586327 4.430609673671916 9.29992404071287 0.3609000943227462 -0.6854828422716969 -0.48853479745530065
Ni 7.123633057745502 6.185936079076778 11.51085460241845 0.341600879773502 -0.7916930569818882 -1.5978226011040806
Ni 0.5240129590341243 8.851795754624685 0.26090391016835585 0.4514564045457644 1.117873745545578 -0.1892131380659838
Ni 4.77337823291095 0.39117180367554566 1.6108898207243376 -0.7680113970942322 -0.5125175335231431 -0.216618269551814
Ni 5.924748651075897 5.689392847816136 0.47826668171384185 -0.279005573539784 -0.012182915219437082 0.5122925619965306
Ni 7.9552403636534015 8.6923597265187 11.33351644831592 -0.42906106756969975 0.48847566208259097 -0.22747166732655016
Ni 0.09601263894195496 4.879341897746209 5.75125103853331 -0.41088953886699553 -0.6708828329703349 0.25030460606066574
Ni 7.793410184961654 8.718317359185384 2.512057101771353 0.35240645502943824 -0.36693730165576166 0.17809054579026104
P 8.493609225635987 1.5159563496591981 3.4417588775628873 -1.2431358346808976 1.2769442985899104 0.8468925849721671
P 1.8740798746851128 3.238187673470647 1.5351563572890776 -0.48366255696466376 -0.23750668296504907 0.7960353931109839
P 4.795132601203384 1.1233606564247518 8.091674545003846 -0.1627163773270359 -0.35579542610632914 0.561624061241807
P 8.674547606183273 1.559798107190205 12.360805062062378 -0.7820488490239048 0.4834771804267351 0.602933204403239
P 6.193100529701841 7.689408643538787 1.477234114132633 0.35886660883248517 -0.5097155452979738 -0.7962063714712094
P 1.8073046747010153 3.191141714403808 5.805077124052233 -0.9219883376657411 0.024638110263654343 1.7071659621266146
P 6.817307790693503 3.791740490483988 5.833505412116633 0.6399987417969687 1.0406012969156595 -0.3476044056551046
P 2.338599091719657 8.427635076035848 10.110460121296228 0.3370518269502389 0.2305528773550352 0.19652741233920992
