# total energy = -381164.67073885974 ev
CRYSTAL
PRIMVEC
9.29967243512253 0.00000000000000 0.00000000000000
0.00000000000000 9.29967243512253 0.00000000000000
0.00000000000000 0.00000000000000 13.61101063410240
PRIMCOORD
 96 1
Ni 0.2569927273524041 2.0302207848505387 2.7107959213827404 0.05645756876709632 0.1555219164611257 0.38084825530989896
Ni 1.3893710589785693 2.8860882366572027 4.900916203724466 -0.20347710418416567 0.4741057665141641 -0.5174316829953088
Ni 1.106344828664287 5.494358059553189 12.986441988600271 -0.31040388534540736 -0.6625648000229428 2.4051366524526774
Ni 5.46298096482097 4.5451404960328246 0.29334700676176834 0.1643045477497622 0.2609068070565442 -0.4281251860189917
Ni 2.456554967098286 4.1425948758256865 7.427827842487427 0.3978000526728891 -0.872233377729801 0.5111877589681261
Ni 5.976201986453167 4.412155180481328 3.246294308287917 -1.7827977898293166 -1.3114778135904057 0.39516467193257104
Ni 2.763360459780763 0.02349004255605066 1.8520502209632652 0.8194679131023113 0.5601343640701579 -1.261395552222034
Ni 7.584850021333046 2.8768071635858465 0.4709856293868356 1.7214211864940483 0.18205312998243484 0.11816635863080294
Ni 5.965665457605625 6.951021548135299 13.057763966261746 -2.0174991421350867 0.39595657170624715 0.1266959933683689
Ni 8.353430747841365 4.270651364996603 2.2873306880753863 -1.284029744681782 -1.0790372322943544 -0.4322716040871975
Ni 2.7721300508692286 2.747244127483508 1.4389290132844381 -0.10509384171756095 -0.2714002503887003 -0.21461075220348202
Ni 4.5254902882174175 7.909315591933864 0.9164752768774487 0.13221075253901102 -0.9411147740825468 1.9679053903673591
Ni 6.24663646031593 1.029510935161737 11.799071904075458 -1.8542906556629806 1.616720723560164 -0.8088294595518587
Ni 6.4093249295647325 8.036972195190884 3.5602047506963617 0.7880773146061718 -0.3929941466438135 0.734399879687374
Ni 6.457683226128912 6.101152385037076 1.878033505694096 0.21103537614739784 1.516729236066175 -0.7759118828882315
Ni 8.837999478759285 4.404073765151661 5.8303989324104375 -0.2581161316852845 -0.7016635657966175 -0.449034168257517
Ni 8.900502577068488 6.432704306019031 2.3117348884299487 -0.8105369291612686 0.962379082777962 -2.3755609956780894
Ni 3.869872682548541 8.335538178112618 4.0299209747983875 1.6374438150401285 0.31785082854175584 0.8472743937916183
Ni 6.42331163687868 2.8756354048614075 5.485169053238753 0.5334473416972748 -0.2253515356597538 -0.5976945817121191
Ni 7.587909613557972 3.2252379900031833 7.549224836241111 -1.1045520887360074 -0.08805668372961609 0.5171105522104643
Ni 2.8088172585510924 1.8283527957123336 6.407955087817828 0.6428097288832026 -0.024389227477641866 0.08368323725226878
Ni 3.421042592726033 5.318110667921585 1.2888778688819942 -0.14988091612526447 0.5684711660706274 -0.7096946636312099
Ni 4.040605368437347 0.5643097020177709 10.387106360994519 0.26016941466988736 0.6583813580692146 0.8009305164197561
Ni 7.0367273291228924 2.386044850838745 2.9467974281573235 0.13251491404299112 -1.6417540123797079 -0.11151234364939505
P 4.148872154706614 9.347844719304407 6.412010674958527 -1.3444812650996198 -1.389035140450595 -1.9786050361730505
Ni 8.575088439881219 8.809235591976014 9.400717076859404 0.0968071762287365 1.8730489101070904 0.24128723305340377
P 8.584509008038818 2.0978294033162292 4.6246945437171085 -0.5903479115390607 0.17727704875003017 1.6738820032625044
Ni 9.03752395044861 6.702841190364475 9.744313003587566 -0.5544331999203226 -1.4025920531994231 0.6322903174091176
P 0.4804340965616832 3.4691962964970577 0.3272033941601444 -0.6104847914982519 0.44029601705357074 0.38133907890338836
P 7.675847315925451 9.345240811027873 2.124093538154029 0.5235611929318144 -0.20575278759221982 0.8609009834361173
P 4.730548064994375 2.6484258083890886 2.5926528830074806 0.4781128307910282 -1.215533756692913 -0.12123959823948799
Ni 0.613983902228842 8.471796978354613 1.7703842176732638 -0.923901495528054 0.5434232219630641 -0.38196180008905184
Ni 3.53301994828936 6.20447174558093 5.7770439218570395 0.042215457025785365 0.6827911543721467 -1.4178782899345324
Ni 9.315667852744394 4.1498300209654815 11.053869624054196 0.1025152823571073 2.9349795646281454 1.1269068022821238
Ni 2.0688423243949696 0.6606338489701686 8.336689477557742 -0.5021289911999675 -0.018905321544935186 0.4111224808134081
Ni 5.380967153782603 0.47412519879454085 2.3525678900749494 -0.4209415237863589 0.404832019819006 -0.3693286847060736
Ni 0.8110848792865086 0.6671966277942729 5.893921274816456 0.44356286073030055 -0.4077995870877622 -0.3105440104676974
Ni 6.321582520317993 7.119661807730462 9.241699188313271 -1.0235646531483467 -0.5606485847024151 1.575185837541171
Ni 6.592649371905057 0.2582993313268786 5.655946377555157 -0.6560460250678185 -0.2050030539103889 -0.6022642033606724
Ni 5.829536852777458 2.4485758481651967 10.050492628316432 0.31323904080135734 2.704800782783077 -1.2514924341757092
Ni 0.5435267941020727 2.667118149945628 7.392738318526664 1.0443443088978595 -0.5396470427500836 0.1501441970889801
Ni 3.6630293686676754 7.591759677938274 10.416533314421063 0.28913417733335367 -1.95807297765797 0.8285043122729666
Ni 9.064855687679788 8.797118118817721 3.811967342281901 -0.8572937257008332 0.5154431918103703 1.2767797479875882
Ni 0.6380933029678109 8.450630923935368 13.112398611739613 1.0602956900207934 -0.38542019095129754 -1.5093707388185749
Ni 8.22139399887632 7.5303167422845165 5.892519814183336 -0.11497330561480198 0.32887417623545295 -1.4592149438997901
Ni 4.1850478804055875 5.854394877145928 7.888043521249075 0.2795449909830218 -0.05820051960013202 1.253489667111396
Ni 5.379739597023665 7.5847663242813 6.438334327699791 0.704505920341419 -0.04279909744339726 0.11456398599152529
Ni 4.639467073350224 1.3120535825103776 4.561307976528368 -0.36829458701460444 0.7851490852157833 0.08879150501311159
Ni 0.5709905866815608 8.008552396287012 7.621022957130294 0.1559230085542863 0.7804223691640753 0.34388839025609813
Ni 3.6242125360025046 4.286674700569696 3.403637325831895 -0.559432710017443 0.41861184721191774 0.13244395159573966
Ni 1.0774972448292701 5.863313262993054 6.847250223512018 0.6491852933922433 0.5986255781668207 -0.9996343675849946
Ni 3.9905731308382526 8.552239144754644 8.474214893182822 0.4839952577137342 0.018606559357593762 -2.1128153356405934
Ni 2.0453513518716773 7.358747085878253 3.244021468349401 0.2803849703858139 -0.5024151549818185 -0.9138510532705875
Ni 6.579620530849977 0.7033658437225551 9.119826051331879 0.5105483256119143 -2.3299794503935485 -0.7303244240664196
Ni 0.7025177135981987 1.295444367575065 0.6207847526668008 -1.1306171612541753 0.29465253604842156 0.16890682240846394
Ni 1.7122835842858843 6.343548346565031 11.085719142145157 -0.41075481306134426 0.8247803264541601 -0.27872789439836515
P 8.632560415413264 2.6663183781178352 9.87725182077698 -0.823766283367349 -0.9150203909883403 -1.8719677612277696
Ni 1.868666875636511 2.776872883801485 11.049540626544461 -0.5295999429267266 0.39475535230929437 -1.2702799991958573
P 5.213526551929127 3.8560440696656686 7.93217046686389 0.14089671034878312 -0.21278038386296255 0.16924569380512142
Ni 8.07548213866632 5.908146983711498 7.6168576338550835 -0.8334683411464615 0.21274233153617553 -0.20397589819745518
P 8.705572143552759 6.94660420373761 11.995397288453615 1.9033449899874704 -0.3317859505656092 0.48540087981200924
P 2.125840016633789 7.029733975465919 1.0193668524901587 -0.36504188440526164 0.7609017826326444 -0.14872623369553095
P 3.472934764808365 3.615954426896929 13.088374767986872 -1.3631058221793428 2.131513683381045 3.557067230472648
Ni 3.9811060643185723 5.505712959573356 11.92875769585369 -0.3650172018149133 -0.6669883830119352 1.0976980419286515
Ni 5.018512421361653 1.5115501551824544 7.4702129594586895 1.141935157370156 2.3157489086164635 1.1391228847323414
Ni 0.3510068356766206 6.382300081523288 4.259647062626527 1.0718168032865154 -0.9129072013000794 3.71089453284017
Ni 1.6856586221583365 9.219453441926508 10.952385088878055 -0.1925164914076039 -0.6375430811676246 -0.7758918282835734
Ni 7.007349663960153 5.8482663930236605 11.505305482087719 0.18444245615021784 0.2639329954773777 -2.0216419606588665
Ni 8.63664297160397 2.0986849731785187 12.018250303449157 0.26059596068434476 -0.8458888262980012 0.16566723242524373
Ni 7.933494740215955 9.046860821554464 11.78894549078147 1.4301290822774273 -1.961376588109906 -0.446956716903198
Ni 6.6753327593573895 3.7200921586134084 11.972244824006271 -0.1819824246454995 -1.5633842169205527 -0.1882579732415661
Ni 6.730089230543907 0.34522336940099296 0.26251394286589524 -0.10791588454738835 -0.23444784153406717 0.2548618864140449
Ni 1.9403022522584112 0.5910499800832795 3.8814786737239446 0.37830440584212266 0.08325309169338564 0.42646939558312363
Ni 2.7257711838745284 4.6509800678014654 9.90179272631606 -0.15694296517836845 1.0172986176339769 -0.5877117594677943
Ni 2.0264172188323175 7.830658962637742 5.741641928903093 -0.5819424610841849 1.7058120192018817 -0.6413344298892568
Ni 1.2470860710108844 4.490504920587716 2.514225955620038 1.2310979296797573 0.1766047052733539 0.2684133998462345
Ni 7.570537825484532 5.52397751619875 4.1150845848841175 1.4606172235639554 1.7405321962918865 -0.6267498472068624
Ni 3.529402375719462 2.6040012732569555 9.378026806131146 0.27585931460131846 -0.2747424273880559 -2.1708078529949777
Ni 7.338566796735124 4.591424965648194 9.420180361259245 0.027006867606147036 -0.2889883957841088 0.9477014261611291
Ni 4.05475017018237 4.076260312481014 5.725049453378129 1.3666668000577238 -2.2511805378167744 0.5647816330341823
Ni 4.173246596109444 0.37883610538206486 13.047623603459133 0.4544070025336561 0.3378984912212503 -0.14470914211633787
Ni 8.276689851062976 0.9601167795921383 6.970185383083339 -1.461311935638135 -0.5806332553544581 1.5352568625567171
Ni 5.133251779632587 5.009826527324933 10.046300335991214 -0.06335943809325217 -0.6734253968865306 -0.8278440529811485
Ni 0.40558754305447287 4.624513200104993 8.68197329482944 0.3156229676525016 -0.8440517730892625 0.9391841327187374
Ni 5.530617482303908 2.2003117933426273 0.5029188445295438 -3.051867313656841 0.47626009385300555 -0.03863005366737218
Ni 3.0383796721447065 7.509652870175745 12.759819201457413 -0.38387675772357754 0.46566714882850774 0.03925637439746143
Ni 7.817676619944743 7.679883373754076 0.3879070058568152 1.503000573626173 0.21578677478945418 1.3158376332209982
Ni 4.262421154908276 2.6798494014833896 11.640639894891546 1.491598245326502 -1.372445868633346 -1.6646512286928554
P 2.0291048241605956 4.997067376769922 4.69673817595808 -1.0233839045961084 0.10367844942727306 0.6950396327221966
Ni 2.1134714523202582 1.3947090709454615 12.624253226810426 1.6516432464689619 -0.809406157990935 0.9882955455334075
P 5.639767737452713 8.20270165731978 11.234609687430062 -0.09097925669304976 0.4631505530542411 -0.10964983651935954
Ni 7.872395892441596 5.368765983572563 13.77393452893415 0.6836378186431581 -1.0896484321512976 -0.9236317868064351
P 1.8855922794339741 7.00920959844339 9.099776887569819 0.5342135304393381 0.2731781682247295 -1.4994804762880563
P 4.742600440445755 6.540636304081315 3.1248563959756024 -0.25800763113187825 -0.5395251724602386 -0.21431867488435993
P 7.270911679907353 8.03290823834501 7.7035594097584505 0.7568178423712579 1.8127843088890778 -0.9817749708060705
Ni 6.329394245147592 5.389504253060663 5.783277492277611 -1.4362297958585264 -0.5073115638421715 2.029193033533247
