# total energy = -381168.94796934846 ev
CRYSTAL
PRIMVEC
9.22497819411068 0.00000000000000 0.00000000000000

0.00000000000000 9.22497819411068 0.00000000000000

0.00000000000000 0.00000000000000 13.50168806216331

PRIMCOORD
 96 1
Ni 6.483508259336063 8.977610209942455 8.304537365480384 -0.6676527560688115 -1.3574331972745977 0.44159956635634273
Ni 8.345302543239736 6.169877457466301 5.130439224426765 -0.18528552087680347 0.5283131057945031 0.25176087889121807
Ni 4.347990428368458 2.699948109584034 12.359323860753133 -0.6731168645071763 2.087134643045038 0.41989225658623813
Ni 7.229938128813381 8.115379191695471 12.863287176106553 -0.2030983806885083 0.19463379486092286 0.04757595000675032
Ni 2.92167968066885 8.4247480537316 4.285503194924573 -0.8528919970887119 -0.17760846394751992 -0.050152709594991046
Ni 4.57595808457781 0.34444960835503974 3.0509354598440415 0.014964077509000034 -0.0712295848699483 -1.8922589073766376
Ni 7.260943279854156 0.845201708868445 11.505463587538696 -0.6524716774529988 -1.0314995917247074 -1.662758125435201
Ni 1.1186392816145359 4.7317402879772645 5.940405207345986 0.6400419363300783 -1.4800663334275026 1.547645466029057
Ni 5.935120217452722 1.4509322139679293 0.31008103033733336 0.5722830836175499 0.8817297472560105 1.1164125876190192
Ni 1.604500422648614 7.456808012641344 8.795917810848795 -0.05832290411060923 0.5197657304451242 0.7660031084149518
Ni 1.5339108910318302 2.2638741747882962 5.361385626030662 -0.4189792578536655 0.002989935866259367 -0.012871456646029447
Ni 8.33435249435982 2.192887969117733 4.298693990959445 -1.5092041313337232 -0.6388818545837062 1.8112015377829906
Ni 4.651944228321595 0.6943281162600635 7.255887991912965 -0.9652579469876538 0.09061390293383104 0.48541862042382206
Ni 5.22804410410154 5.127224319595552 7.416679358363636 0.1832029273161619 -0.8225735486108284 -1.5003610791207966
Ni 4.245095023813622 3.1262158927712194 6.364763420088232 0.7724468071577665 0.11455421579951239 0.11114827544175696
Ni 1.8638791289305152 6.311241020259766 4.395285045552583 -0.8424399485174524 -0.12033482703703147 -2.2533716319308223
Ni 2.798766073865135 1.0298765433478483 8.890401880467904 -0.5736447398517669 -0.8789521845108734 -1.423888243574038
Ni 5.1005918081243475 4.82358416889424 4.273743192976706 -0.3249905249103306 -0.3936721465474446 0.3308266719761334
Ni 3.160182261748349 4.914071978045969 2.8990821745726043 -0.9484892121697471 -1.403323274938493 -0.682363837026741
Ni 0.7509916210957838 4.708594818188123 1.356608658965931 1.0219574565622271 -0.35666960118116636 -0.9172580220696074
Ni 7.067873715399417 3.2141760579523524 10.609558632117022 1.2398409659797098 -0.6080399295021851 -0.977291224003104
Ni 2.0311187549996044 2.9701384900759287 7.608457425899093 -0.6650276597411385 -0.09811175397277297 -0.21422508672928914
Ni 8.802031203766 5.111034483214546 10.352081193799863 0.49412154751445864 0.3282182878190089 0.059635709384761815
Ni 6.542040744713545 7.641593546856684 2.3845599494062486 0.9743372835811026 -0.0899256186175548 0.03699123251236855
P 0.8652835634654885 5.548750464093372 8.086728255038988 -0.9610737337029772 -0.7200068441904954 0.7458423171963607
Ni 5.4229125392652815 2.3118901852516207 4.32946482755915 3.132482710617063 1.0676243624717225 0.2474437395731029
P 6.2631604349504775 7.796840701532437 10.114289858523769 0.1484542109810669 -0.7329898867137247 1.2337194264630043
Ni 6.783320044169502 6.022287034526296 11.584596371276534 -0.2753031849875323 0.7412832370707685 -1.039332714615881
P 6.130449901516205 6.744695061304959 4.454125645195094 1.0120353123525088 0.008116201349231184 0.6589883955255941
P 3.3413608295676944 2.3287442200482578 10.403914500157468 -0.428507766169391 0.9484611871452893 2.253268787804371
P 8.686174705128364 4.006703142470061 12.545363069477979 0.039898121746518384 0.40474563075278674 0.07999961775309448
Ni 4.640394555872012 7.479049434586987 11.903101651518789 1.0452999879429095 -0.7130535528011138 -0.8611598935244589
Ni 3.2664263333153247 1.766823135446435 0.8118377309543805 0.30701105761377445 -2.393051696263685 -0.5313493215176655
Ni 2.2169836116403467 1.251211440378885 11.989688217476484 0.6856826169873288 0.7407132234999114 -0.25354368182325365
Ni 8.478299050991849 7.795337030119272 10.763761519283753 -0.2504763557518396 -0.2130441790473105 -0.4620750606018752
Ni 7.89696861268881 5.069356032633701 7.4572794090168815 2.040663496066692 0.281490801855483 -0.29812943885342846
Ni 6.862276630827637 4.054174879231688 5.595099521033022 0.2250543161343092 -0.06445395670901158 0.0616087739507326
Ni 2.5728924876606203 2.479655635066418 3.1892741523529873 0.04450785260438787 1.1271821674306974 0.37649203522373226
Ni 8.754633266828332 2.8115334434100423 6.691463248283333 0.43738964204005315 -0.4577990589343406 -0.5399866854776894
Ni 5.400025368859995 1.2964599574437468 9.920216616463188 -0.006587937630162847 -0.20376146819380392 0.09889336933380388
Ni 4.595404338191006 2.8490698788711883 2.2239032676343027 0.6230070923349786 0.32202964250979377 0.00907573704902308
Ni 3.0360325078933212 5.170959940269254 7.803624750349868 -1.971490536615456 -0.4906528722395679 -0.24735966449972882
Ni 7.644979113780804 5.818470370707527 0.31778665445645243 -0.5533034571912536 -0.062369306265840974 1.4901190896778145
Ni 6.5156296327142185 6.906399700577124 6.662664711978932 -0.8398153664104117 0.8550684359147404 -0.7958171064525907
Ni 1.5698329553438735 0.6009870214145195 2.606285063006469 -0.6843142758848925 -0.6464861492935253 -0.1694534389405533
Ni 0.9249793185681243 7.035558617483369 6.335788686704129 1.5233829939372667 1.1754284040315952 0.5433401753309545
Ni 3.665987805207347 1.387842589460979 4.972914422684078 -2.1229771066649437 -1.8834436230778528 1.273258879318523
Ni 6.487871673927638 2.0446148978061065 6.784975927719581 -0.31593021448027525 -1.920151005801216 -1.1627006720522814
Ni 0.9222514925750398 0.26066005572538936 10.250616583332032 -0.6006667769665656 -0.33611286007573726 -0.3945550633730302
Ni 2.2330073984174446 4.478357817392032 10.069640042530775 0.47383811467507425 0.0760753429980238 -1.4784357398026151
Ni 6.81696353891681 0.11490171341516593 4.112640944767607 2.730629313810407 1.7404411792399768 -1.3172368275613702
Ni 6.39102785493744 5.244040215944654 9.22589219019432 1.4112407300133567 1.3176955123653435 1.7508279217909395
Ni 8.937684505180636 8.501684370208858 3.2903476237538354 0.06747963090921281 0.9349320423106027 0.6537857682787321
Ni 8.373309576432177 0.8292295819681185 1.5785763894874159 -0.23124990342205984 -0.6614430277136737 1.7069607880943443
Ni 2.455744492103702 8.288716528219172 13.006135037859393 1.34207445543034 0.49429946785321965 -0.338975526335513
Ni 4.507001374066119 6.876031073017995 3.054419734032706 -1.4221357796593055 1.2889256393215027 0.9968845727539992
P 3.6406560156334202 7.852661043379425 8.154101036828958 0.8204680722320515 0.022214331313510128 0.22532711017972162
Ni 0.22360331911997636 2.769845767851202 2.605393930132164 2.0948425532122568 0.6023202534095885 -0.0021489280222027505
P 5.225719409646832 5.993791077500127 13.46777138667893 2.9727236161461383 1.2633393062119662 -1.1601961604628728
Ni 3.28115862317314 8.763046446759658 10.492998267658376 0.1902374655654401 -0.4971202251314664 -0.1741331038044098
P 6.900255865232538 3.3170253376172143 8.298016228535808 0.6203868811033122 0.41245842601601224 1.5429889410936521
P 3.084666591882302 3.878079274287519 0.518860732317345 -1.0044096774864508 0.2910879586256148 0.8161000250713428
P 8.302268020893644 7.852089094743743 1.1685039776680335 0.8134307057692959 0.30463561540306244 -0.8901387972553122
Ni 3.5718469047696475 6.314635812161881 5.869277859512101 1.1302330384418795 0.8518180472982426 -0.1941126322501302
Ni 1.687765074030356 3.7220848963941817 12.06421681469708 -0.31314031043996393 0.05645011256792859 1.4293258696498414
Ni 3.5644023475277833 5.294251771170758 12.435148567382006 -0.18015976961446392 -1.424650061440727 -1.5611707542090014
Ni 7.295167948215143 5.039623928556218 3.3821453797808365 -0.11668797431306356 -0.35900930505793655 -0.4731120351423272
Ni 3.4377802995701283 6.320382973452688 1.0806923346326174 -0.8520831280341712 0.8290959231103787 -0.56534496173682
Ni 1.2228077331326648 7.179625098829333 1.1934842955803553 0.7300626857646008 1.2574249976100602 -1.1826691447544082
Ni 5.066911413465059 4.042523732024161 10.62252064869762 -2.4122077003668454 0.4020513717500754 0.23232848119821922
Ni 1.1078829572725115 2.2848425497706475 0.4171184500118683 -0.7369966938802727 0.022822397211154245 0.40893035825809576
Ni 8.167564892212479 1.8156232690393237 13.21535753878316 0.04345112920509936 2.7070132170533636 -1.2444350131082953
Ni 6.445104675943399 4.004673647311189 12.707788179531542 -0.4068904450099315 -0.7561257014002397 1.2550313005669032
Ni 2.3298235424736577 6.7989563818708145 11.27147940068109 -1.3511486498174665 -0.3419698330771465 -1.1066984456550488
Ni 5.232555118341035 8.686239279974327 5.272422705741486 -2.2765812372780663 -1.5492588332627641 1.7474024410491584
Ni 8.48791147806251 7.4587637079762565 7.759069029132421 -0.27477893705294615 0.7938036755669877 1.2868314757966355
Ni 5.354121878357497 4.883518850926943 1.7116900544600644 1.2178598337229283 0.682652057691121 0.2611232939427245
Ni 0.3763006898779448 0.01706159680152137 12.626279041462224 -1.3045247793113406 -0.5161214488243175 0.27970877025439567
Ni 4.159542577889151 6.104813687668448 9.537132800265612 0.32723304108760415 1.3890559663862012 0.7812785465167835
Ni 4.162273171375634 2.8910896536378448 8.613293688977652 1.5953689973572651 1.710065652271913 -0.6151600854867342
Ni 5.1131470031753725 8.485651358453765 0.520005552086509 -1.3182310731538396 -0.9732579344739947 1.4158792572266325
Ni 0.38096668374775255 6.1422209734376665 12.557798339815069 0.27040189103117307 -0.04591990246056608 -0.3856402773819036
Ni 7.6468333343577735 3.6253148772279427 1.5824785551792482 -1.0999760393295508 -0.7789810087318584 -1.1778570680777458
Ni 7.869579653022026 1.2745783096399035 9.086582107502515 0.6539202369740673 0.9856946175754507 0.4434129654159977
Ni 2.5861580060172504 8.945046037620546 6.675936687820158 -0.34322504564048634 -0.3961769152471693 -1.1392211008731026
Ni 0.7609628998104443 0.6905836976919437 7.717821385023936 -1.1219813399560483 0.4242741877040177 0.1443497018943901
Ni 9.289552840839153 3.205790552955011 8.893264391139713 0.2466245861059172 1.1982358888444138 -0.8321362525985992
Ni -0.133018647699301 6.46193103580605 2.6318567020082626 -1.4430964410713727 -2.826335543665481 1.992246023995253
P 2.9265965939401184 8.576314442187396 1.5796437194414232 1.4701308194813454 -0.4242734163730693 0.6697464053730465
Ni 4.724203480955451 0.6156676513955636 12.156150177900606 -0.39359964143829634 -1.842798338752665 -1.2905834866398997
P 7.489113885579395 -0.092676896429913 6.460990088050573 0.7272673824076508 -0.059545463663800674 -1.1209474993748954
Ni 9.214729044322723 2.410274575566963 10.924931109832213 0.5974223018873388 -0.871855168454776 1.8918071645512
P 9.535306254622624 4.618881907187964 4.031738810250353 -1.4149168933133631 -0.3770283673431765 -2.271137697664992
P 6.435030999972995 1.7491480776082544 2.4238906430873985 1.0913242771918237 -0.23113060423537615 0.5163911575459365
P 3.1696101892591115 4.113731337166602 4.94888151001183 -2.010646895099944 0.4411935891671756 -0.6880570307567763
Ni 0.2723268853955078 0.03632796334381786 5.375372537666492 -0.2367296955897084 0.37852629204494165 0.6049803167402549
