# total energy = -340890.8910698395 ev
CRYSTAL
PRIMVEC
9.06733262567558 0.00000000000000 0.00000000000000
0.00000000000000 9.06733262567558 0.00000000000000
0.00000000000000 0.00000000000000 13.27095783770121
PRIMCOORD
 96 1
Ni 6.276262410145757 2.1398995137951884 11.39160433088853 0.046024803469546544 -0.3320389471166798 0.5366823036948047
Ni 4.523900683137939 -0.0250530394219351 5.905549965360319 -0.01598197725055312 -0.1590787805744486 -0.22675278688265466
Ni 2.6026236208455655 1.4039585468599947 4.8330704227230505 -0.004316110876850632 0.5460179792734339 0.9266965417746879
Ni 3.4853646993410665 4.390601829521628 4.804365061810289 -0.6506276822657246 -1.606305441764111 -0.16917396002692156
Ni 5.193106083607175 4.485953897042826 2.5811213487915747 -0.2644927246355897 0.4142563984566995 0.19318934910491245
Ni 7.380409611190955 6.264039646070199 2.534739223364494 0.6552741798988005 -0.5975814531730225 0.41136853538594315
Ni 5.165532325777966 4.397973570763044 12.007854696673732 0.843961013147669 -0.1672492322003829 -1.1454423991924658
Ni 5.831881516541118 7.708746784736989 12.228523645099287 -0.5062800372538636 0.4954484938559984 -0.007641575705657807
Ni 1.9628054446855923 6.7167443508182805 0.3565547119756619 0.3937608496065089 -0.2935747296032105 -0.5876816775608074
Ni 2.814572515701785 1.5947170858967918 0.49859356729258963 -0.6222630150801026 -0.07474993931838095 0.2717977429374352
Ni 0.3908654977782687 0.18710531081273002 4.843408088392594 -0.11409193145111317 0.49621159727426795 -0.13102058888565177
Ni 8.671860697628448 2.3254080673722317 1.5182504582988683 1.0362085671646026 1.3042496712730829 -0.8732348224111219
Ni 6.924776158077585 0.6635310638531492 4.656274668849424 -0.7142316322696151 -0.4585091976274877 0.5179939832566821
Ni 0.9201800939761998 7.64299955750266 2.377664917461445 0.00814756880779887 -1.3515818807001432 0.7605523697130256
Ni 7.782028965195939 3.887500891292866 3.741547668578744 0.18846648970794638 0.08861846977035706 -0.5489004430275515
Ni 7.522630719889127 3.7737512063315286 12.675649220221485 1.4109687072988926 -0.5699593205803797 0.7603250841935679
Ni 8.005067207577683 8.696025138475157 7.077732988337673 0.2390254336024206 -1.2039887321677911 -0.4551001719459388
Ni 7.085549028866703 0.7994168274032564 0.27545467752120234 -1.720815434589249 -0.09677915120427849 0.22295192507932574
Ni 1.7454252177216139 6.529766889392395 9.251808184682703 0.9492901108044876 -0.3303546174357214 0.020025808302623575
Ni 0.15618480059458276 4.97413907347315 1.326908889788734 -0.058090990605461246 -0.622665906945476 -0.3217990145562264
Ni 6.4415780144674075 1.7023281868231492 6.92356476246891 0.18729226689418713 -0.7772655687026485 1.3848789521903762
Ni 3.451208058189265 4.501051005489269 0.2475245735286628 -0.6980303399194042 0.13951551373054039 0.8997799198895019
Ni 6.116913110543481 5.584379611343455 4.632784837533294 0.12276297686254985 -0.14869486623696326 0.9382621351251001
Ni 5.154588055570844 2.5544488838029524 9.345461034112091 -0.10151743722021227 0.9635944432423018 -0.6908500201208813
P 0.1361342084578744 5.692144856920618 12.451091292929457 -0.5389597868750718 -0.5977020379112867 0.401628939500676
P 4.005231135177921 6.229293628312378 12.355646738617777 0.1832288954580909 0.5297135856864554 0.3289510522199754
P 2.649964163307355 8.519728994616784 1.4154142146144908 0.9461263683645253 -0.3371418155608839 -0.4047749413288254
P 6.4839133894442496 7.805531490777428 5.820469371982144 -1.2889392661682575 -0.15197559387076406 -0.47125338466703354
P 4.647261740443559 1.2524071531219478 12.777437280280393 1.9040800683812822 -0.998873321049254 -1.5919085496124907
P 3.9009114759128596 6.110021937919279 8.222499118336343 -0.026506273820644674 0.09958216787071236 -0.8025703660160243
P 4.7621539092873295 1.2095912095278916 3.974133811977968 1.3964409459963627 -1.1413826273007954 -0.014366810244633323
P 0.28011709984141914 5.8546133188685845 3.4163024553812007 -1.270312652206006 -1.2591604922439281 0.7149841941649235
Ni 1.555056573978028 0.8262017273136423 2.6506750421675354 -0.07072847686381367 1.7002458379680139 0.9932384913609797
Ni 1.7389964790498253 6.238052671411036 4.905384212081652 0.7222591305597819 1.695585456377867 0.4444262371718604
Ni 6.138865122284526 5.798359588657334 8.960443965731995 -0.4892264242056865 -0.7380516175073483 0.6795065700836039
Ni 8.603012442713228 2.378143672612179 10.170290874033576 0.05008637513342987 -1.0258915015093104 0.3058386345722281
Ni 2.181192145546 5.032868185429673 7.118581320800872 0.594999294268143 0.8782803552548295 -0.3880668845455252
Ni 0.6865493938844646 0.0406143952872717 9.218697006956655 -0.8561981786438093 -0.6292764702834581 0.6451527751940824
Ni 1.4788728471509927 1.0668623302153037 11.572487638208198 0.16810695221498792 -1.102691381378185 -0.3753314392567278
Ni 4.302113732627432 6.806764826888123 1.6577014969487598 -0.048754800806199906 0.2980811021139963 -0.8548041265097601
Ni 5.639617800325877 8.043648706940814 7.942190697781278 -0.6368918207368708 -0.21470099792444314 0.0631969443734589
Ni 4.749341768605754 2.569954022207407 5.655590813082185 -0.2343480827314093 -0.14502384514327926 -0.8914384899033421
Ni 1.066807926220902 7.298150771655742 7.132024547817506 -0.4057036237906819 1.012831840111875 -1.1129002035903865
Ni 4.97550824066559 4.536114379881098 7.020455556298432 0.32688285683703705 0.19330813407096387 0.4260950429628404
Ni 8.423044029232747 7.149809213587388 9.256532264863244 -0.6568497519160365 0.2569789327570477 0.16881426269465766
Ni 4.471618444518006 0.6211612330131859 10.50075161682775 0.3171563735778925 -1.344329312902788 -0.09738078934401939
Ni 8.163092676649521 7.437833027281839 4.487879798444642 0.03484307582111419 -0.9403681257245096 0.4579245287686113
Ni 7.285139149661359 6.117040053197085 6.928368635174571 -0.04004261774418265 0.010108292078595494 -0.3037717247408704
Ni 2.266370666114099 5.616559574031999 2.6509797045361845 0.7189771173744005 -1.362170454849267 -1.4153673505872204
Ni 1.9959284099437642 5.616523304702398 11.34766403807684 0.8123261598512074 -1.3457686164524758 0.602177300073821
Ni 1.392796660675267 3.321790022840267 3.552396767576514 -1.218660989467985 0.2204322439812655 0.7632705399751372
Ni 3.5253788372234407 2.439801532933988 2.8563874257988515 0.4005627030196908 1.3532222445170436 -0.8642938111677502
Ni 1.0847068403790272 3.380120172171179 8.393907063297732 -0.9627961157107225 -0.7665229854741638 -0.7381179519689095
Ni 3.3328612357009924 2.831727908603088 7.614119197074571 -0.8262864786860414 0.5490935328749641 -0.44886704655203336
Ni 4.077878602368852 6.447997685806795 5.812573538927992 0.17229913591946455 1.9679074472498883 1.9475142283055171
Ni 0.6191936218823283 7.581160350532844 11.51907198303823 0.690895785757152 0.8274051656715169 -0.8247510158781216
P 0.10546849028017463 5.590400320057232 7.976428944924683 -0.02125042473834405 -1.6987805662763966 -0.4361670824868617
P 8.526973793204597 1.410994796802601 7.965361358996918 -0.8451352359614284 2.5017857058369946 1.1014464532274904
P 1.7187944624620326 3.583065205953934 10.41070756569367 0.37088574478054837 -0.46449575422822587 -0.022279123113174534
P 4.010735005944882 6.152583996206128 3.7672263539362976 1.251983771989831 0.2978759280817257 -1.3527813003248832
P 6.665958222044391 4.0011145662682 10.120591011681237 0.235291163370969 -0.7729414874059979 0.7455342990376386
P 6.5370116879802085 7.58098807121724 10.150145981639904 -0.5847097394166769 1.33656355291444 0.10908213694134762
P 2.2053112497307077 8.425546612975221 5.598778535195078 1.2392637533200013 -0.6649106745473 0.3480846877256328
P 7.067423431398571 3.946084925930985 1.5636641926256007 -0.7991613403344754 0.42151256579848045 0.04504804137857403
Ni 5.08931232962133 2.8154339122798095 0.8195317976000066 0.5842821649609551 0.4817740816926993 -0.3972158980346449
Ni 1.2931013409343417 0.8296953704874647 7.071748548953498 0.9633332191611151 1.2678382225235842 -0.8146517226605905
Ni 6.825915032917485 0.7134684903143744 9.265809052641956 0.13094088468765192 -0.39926326748197694 -0.10865456248562577
Ni 2.4359932533258766 1.5243636538031275 9.458397379357127 0.8052060038666585 0.9160843134764803 -0.4092445470644049
Ni 6.451243790806091 1.9527225710564964 2.602368828805118 -0.08592112544385201 0.20676734489966328 0.38259609123894106
Ni 4.227806943607251 6.963928899381934 10.18822061712186 0.09010071074283839 0.6451815715494889 0.7394526116199329
Ni 8.0943169603935 7.453084280379087 0.043625656377400054 1.2092342968374465 0.3295969133340904 0.15211571899305415
Ni 7.635038439655225 3.7345531283651785 7.968188553239321 -0.13147618836583164 -0.009203777986455117 0.13383800372978885
Ni 3.465389366063281 8.471998556861784 12.342773846809118 -0.9636702907855598 -0.5466173034203295 1.2561764699149398
Ni -0.27842422888228946 4.709255092064177 10.021456959815888 1.0741349098967308 1.1185013518272477 0.26656940465896023
Ni 8.443817287761757 2.3608613370572717 5.75151321581136 1.5067381862917342 0.3812992268043885 0.2496096368761701
Ni 3.423897252999663 2.6220458468469356 11.506703234911026 0.5331920311533591 0.6928259129003294 -0.05682266541599891
Ni 1.2478281502598134 3.243928839519183 12.596301901119999 -0.4606108173515228 1.3130685551162935 0.5524061421879647
Ni 3.0171185868589276 8.448858724576304 8.210183867470302 0.9725863623282669 -0.29915890855920735 -0.6664435662520587
Ni 5.776171826273884 7.754319197380726 3.4953315111154395 0.39001243830767024 0.42613180973804676 0.4135907398482425
Ni 3.522794647489365 8.401237094810108 3.6044314680219203 -2.05910704748386 -0.658584475218956 1.1282921126654244
Ni 3.723191760867645 4.48609897436123 9.79322313596879 -0.24864135942562984 0.10170101398592807 -0.3377326550673474
Ni 7.198691202557223 5.747038487271828 11.447448217675289 -0.2233594449303895 1.2481589989271018 -0.619700653669565
Ni 0.7623758678149295 0.165564955962658 0.5369610776110755 -0.6852951517409229 -0.5121321251592663 -1.2970050738955277
Ni 4.668488365592582 0.3325036127839563 1.8104642862954823 0.9168762132501564 0.36976705779507285 -1.3708566697693552
Ni 6.3993877168089695 5.86777001818137 0.5163093213362294 -1.3901121755648576 -1.6007060932994626 -0.8536144770770331
Ni 7.9281399594938256 9.151023878320508 11.279703475003608 -0.19795411748340744 -0.04166832627306372 0.06471286679735307
Ni -0.10400683629725174 4.934623638872791 5.612407642525918 0.16310641367660297 -0.7378994082002002 0.4267429609594844
Ni 8.260475826628378 -0.04940608078256967 2.3877106150276997 -2.175433524692447 0.12991758562946013 0.25053677667612984
P 8.5577573867035 1.7605404608328574 3.5675655079489186 0.22507719895244466 -0.1659145725493594 0.9569797661392615
P 2.0503958756721623 3.4480344918491714 1.493500267779102 -0.6351504125657319 0.37391373297359476 0.09201849659084152
P 4.46358478801137 1.0818778326701444 7.903956477249076 0.7801264351902112 -1.0356233840850937 0.211539569477326
P 8.798467859933362 1.6751987282815533 12.617708059450546 -1.156897435106943 0.26933488321923943 -0.9109863301282828
P 6.441061176520592 7.946374364950761 1.3245831190280655 -0.6216140686421939 0.2655895572441942 0.5489549504145708
P 1.7686103866690943 3.2368653875793756 5.921381527731184 -0.1067761145159903 -0.5067744603917789 -0.009400981598925745
P 6.726827224447376 3.740483163754952 5.936922028732001 0.003051128121497971 0.863091820439849 -0.9069867220505865
P 2.451589065054334 8.344938027936855 10.356297224159391 -0.5316557970144908 1.0071131924605428 0.36555404815498976
