# total energy = -340865.7697991715 ev
CRYSTAL
PRIMVEC
9.25406153089767 0.00000000000000 0.00000000000000
0.00000000000000 9.25406153089767 0.00000000000000
0.00000000000000 0.00000000000000 13.54425446534275
PRIMCOORD
 96 1
Ni 0.2856821348585526 5.391083126939129 1.1102662168379125 -1.3679914324064182 3.4446940814848546 -1.89673828330423
Ni 6.281999396876527 1.0372785077956757 4.593493142571845 0.820325118896284 -1.3201966815206425 -2.0447559209685107
Ni 7.074026764831531 6.472864416845354 9.12686357250197 0.4033556923837957 -1.4101243570207262 -0.35211180660715485
Ni 4.902329864895319 1.327698722180242 0.6263056332834046 0.4390834848027083 -0.20493980477262122 -0.6746484706603542
Ni 0.3487383850193084 -0.3672187459830779 6.591230342223064 -1.5132970704561746 0.16839260177620677 0.5005490483073572
Ni 6.065963329425751 1.324422784382959 8.172928068650112 -3.092402811877042 -0.7549141975906418 0.39078325503542377
Ni 4.1633837941301906 0.32339706280439273 2.853381613898379 1.073917651679602 -0.49209731799557827 0.275692450006151
Ni 6.50875166763028 5.352863852637492 1.3356599913525662 -0.3709654489785482 -0.8483619704288422 0.4278307947070245
Ni 5.091779013443285 2.461932033089295 2.874618759805116 -0.6252542364979424 0.8065244655677658 -0.3158068015285335
Ni 2.725395166108082 1.5853503045304032 1.6921921470297048 -1.0901577676875485 0.7742167545739956 -0.8391815894811548
Ni 2.584511332701759 6.094040152242013 12.887547623167265 -0.010090294356466493 -1.0379103803470577 0.387136659421772
Ni 4.73168496946622 0.1598953775044545 10.346903318545904 0.45432292746028213 2.1815797467995006 -1.6220120538660903
Ni 6.91318192060956 4.639810646157104 6.933087407055763 -2.539334096404414 0.7666471697568539 -0.8403951501732817
Ni 4.304804363107819 7.554220019919164 3.797389360493385 -0.5382367926661182 -1.1633655593297898 1.0497863058490373
Ni 3.672964801003016 8.068024026644459 11.735026435775188 -2.8565732595040996 0.28352968666238265 1.0901305139940387
Ni 2.5853812144897383 5.384559013529286 10.388104251486762 0.6351648107434351 0.1999032707899783 1.1870245935096266
Ni 0.3018573090841774 2.6178352084306193 5.769947184007238 -1.2068583404061022 0.16967532514337227 -0.5493483291982475
Ni 2.093712923050041 8.434216497198952 5.305473803315778 1.8616301267471875 1.3674977805994513 -1.9865515447136364
Ni 0.9750449437088703 3.295991348714525 0.9204931761348468 1.0812386108210477 -1.436318756027907 -1.0502835572004299
Ni 7.719534575881497 2.662476801464783 7.853121581736527 2.6398356907656018 1.1139443285841848 -0.5067240667698176
Ni 7.427874317245981 6.282906294910803 3.753397402581734 0.6649759805675968 0.9963425842076002 -1.592814863476844
Ni 8.503446131835888 7.999303365394106 2.1043847068574615 0.29699223992519175 -2.009073637075553 0.33235236459204054
Ni 2.291962684155116 1.5080141119544281 6.346918489632179 -0.021196431571957046 -0.6636426064681539 0.667099968889135
Ni 5.965852891315556 2.6520844903169043 5.934510310169742 -0.6841512679444669 0.8768132837909995 1.5906165702739445
P 1.873891944415398 9.106672135553122 7.966798474114567 1.7289622320660996 -0.08394728954693284 1.1957920552896115
P 3.7926198171580183 7.2721469690745675 6.087451260401151 0.3703057039073623 -0.13367602423062785 0.11419143314345495
P 4.794390490693312 3.2253643507798784 7.610205241631038 -0.6235483095504294 -0.35587513030432905 0.8014388235147423
P 0.579800272248188 1.882803605711397 9.367504338866352 0.6808548565813822 -0.19589312118932067 1.157523498726716
P 7.598343385505169 6.702679781980183 0.08595912715085754 0.1971971847127249 0.053306681842940455 -0.6308489569769007
P 0.7561808350410046 6.750782394043114 3.0231584783518133 0.39478260600280396 -0.34827597780083247 0.5057984696317548
P 8.580976659704922 7.1171414377059445 7.653695629405365 0.7719757810586189 0.17483115831269888 -0.6396614130622081
P 8.227564048184462 2.0704019419445148 3.6869495388540168 0.03243858014467962 0.04387381856481476 1.0309264928300568
Ni 0.13516852497806883 1.0882128627003265 1.9993076139003687 -0.060964969719146625 0.3968713702110326 0.5352928795464459
Ni 3.515469927070921 7.363068124041535 8.952129307263212 -0.011188669626967828 0.693722970793302 -0.6205357479763506
Ni 7.1857232880326825 0.6065731977886395 1.921333816481928 -2.6523855024061542 0.6599322474961022 1.1754098920888338
Ni 0.2007279987946582 9.07946519452484 10.227510192333455 -0.798550960443986 -0.9164712645022539 -0.7224187960660977
Ni 4.646769700460938 0.13632158105021988 6.404156711281206 -0.2642826655073126 -0.44170292470342637 0.06900069553942954
Ni 2.0088901946605007 8.707692524841073 2.3116118330957125 -1.3559488994195872 -1.5256355374168693 0.8689937877465808
Ni 0.1752117748159893 4.207164759437949 9.986693598799162 2.756253185026098 0.36876149934869396 1.949037864038895
Ni 3.900077980158165 4.581815442271304 5.966853255371733 2.086339143726936 0.3247748093550988 0.07379168917016969
Ni 8.91459483351807 9.033648335670746 4.213401071532833 -0.9602918612316299 0.7126966836823274 -0.41078798029212477
Ni 3.7915648541385543 3.5471095635932683 0.6372087686301813 1.6407217144604518 1.1403009642008426 -0.9223639758376051
Ni 8.10021890686126 4.152584304273045 13.04528402810645 0.8100471340090435 3.143297798954696 0.1370066312657576
Ni 0.187705683347379 6.976600004577868 5.203214572108043 -0.25573400460635315 -1.4742371283402351 0.0742989678238914
Ni 6.8250832544227364 5.837647122265951 11.654275494478316 0.28713540173577 -2.4831164115622655 0.6601695603178889
Ni 5.906395545701025 7.067678478591599 6.96729967269575 -3.278979026540811 -2.7690547076661405 2.186997318270646
Ni 1.3444670817527762 1.4104763029618739 3.9180688012646567 0.8622150742618506 -0.5917525051960711 0.3990773767234159
Ni 7.370286292069448 7.889485416692528 10.88865921825621 -0.7791015934701228 2.873648984039464 0.14505187016773727
Ni 6.522216327220808 3.87637832846652 4.080992107716205 0.7583363358983133 -0.7015782051716627 -1.321579677911098
Ni 8.801639757942821 4.999034808346191 8.000848793677006 1.600769085326914 0.8686551734602395 -1.1418006886748207
Ni 2.4726482363922715 6.08248182933578 4.671494702175009 -0.7482095318769566 -0.28099329339377416 -0.26780661950017104
Ni 7.746315830077366 9.083971922511497 8.2225270624696 0.5083716296755696 -1.818520954262539 0.6353213909259574
Ni 4.389155134357074 5.011361218363087 3.361819190316768 0.2941707113159966 0.45803405776328215 -0.039887837333873244
Ni 7.787089225373493 1.545604110069016 9.998287087139376 -1.298557248873996 1.7342265657888327 -2.5215639169051864
Ni 5.039650884595557 3.015778364246352 9.811430926644514 0.4331072126146154 -0.1622255537335464 0.29054057076257706
Ni 5.639008690574757 7.608855999453513 1.8551154534812526 0.5623262295151542 0.059873536427180754 -0.8570666972916916
P 3.8635336910014666 5.951971798954188 1.3495281280277316 0.9503535190719956 1.4131718855977986 -0.29204877987698735
P 4.257775222187501 4.670904293046571 11.814517899291804 0.05641591689588349 -0.13952142726781133 -0.7741807591297376
P 6.00330407850653 5.631559171007489 5.1201482646052945 -0.8176611989108756 -0.19233702840694616 1.1236206753316842
P 0.8412737820285128 4.344245173537257 12.201192384328579 0.5217989588250691 1.9869305253196103 0.5203992502640651
P 7.6185264937986 0.7916192638395803 11.785953387430578 -0.3378789508372245 -1.954339992978099 2.454957689739862
P 4.01553165235846 1.068307376254123 12.102373813214149 -0.5303851578321833 0.4174628212091391 1.2775744759747418
P 1.5687855343125028 7.748397993931571 11.494683650193496 -0.13731207832131836 0.11220577017199386 -1.1399924318214882
P 1.04563492539722 0.8904406111724825 13.736176533334987 1.1536673582054195 0.2628611025694376 -1.5134927314067481
Ni 0.07051409838344075 2.4714729705723424 11.650456343266624 0.3381735992595079 -1.880502023951026 0.27817639277026934
Ni 1.8486376103792803 6.931856616866388 7.196251633885703 0.13032767658368521 -0.3397990506780728 -0.9810743451946199
Ni 1.04563492539722 7.838856445819827 0.03698200626915985 1.7325543202927323 -0.49563875548993347 0.5873345786340336
Ni 4.946277403311414 6.651051372457464 10.710430619367017 0.5724556046396722 -0.958643784105246 -2.124978967586321
Ni 0.6019119269736918 4.446678381102587 3.0156960030983413 1.8301325703595384 -0.25588827079603027 2.9761930627519777
Ni 2.4916098085579024 2.9031379267646282 12.321547007538593 0.46005905861311097 -0.1415212313066595 -0.20156883141785928
Ni 2.880076805321607 4.883340530544966 8.052276390063565 -1.4831007493784525 0.5984926521333821 0.3380614991616759
Ni 0.98180040865807 6.7245471294801265 9.299809953044583 -0.9654561790413887 0.44420357963809304 0.7563833259370005
Ni 4.96161138333994 5.181765508191256 8.525674387737228 1.7484684204198275 0.6730757268565957 0.7849837632825126
Ni 5.8126333938307635 8.951537047322459 12.443390609255905 0.6474379716838332 0.15231446526742157 1.2929987809496117
Ni 1.3592180559021247 3.228982688855409 7.948974226116412 -1.2257510635455473 -0.5663564337204698 -1.4821358143620218
Ni 3.552208551520678 1.285324374231769 8.489633519530168 -0.5438104300991538 0.32684609006183063 -0.3823155838840448
Ni 6.996662810070833 8.422343536199195 5.922834460681515 2.640789827148755 1.6189131032257926 -1.9742979241572645
Ni 6.056635235358911 3.332489367563352 12.081827020300848 -1.115244535452847 0.1599259590660923 0.011499258888851163
Ni 3.673871699037292 8.425008705932576 0.5383383747709356 -0.15861546778478489 -0.17598275541863886 0.39523383460760964
Ni 5.0688567029238785 6.518301859174903 13.009757685722917 0.0654047506580551 -0.24051410233280515 1.7954643295533919
Ni 8.450994110833062 4.741596069412237 5.0753030822164975 1.3784121135191099 -0.6931107911305999 1.0926779630062406
Ni 2.5024278065381957 3.275021645187284 4.5108192072798445 0.5650359151368334 0.0062606361977311535 0.2010368701737893
Ni 2.5698899154144503 3.1053299181003315 9.84242000263819 0.30850949653617193 -0.3725145386332229 0.8366873623043913
Ni 8.08173854589749 3.4061979680022225 2.0024771299895483 -0.7274247339211214 0.024137773588468105 -0.10631331594695885
Ni 8.353669145256713 8.79492130923992 13.544796062136475 -2.5081741258618417 1.3686095256063913 -1.8691382621987747
Ni -0.24257949226418635 6.449201781400006 11.42659689216098 2.0682892282037604 -1.0886618998683122 1.0175894094015185
Ni 7.571534369124579 2.1398444199976576 -0.08643293510345895 0.7503923984608882 -3.667131785931923 0.6083844573257974
Ni 2.075824822027023 0.8594876260189439 10.898980273129967 1.675539336360269 0.2032480188924951 0.563035853987669
P 1.6392737213235355 4.503516827291607 6.11692359570281 -0.9563030517872111 0.21670260173550418 0.009811329663466975
P 5.723229904961971 8.22080858323526 9.037999595422956 0.6781202312590386 -0.903233168545425 -1.4579874992505921
P 6.436977166060427 8.230580872257667 3.793772873230169 0.27997436521095653 0.6444395511771417 -0.9726650380850023
P 2.89157034979682 3.732634990033755 2.4704587254238053 -1.961887209197737 -0.615207908005534 0.5688144083426591
P 6.142596213322083 3.142309148151019 1.0353240499911949 -1.368716740608217 0.4692592370551402 0.1157081268982975
P 7.478160887840435 4.071703806114134 9.558519274632681 -3.411859808563653 0.4509182726541073 0.061708532753390506
P 7.983256822624363 1.0291997120413587 6.424920049235342 -0.6682569653117136 1.3854263400534137 -0.7306368131005159
P 3.6570200529105894 1.1598022830386945 4.780620447070834 0.22262436653657788 0.5128301796675555 -1.202478723281168
