# total energy = -340886.0171709829 ev
CRYSTAL
PRIMVEC
9.10732565863749 0.00000000000000 0.00000000000000

0.00000000000000 9.10732565863749 0.00000000000000

0.00000000000000 0.00000000000000 13.32949168400619

PRIMCOORD
 96 1
Ni 6.6535661102939025 2.094885225462786 11.261114171544081 0.7358342981410553 0.1588368397669716 -0.23189370765364578
Ni 4.958783908563764 0.6259228023600832 6.130965915696882 -0.3709543932349547 -0.5786429643973067 -1.6209185636915955
Ni 2.927158166002894 1.7813017939513018 4.802242644259189 1.6173367598776083 0.44438304263875084 -2.000838907870586
Ni 3.9495374189666403 4.7204087710062135 4.702404499231264 -0.4875742333142442 0.07002785125236329 -0.04004467462671168
Ni 3.809794616541216 3.1376466728887396 2.5085435924651156 -0.581844759164056 -0.5953667049098907 0.28034820361060747
Ni 5.127852299089414 4.938192245615127 2.5099033161618127 0.49816614989747754 0.6695268331630727 0.9296638519331281
Ni 5.697579260203028 2.9583143265280096 0.37508155766228735 -0.6700834769974912 0.5222116208824555 -0.6598448299886185
Ni 5.848606038919191 8.140318783022375 12.479283618774122 0.006923466592710657 -1.5254280493917536 0.89604899209216
Ni 2.245830038249477 6.7912597644825095 0.48677744048725974 -0.8893376415102555 -1.1077320291258859 -1.1669915861181515
Ni 0.6148655984742186 0.15445841896341986 -0.012650985847833496 1.3920037361606157 1.100672294065627 0.5007580789943699
Ni 8.274615404800615 9.15340856397922 6.564440912248057 0.24268539895251104 0.34373360984578866 1.2269995912406675
Ni 8.800663632830785 2.6165072933014324 1.0597930568378267 0.25382958849478865 0.3388893943796099 -0.04408799145814987
Ni 7.343500660641951 1.123543424584029 4.781648249112902 -1.0396229921627902 0.14992822442343212 -1.9812244760737687
Ni 0.5416554517343192 7.38016675309273 1.9620612582174055 -0.318596962679161 0.057207816669559534 2.1621224094058378
Ni 7.912171171997916 4.096447686558176 3.839359727302012 1.4929431893901708 -0.21407262031182486 -1.0044587855568314
Ni 7.664943714057316 4.23832160314989 12.806375946195253 0.7505014132349268 -0.19211488509381108 -0.9121782935538547
Ni 8.229233601849241 7.660854524909179 8.67817830148956 1.1835044961715102 -0.5516926610607079 1.4441169119160873
Ni 7.205542894013932 0.8548217677380425 0.14268264709584466 0.032218236603757416 -0.5806859629692643 -0.47640381851972147
Ni 2.1739368107764387 6.398233132661003 9.067879848772124 0.4538994667696183 1.6415154140063406 1.331674600253255
Ni 9.15267997793946 5.07716092537331 1.2614793336308558 0.4536343860336897 0.10655885629886164 -0.024074524450700473
Ni 6.566436327264443 2.206950865702935 6.853464619091877 1.2179117700067863 1.0498287290511983 0.747662401124235
Ni 3.765023004398138 4.346234302963423 -0.3807180814123587 -0.5889044942243148 -1.1780355026371387 1.3639247185362124
Ni 6.1291207715511975 5.85775890104364 4.93776329058422 -0.2591510007077021 1.330986573047295 -0.29361586725379113
Ni 5.728808279332118 3.2160061014646226 9.049978489775292 1.0853212655308533 -0.6822802761739991 1.0007774800505023
P 0.12421572318564957 5.8798350580482825 12.30140115863251 -0.5042609499413058 -1.6688040745189647 1.266478108951264
P 4.094526040878316 6.381657800256528 12.723492909045028 0.6377310288087146 1.3686918009075524 -0.1999194687398944
P 2.2211582934782 8.724954435974519 1.476734614681812 -0.10405537315071757 0.7192455405444388 -0.45370740536347026
P 6.694603718983225 8.155172830907924 5.4305816200736166 -0.15710057380215525 -0.7324800369568418 0.557829112975749
P 5.116996367097032 1.121749281461127 12.49573144862164 -0.8299382165060158 0.4726353526162247 1.260568171224732
P 4.279896544043534 6.645824883621483 8.075072992429572 -0.5350005451170077 -1.1315497003707737 -0.39093546434257187
P 4.895360493802903 1.475978706665564 3.4659347921476225 -1.136432482384372 0.2682347081765251 2.48137346072923
P 0.50894922440962 5.63246188289973 3.596323460555115 -0.4925997115532935 0.34910181613623753 -1.4610769368091934
Ni 0.6453769603541493 0.15187375998738128 4.2688092859835285 1.0925059562047506 -0.04154054244594781 0.6210612814625175
Ni 2.0528731329452885 6.861158487671712 4.70172509274919 0.04400391638477583 0.45215934415006 -1.1695976562824308
Ni 6.350884147402285 5.755574708967698 8.945008366829827 0.11376411579804924 0.10652646039902945 0.760791225196709
Ni 0.05780692712688326 2.323998212989924 10.01135414436272 -0.09394939506496723 1.207064028659005 0.11002547469122341
Ni 2.360482158930764 5.635112114619347 6.789283474849668 1.5900344725182294 -0.1922097588004625 0.1835399989406065
Ni 0.8700774486780078 0.2721569400234416 9.014841517275451 -0.9946168597657452 -0.9477132532356711 -0.9283777861318527
Ni 1.7674404445449214 1.204015752675208 11.532116302694508 0.12713359512641975 -1.4765488071925472 -1.8774539811533215
Ni 4.412945462228689 7.429938286933641 1.5894222852534041 0.46300991371131867 -0.19593117351610773 -0.4468371606061982
Ni 6.030515758395562 8.056258168685392 7.739329616518873 -0.9047886859580031 0.2057335043185102 -0.5305646208328411
Ni 5.968130578741354 3.3211137450250905 4.596435302678783 -2.41064009876941 -1.4378611608143623 -0.3177937500515753
Ni 1.067551587428691 7.850150285363586 6.855877149616023 -0.10707821913744138 -0.8769948036741865 0.6674257276596699
Ni 5.259034215547692 4.7367473129477675 7.09366213248137 -0.0978441021336831 0.6333503832425157 -1.0970172138115428
Ni 0.817642932861784 7.5715298764349495 11.299849448347771 0.9656022177009499 -0.02403570079296506 -0.38160801629405894
Ni 4.772520887499844 0.02975727532878206 10.670937621759585 -1.1893920653005388 0.8747597436960807 -2.239756098029917
Ni 8.73032775801773 7.172082580138083 4.728356733967414 -1.0719728692484054 1.3161579926748943 0.24034158131068287
Ni 7.754359435786514 6.502694156111186 6.789002969224362 -0.41369641218817144 -1.3555413795685234 -0.35830070902668615
Ni 2.298242696484508 5.473138330655833 2.3667042837102903 1.1269818784944334 0.8031354944908748 1.8816703332275144
Ni 2.180776412224659 5.603291119332953 11.683152188736168 0.35459086427526676 0.7833071469110381 -0.8217484816063718
Ni 1.3518367528164401 3.5230777952457775 3.978000543342304 0.9670266088523024 1.1029466919221005 -0.5442811990879852
Ni 1.788159610050516 1.6822505218463149 2.333193879544209 -0.22677155593573203 -0.24639370104203373 -0.025182155692582437
Ni 1.5297483563996432 3.779530973914803 8.1688984811644 1.3175628434422213 -0.9540880464137633 0.26130404249496286
Ni 4.019199351692922 2.8088904370993117 7.575869517034253 -1.3203576325785389 -0.658956256736078 -1.3402654272460595
Ni 4.003589395791125 7.251370955914656 5.89463446198085 1.2066508523809865 0.49150082206215995 0.10852189356250343
Ni 8.385779419816565 7.5635973959270935 13.318561003353945 -2.2773106592449235 -1.2782259935158116 -0.2713344301477714
P 0.46247363166606004 5.7760479766848745 8.002213477721305 -0.4093653889129853 1.6617296841706863 -1.0193274751385477
P 8.797284815071412 1.9220646168323863 7.810201912803702 0.5496599469013954 -0.9998948203352329 -0.0057818967890997195
P 2.2312492101288366 3.8523895778905195 10.5340709127261 0.4704738261885317 -1.5587528887961284 -1.920729504012505
P 4.06313308989028 6.597701775695522 3.5449645198800823 -0.07461932727778761 0.24273502124352392 0.9573222370803449
P 7.402561666489766 4.034372155970866 10.34189905887975 -0.7555855126260536 0.1678729818273109 -0.5694093616141807
P 6.395264144548993 7.759687221202237 9.969153530207436 1.0397713448151962 0.24672460201889118 0.9226030884316045
P 2.415044145983079 9.03395688276103 5.665833855718258 1.0247193355780804 -1.6015812968155643 -0.25638063705141656
P 7.0669202926246335 4.193067302755473 1.6530305787218538 0.5032278806911011 -0.5887155181419603 0.41192337944814866
Ni 2.958469151061458 1.8757538666803213 0.0846389295060403 0.5716904443388734 0.5768655607819098 0.9068175434625738
Ni 1.7551273404730254 1.6396282385205208 6.799266925059441 -0.5816439560071596 -0.056362437950128734 1.7273977157924572
Ni 7.359147045845735 0.7518497920066125 9.027704703807364 -1.5191090491522612 0.8710606975779385 -0.5583932130093351
Ni 2.727307015297503 1.6081624289285081 9.237670450209684 0.8970730624813001 0.700367215582697 0.6365583486568521
Ni 6.501619491702545 1.77788654688994 2.244459385762184 2.8000097612867587 1.5233241156748734 1.2402531138164639
Ni 4.398993039567339 6.676507463220756 10.458039316547241 0.049135581184386344 0.4117148629817683 0.3548975968824082
Ni 7.112211022321039 6.19544942314559 11.386624956415398 1.472425271942477 0.8743673933536683 -0.3678171331575536
Ni 8.322601902844122 4.029645454037941 8.055117931533172 -2.504289703205771 -0.16166453902375383 -0.5214235777635213
Ni 3.2841835401348995 8.622752029247582 12.888405626946414 0.6909299814291971 0.7582093234021459 -1.3882391269118608
Ni 0.2702872060989147 4.934367168906402 10.073403263706089 5.682137986441827e-05 0.5998296257772507 1.1716673943272657
Ni -0.18379584658679185 2.7250301839232622 5.770057177972971 -0.49893336708080527 -0.008400822469185533 0.23974174294315487
Ni 3.9485082911854836 2.5634024783286318 11.219725930823126 0.39511479253124215 0.0027454239556210782 -0.4772556249970554
Ni 1.407865019273766 3.2851033800100926 12.447958972727312 -1.5827022005228741 1.391574619042997 0.5934939133672101
Ni 3.279793809245362 8.794242968355427 7.7981255991947265 0.26082504597601536 -0.4470279364607656 0.5573755703780982
Ni 5.7537714585192985 8.570330263687055 3.5153201753874628 0.5110784870837713 -0.9114483573663658 -0.44284423739672124
Ni 3.300485652774466 8.899669368308288 3.2689515382412258 -0.37997330890411335 -0.3478203783206526 1.894982734065704
Ni 3.7984195669955074 4.6243447016642305 9.154428584434879 0.2155666883588481 -0.10543759821022487 0.4984384297222577
Ni 5.577990969102386 4.508444877389859 11.38713132371303 -1.0883225142510224 -0.5378482989784478 -0.17807717605382234
Ni 8.675091828878639 9.565606115971834 2.14894084521747 -1.2331560977603666 -0.6813433661820265 0.054770925093292774
Ni 4.5780612734886565 0.8596094887517968 1.4188575611486023 -0.46340869181163424 -1.1889914874280103 -1.024288418688249
Ni 5.926273310757305 5.726886633652259 0.5480150971288494 0.5793358766992732 1.3260762802298711 -1.7648915989728573
Ni 8.336727364689914 -0.08202148415821267 10.971597758390876 -1.5101736943358444 0.7538795856785403 0.661367694391048
Ni 0.36197520553960566 5.080557957783677 5.674524065707462 -0.4134318456728751 -0.45322660907230977 0.9493885840555649
Ni 7.349037914544105 6.226487188439245 2.914306818994127 0.0825655787080578 0.7433079808102813 -1.8899235743752418
P 8.979167212571292 2.058173596384522 3.61127951048623 -0.8566967155467827 -0.570053937176715 -0.9816659560320321
P 2.078218819803341 3.753912067291841 1.318308133999365 -0.7630517390961117 -2.279883562178422 -1.8302760379159382
P 5.197577983094175 1.0673239042912668 8.24697011825458 -0.44369912919784876 0.30153923586592585 0.7046732991572187
P 8.744526078467496 1.7845440018282213 12.12287936424101 0.11889243816355008 0.2547256179464968 1.1416950163348918
P 6.741215010876689 7.953290746616711 1.4109132411176002 -0.015645934067373055 -0.10357457685955711 0.2795555325059831
P 2.554331582133655 3.623322126990866 5.892075303516203 -0.8357201132951155 -0.16059830254276858 1.4754090371611495
P 7.199914566856807 4.314258483143581 6.037086693741622 0.39237142545815 0.22234077385788803 0.7248099220060936
P 2.401884060639965 8.483054763449644 10.194861288731257 1.955168659526981 0.4177050191269322 0.11888755306754363
