# total energy = -340874.9285674325 ev
CRYSTAL
PRIMVEC
9.21339907138535 0.00000000000000 0.00000000000000
0.00000000000000 9.21339907138535 0.00000000000000
0.00000000000000 0.00000000000000 13.48474084562189
PRIMCOORD
 96 1
Ni 8.830748178271127 1.2547359655262686 5.839432060060688 0.3792212612294372 -0.34490603288733507 0.34705393246827326
Ni 8.685664783141362 7.508791253141965 0.9115405355887766 0.9375941625237982 1.7400130905636226 0.5923389738271606
Ni 3.060820158102476 0.8069988603796001 2.9481550289347096 -0.26948220743038104 -1.4176438053262228 -0.9912700547806994
Ni 1.0547314985498963 2.359864756980198 2.0445297244855776 0.014271936537981873 -1.118527834189809 -0.24540022678051288
Ni 2.86572643282955 7.566872520869026 11.014336656235656 0.15597185951435072 0.10135700038294802 -0.7580069775833526
Ni 2.699903676396864 4.559204461992029 6.93517516188366 -1.2596230337026435 1.6963848123507106 0.48115521716177784
Ni 6.795287202488555 8.243550615446125 3.328532973492459 0.5255895362157529 -0.2747619677720816 -0.7875116719106888
Ni 7.005933145388905 7.264497976843894 12.54121339674417 0.5882982280988835 -0.04540851004178631 -0.6251467643858009
Ni 0.11958899856765318 6.359207811183106 9.478747725568082 0.3362013060244855 -0.8533188002134853 0.5671604176790039
Ni 1.1800890062742617 8.219789259248776 2.730552048397827 1.660686587618153 1.3500325339351522 -0.39776380011831497
Ni 5.610821831656813 1.2981587153355392 2.3835091030093793 -0.29864185971347273 -0.8418449952459307 0.6518836661600128
Ni 5.115702979121192 1.5610169907563933 7.695755075076953 -0.3324896615008532 -0.058030826791487154 -1.8727712309656714
Ni 4.088104940827671 0.7017376187031831 0.6908879199602601 -0.060752853708340535 0.33404697868564404 0.6488315095972502
Ni 0.165948058660016 3.9397323622304956 11.111574870003329 -0.44500524960378196 -0.797603251818736 0.5412573246599969
Ni 9.148481458543246 5.8058234229390555 12.977822558496053 -0.357322661384133 0.3441763538101621 -2.049721492503902
Ni 4.583951651889695 0.9134007208606824 5.231067634215993 0.07490909060406453 -2.1342858468095436 -0.8551314279421918
Ni 8.643633256591416 2.1624308283439038 13.235960809574175 0.45961554331778903 0.3687854106080939 0.015126314118477178
Ni 7.707561124643174 4.214485135848626 4.414877486925778 -0.4753123852277556 -0.9246741120280204 1.5164677548746721
Ni 3.7826623349127693 2.811855688476738 3.6175784930853676 0.10449863133572326 1.6023140612165307 -0.9998876212463812
Ni 3.3991269584942865 5.139160293149284 9.542531165978565 1.1160827150834263 0.6836380757534742 -1.1556586776038356
Ni 7.716949578293852 8.151306063973514 9.731061265755176 -0.699763263450111 -0.5444742889353978 1.1093651938539346
Ni 1.2079503250570398 3.9443114215674795 13.674336179927465 -1.7429001823034307 -0.020806909443022232 -1.402679984927539
Ni 8.507514498755185 1.1189765302537036 8.520616873570326 -1.123724033678768 -0.056144922622683946 -0.8108554888429518
Ni 6.2211910931387875 4.763668214117496 12.58151925364861 0.3204715539940546 -0.5569503099152215 0.498888886996115
P 1.3636659827117141 7.192504476523581 6.575617656540635 0.6117592873353013 0.17399092179959066 -0.567968515402596
P 6.712357397474076 2.726429052314727 8.041086170918495 2.0168062298331204 0.8615733269127935 0.4612996158884314
P 7.517663756444814 6.055340696508897 10.90652606703702 0.7424512892369407 -0.7771282717938357 -1.0651041671530301
P 1.348546794840504 2.2021313649295493 12.03999895938491 0.35709666141625596 -0.5640288140285576 -0.5952065251829426
P 0.5300173655268277 8.58876746513922 9.869009804646389 1.804868396476111 0.3379229167012825 -1.9051301069123512
P 3.327492780737639 4.786959686962359 4.865995909530542 -1.0210102621576091 -0.35362567214852003 0.22366900575100832
P 5.091591513759244 6.1228841250791834 0.8030297280609423 2.1832864450779623 0.25564530154728876 0.12827130827528876
P 7.040511032092531 5.508930851359609 6.3361024489994255 0.6230952811734107 -0.24964614654106038 2.4678653989404657
Ni 5.316232609844461 4.414701511003572 7.3736048912914525 -0.40656905711477076 0.5772471124910445 0.304660812214043
Ni -0.04907424879781415 8.059936785412399 4.903497207758565 0.32505197427588534 0.5896511425823522 -0.5395413704101547
Ni 1.6204434147474382 0.36438716913467073 0.5059289336625507 -0.036641562482433665 -0.004533111983663161 0.7913356736424694
Ni 1.6874893197680325 2.4970338423102256 4.624524697367115 1.124081674128503 -0.7853460317179377 -0.2696758114984259
Ni 6.539385043364327 2.3299212100079667 5.664642823654656 -0.046565249354048835 0.3015533769333129 0.8824314013087253
Ni 1.3919419044525694 6.103204304669126 1.538918653090886 -1.3895907558437488 0.6736282569259561 -1.1796043897861554
Ni 3.750185103196733 8.240464126758217 6.795042126073335 -0.6123041040951778 1.098533393345753 0.13571568036847595
Ni 6.153730585160117 8.684854004023345 8.20318579278765 -0.8719001627600984 -1.0084026006959277 -1.405143358866367
Ni 8.058407361167047 0.77607869310612 1.683718275529345 0.8586993477991082 -0.7993017225670814 -0.750935672558868
Ni 1.7926234165373056 1.3779006842723598 9.657879236955042 -1.445536675081749 -0.16019772467024024 1.4514718096192616
Ni 4.88130489342256 4.014130559707656 1.7583154824263827 0.29964176173289686 0.875734191794208 -0.04929807490417961
Ni 2.0803855096399886 5.152252533225451 11.410463985160893 -0.7792633158589676 0.9144994854878638 0.6528501438383402
Ni 5.572659932715587 7.640155897058913 5.383189144894093 -0.27084823453997225 0.4064952664540418 -0.06102667619501747
Ni 6.34190504773269 8.225133030708434 0.9856982633502528 -0.7387815536948373 0.9175223314745876 1.2389683335667694
Ni 3.2075158980692073 2.946352888076935 8.54564415079967 1.0478718624351435 -0.3186797522009544 -0.1842200557267666
Ni 4.108724527942703 3.0060833542372363 5.942347570334296 -0.14307366339544392 0.653639729619171 -0.14643332389629618
Ni 7.277553363323788 5.925017166686675 1.810839227835398 -0.3033989147824839 -0.6447488548874445 0.3029119478437364
Ni 3.743017078721534 0.3713755323280363 8.91228123198684 -0.6347030406156682 -1.6034126935973483 1.0259388098074782
Ni 5.3607793943400734 6.392283913838586 3.077797688565778 -1.5707134035921142 0.33626532649320157 -1.0781111209356595
Ni 9.188117501335414 5.345475938487496 7.180570360710309 0.09875118732898477 -0.8984565730923881 -0.35843080684664724
Ni 3.058461527940971 7.046306260106542 4.831150834253932 0.9147982476752052 0.5576897591844073 -0.6362125352816591
Ni 4.05122370435695 2.1661622549665975 10.551715304894023 0.3224006526959673 1.2220702722598502 0.8643496041063501
Ni 5.850222793049574 3.8660528098806677 9.788384270738911 -0.7611406381163279 -1.5747721470425202 1.5094082769247292
Ni 7.445485988143132 6.373230604565179 4.50526553848611 0.7652662302489273 1.6649451057841906 -0.8805758361572253
P 8.23186802542742 4.343352948618044 0.6954172269422751 -0.2030114774016568 -1.592601204804141 0.2715892264710549
P 2.974380048042944 1.44314997647462 6.892509753477811 -0.62350177258321 -1.1132159350585924 -0.305684368382551
P 8.064921234308391 9.19177522076556 13.120787793179995 -1.1306636982213947 0.10815859668581372 0.2552195268637798
P 4.695737822786338 6.704148258904149 7.872539933721196 0.3174723621564145 -1.0136067706046867 1.231787499547614
P 1.463244399842755 4.152267051939863 9.099381412228041 -0.9444788054587734 0.7616543445279528 0.5669704131553849
P 2.717501268617468 3.6352018828233628 1.540483088252697 1.1319075979308248 -0.6733014697141565 1.5842044961000135
P 6.88114686840678 9.202499617281152 6.059570568021189 0.635354558156738 0.8178200930862431 0.15671028034227205
P 4.876495499108866 8.69875702321753 10.654078011223525 0.15359590308300644 0.11980517978580658 0.31127394665518654
Ni 3.006884919956185 5.327196554735832 2.818796141994947 1.056659893040419 0.24740902968042552 1.0150211344537101
Ni 7.821696712302254 2.9972477045306607 2.5540095021490816 -0.07191709785527614 0.15166654727077752 -2.5877505400345884
Ni 1.212133208234084 5.608887017852453 4.940674194339381 -0.23818648264089304 0.42121328939050684 1.1667894974096744
Ni 6.1699922345158065 1.3162261909086304 9.803878443952204 0.6739897540304327 -0.3834201298021332 1.3178500356653369
Ni 4.686856106084421 7.991020560380925 12.848260976776784 -0.7559855762779496 -1.1751874916653826 -2.0847987958230094
Ni 3.1410688639880577 0.638959360131062 11.976903759884838 -0.9696190521698267 -0.8439985512538238 -0.2771343246590001
Ni 8.54903928835637 7.749141194638769 7.1208463439293554 -1.5436468863926254 0.3690998565247192 1.0822955913306522
Ni 2.1247756663514386 0.1401929229042692 5.051276443455738 -0.42524143671329345 -0.16620459298595247 1.0360028789116995
Ni 8.673788711742223 1.2587345807219452 10.80741292655893 0.1797414511301227 0.5117006940488027 1.1201499431742643
Ni 6.772990776743077 5.6015992191893655 8.783784719199879 1.1097881403239662 3.0607643590361544 -0.8241781740937871
Ni 6.207923798480322 2.5629925662407516 0.5403455858824806 1.265450181907382 0.5519122332706818 -0.9661421493648199
Ni 5.393118425070084 5.247215037423234 4.99980486822033 -0.521678888307437 -1.6092115596673124 0.2962139669982705
Ni 3.2842358721115996 2.7669864350137314 13.060673128278543 0.8874316827367943 0.5601436200415385 -0.1433729398034176
Ni 3.578281503378917 7.611732560932964 1.3287029759270292 -1.1492908264042787 0.31746002086124037 2.011687163439
Ni 8.392936667940823 3.7661150701859603 9.010976084147224 0.07807643258845264 -0.37832728866025805 -0.5477017947337599
Ni 7.473734269686783 1.018624187600919 3.8395504674604757 0.5744811197101332 1.475836611616871 2.3211623663225507
Ni 2.4006801148531176 7.237825186540937 8.548880817892393 -0.2624314712311867 -0.2183151976382627 0.06886185596872013
Ni 1.0083973146350182 2.6168633105935637 7.524593153884141 -0.17689446859963084 0.49398219372311697 -0.8674822361980609
Ni 1.2206279621751295 0.10935751890221825 7.579773122244571 1.129944303556867 -0.5288903184542117 -0.2263763773798424
Ni 5.680567262604442 0.8664824074448689 12.516023963691223 0.92999578135125 -0.04038457446463367 -1.738966651576979
Ni 0.5909391241866705 4.359135501222178 3.2197789322292203 -0.14956081378168434 0.024068868023745645 -1.1776832615040427
Ni 5.26105356282394 6.204118664665081 10.846289785267864 -0.2455272392766804 1.1977034133797113 -0.26425412626222233
Ni 0.6165625083357393 8.669403133785673 12.009914447406933 0.24427125538239217 -0.923185700407952 -0.16253871409859103
Ni 3.1873477675085256 5.456303915881028 0.08361896726479454 0.3081125182080694 -0.35336239118480434 -0.3324256410321372
P 4.075574718094676 4.445594038079847 11.676490748521363 1.0294550504908528 -0.9679918009790489 -1.163474059883196
P 4.6903019173359946 8.534463691030194 3.291180010989437 -1.094847974074366 0.22907654991982482 0.35771141218211944
P 5.904259378585618 3.0894277622097928 3.609163895716217 0.520459156967723 -0.012003966439411583 0.5666086589405919
P 7.0761576730880895 2.4984527057667556 11.686227468656826 -1.6212080699075562 0.8567699919868793 -0.4968422888797314
P 9.084549682407765 6.705373640980244 3.118764146183419 -0.48888703858839666 -1.7509294803658106 -0.28800983392092333
P 2.183658499797449 7.491212087719497 13.038962674713815 -0.4353551281085276 -0.29550254275354265 0.987193056497848
P 0.13260937413108645 3.398187191789312 5.534528437991287 -1.3435613243885118 1.4366216319803065 1.2724350978656473
P 0.5013323688673363 0.9116603097766656 3.540971843851516 -0.5029725701471854 -0.5809183906950447 0.6708257544801544
