# total energy = -340887.70330955397 ev
CRYSTAL
PRIMVEC
9.12619017972812 0.00000000000000 0.00000000000000
0.00000000000000 9.12619017972812 0.00000000000000
0.00000000000000 0.00000000000000 13.35710181747508
PRIMCOORD
 96 1
Ni 7.216644363742558 2.087597741061638 11.483634716722385 -3.0824323309278916 -0.19125356553478032 0.957292412283674
Ni 4.851482675906966 0.5619697982923182 5.8043682655483 0.024453762166990144 -0.547751931245405 0.002572645823182666
Ni 2.8303601037906 1.7550119939621691 4.586828637698357 0.3799810222135972 0.1025240241078557 1.2459249673902606
Ni 3.861035512906907 4.614749303798187 4.939643497851654 -0.76875470301816 -0.4439408128950096 -0.47975293749761244
Ni 3.763458287980652 2.5571584759013013 2.3990828239493602 0.19207451877417886 0.8498359838712073 -0.9369632138080186
Ni 5.052496139826316 4.663793449585103 2.696384894747866 -0.4290368991999837 -0.6445866182779674 -0.16444158754825874
Ni 5.064487953664055 4.394287928700587 11.364743274735218 0.8298659685071836 0.5651467296830848 -0.11776655208922299
Ni 5.839347127098744 8.136929376982698 12.582149660209186 -0.7286310955243969 0.18989448040372456 -0.8428065878282517
Ni 2.0197810221664825 6.349254748526415 0.1778347662138042 0.10191852931337285 1.0313301560263788 -0.5829978989318927
Ni 2.6536405580113245 1.3711279321123748 0.1973137064385142 0.0020735946995770736 0.44465069447784067 0.673230250156589
Ni 7.75137522233815 0.1779853483510361 7.149976632185433 0.10818662171027175 -2.563285722124005 -2.3459755687114887
Ni 8.880923775379921 2.4802064406807456 1.4860978501984186 -0.5259980845080812 0.7350251719761987 -0.5531687313856022
Ni 6.882315514327254 0.724422371033133 4.360625976386661 1.4020654912719916 0.28968053675512695 0.6612136853116871
Ni 0.5446647165578283 7.602198518387106 1.946156395869244 1.3086218321988494 -0.5723033953325241 0.39473015549831375
Ni 8.013890081579053 4.094629475609155 3.884819277018422 -0.28381533622360156 -0.6335103058591476 -0.5448702388222358
Ni 7.898626300170654 3.9357333791640525 12.896389027279731 0.23239198744630302 0.06524765625490055 -1.4709381458739892
Ni 8.212183940838095 7.366094853397661 9.07325184414754 -0.4152796975148912 -0.16267112591139726 0.1782088165356802
Ni 7.024045247127922 1.016475057265835 0.30730254994873 0.16207822952240472 -0.287097349408983 -2.4453823873466014
Ni 2.105156530881888 6.881439400074269 8.753389831334658 -0.3863882112915217 0.12696801608283292 1.885542928809043
Ni 0.19376726895195015 5.056885837281379 1.3740318858134162 -0.6881341638516149 -0.884262283869877 -0.6626162220861685
Ni 6.656332794197818 2.3513172574003955 6.847584885148488 -0.2729107734959558 0.3573936238313845 0.34769233738322053
Ni 3.783490275327559 4.6903962938294 0.5903723272312904 -0.5925924845988633 -1.339048524119823 -0.6121878902322876
Ni 5.994693135581228 5.884439632557089 4.738498616794356 0.0859640628666455 0.43884745753250226 0.030385040049760576
Ni 5.5718402418538515 2.8798879376546833 9.237036840648104 -0.033414056684071484 -0.07648286284908765 0.1843565813046309
P 0.31883531642266466 5.467783421931558 12.423573893037833 0.3667609239788974 0.7584358375906551 0.2423696674843052
P 4.1526355401089 6.344874177261488 12.501792643449162 0.1321035375371854 -0.5240810699910265 -0.18430618768266968
P 2.4578472748493456 8.556807132725979 1.252689149155917 0.5328727001407275 0.048577908908703435 0.4890762717810674
P 6.679230405247199 8.084818831310335 5.570459449286386 -0.4817478564404542 -1.2602956342896359 0.36803079183025644
P 4.9665913120830645 1.374340351039988 12.263956827572045 -0.283938234954711 -0.5144944547438558 0.7716471940746065
P 4.156842713761257 6.263076135079106 8.01446138108152 1.5863711647340293 1.727388459821077 1.4481010933748157
P 4.92973063012673 1.2681845073865836 3.6200283459577838 -1.1853168667899006 -1.1075299404174088 -0.11787530975294538
P 0.28882749063889923 5.8538942741743565 3.3868131201461495 0.3316458254433191 0.012813349714584383 1.2837919176393633
Ni 0.44257550322869804 0.09706889613572095 4.570826775915183 0.711548171900181 0.09985984701213124 0.5773036767605929
Ni 1.916874102201232 6.683026900343469 4.970591321219351 0.38463497604584085 -0.025139732490421215 -1.0245573560789192
Ni 5.9677617484920615 5.337370164898619 9.133239204525651 -0.19087792736291642 1.209437413987188 1.0057826465745776
Ni 8.782196650496623 2.5385775527859016 10.122879612317753 2.85760530031304 0.4576856732849279 -1.9423653371147256
Ni 2.666526738482319 5.3124009086885335 7.105911735736318 -2.426996428640246 -1.3039190274065415 -2.3652737548194684
Ni 0.599081450477374 0.061553414605323015 9.093608723863262 0.1610258769984904 0.44966640252487716 -0.03507756042942346
Ni 1.5320682951477762 1.1826994843895546 11.353496158012517 0.13350556009103456 -0.4491789213654974 -0.4538403313969087
Ni 4.371700608115805 6.923465505647165 1.4478162204380216 -0.5532736323945826 0.9186057943467535 0.23472449223422154
Ni 5.738228940400006 7.749184936705687 8.167373434654928 0.5529134208416865 1.3173751529114472 -0.04287391654539068
Ni 5.743376111636296 3.057821266721949 4.685444423062005 -0.6725180545809127 -0.26510233319513055 -0.9464248734415507
Ni 0.5243333901744847 7.726278199466172 6.8498828598245485 -0.023307050157056634 0.7413534281870716 -0.3661240617258468
Ni 5.131519820207578 4.603861758966816 7.039847245347134 1.3635333966350645 0.4896118325695632 -0.5467887960011873
Ni 1.0576889319166924 7.150324340029587 11.163986256758667 0.03172561323805504 2.5148937039738626 0.22031731566995605
Ni 5.012997988920889 0.5236279356770287 10.338971367578589 -0.22730608828296334 -0.9046753003085902 -0.5200938032085042
Ni 8.091754735813137 7.562271436545321 3.725643006536167 -0.6008097303023331 -0.06337537893285214 1.7702806311989125
Ni 7.412930461171842 6.283409286700477 6.749290341677602 0.19245169960793954 0.6074506326576183 0.5996280512894061
Ni 2.3344064270797493 5.562367256493446 2.3582367347609536 0.41305903571448865 -0.09039844448891528 1.5692640727400973
Ni 2.619782392609491 5.408864738418286 11.297636573432586 0.024090465290300445 -0.9446544118046892 -0.16943209878431464
Ni 1.312108860507615 3.6747152151053335 3.756150947539345 0.2187368585567136 0.2694757796724778 -0.19897921631381213
Ni 1.6178909871798097 1.4736789306623497 2.6244568271967736 -0.5179340765530241 -1.4390605804391021 -0.7384264843482639
Ni 1.0603081484855135 3.517361444793091 8.125045252188556 0.6918897742393052 -0.13243623828625575 -0.8583725605873088
Ni 4.080502133279764 2.6579298673748992 6.650768556072347 -1.168474084200949 -0.49019161633243324 0.6329397780676583
Ni 4.278038518757579 7.283128658877965 6.040441814110299 -0.06129689913726863 -0.1320009505210501 -0.48944805329818936
Ni 0.8232371073417302 8.542533771354424 13.090173635992938 -0.039453063789299796 1.015852886326386 0.5889435749923664
P 0.37350940890402473 5.914583438573871 7.916060061186052 -0.22007743174500807 -1.1444751501831902 -0.13575424691589522
P 8.54167590948171 1.9359204610135305 7.889799449071826 1.7464537039826438 1.1956192771571732 0.5838558760568139
P 1.8619891947277472 3.498251202649846 10.13104116415572 0.17473731304731194 -0.45725835593952224 1.0973260033012133
P 3.9502622738593947 6.410902162890132 3.7897170748568505 -0.2599403293782168 -0.06884308691564273 -0.7734623929064743
P 7.327053011998997 4.149295354519393 10.385053152047595 -1.321807734761504 -0.005193885496113636 1.483200251070794
P 6.64780893261148 7.884489831651128 10.563063141111998 -0.961727308126576 1.7617579384398818 -2.3148999303526065
P 2.311381049368475 8.6600425955361 5.903745175169229 0.5420345691456536 0.11508643415389858 -1.0656286721979324
P 6.964049673178689 4.10498770141268 1.387709306969138 -0.49669239356542844 -0.5425187078709237 1.4277675240237861
Ni 5.4378130135273475 2.9351378927335787 0.22920791572323893 -0.29895939095389157 0.7591518898210733 0.08669168506128941
Ni 1.5471265088709638 1.1472351095239142 7.07382770169678 -0.6444572917889547 0.978179025924696 -0.5710762077936423
Ni 7.218369213678123 0.763860289083668 9.224774891582362 -1.0810064402055835 -0.09196810296888032 1.3341523723697861
Ni 2.7663855109423907 1.6119863421622933 9.272273060760364 0.6396873812041369 1.1837685484661742 -0.24320707578393597
Ni 6.544710362653389 1.9980424372642804 2.2535164408158264 -0.839235839757858 1.8521329858900295 1.7535754026290897
Ni 4.33745914272829 7.058204576804219 10.109656675430767 -0.22420945163551065 0.3857420930670905 1.0406159522036786
Ni 8.0449830113699 7.047152760550414 0.19678621264869586 0.7398069096355582 0.7418077421156708 1.4685735022965547
Ni 7.9413368700036955 4.361762187058502 8.352369522267876 -0.09465104911768216 -0.6462838034747321 -1.6525184499850636
Ni 3.2532951332291935 8.346658352481228 12.355906843660895 0.27845047236726234 0.24288645921972363 -0.7202850375525466
Ni 0.34148560771937925 5.3566629308445695 10.141993504937052 -0.6588320724533878 -2.2738383844256065 -0.9984156646865451
Ni 0.07455823554807588 2.690619880439419 5.77506315640495 -0.8575732046144651 -0.7666841936423763 -0.10390882027052427
Ni 3.2985427839198382 2.9104880531782276 11.766150534263733 1.7559503306191695 -0.4679142929914715 -0.7782610998466983
Ni 1.225282287560702 3.2856931082093848 12.52325835526632 -1.6436080348693112 1.1980793086618915 0.5199637053885433
Ni 3.2185060964335626 8.819258108635934 7.947756232144841 1.5341422893362997 -0.5998630501183476 -0.37852063561798677
Ni 5.459296065105762 7.967036221424602 3.441283698587494 1.4923420654710622 0.7294808451192017 -0.003441164471065041
Ni 3.203931570787544 8.538509121504772 3.8041957755064484 -0.8345173512362661 0.6406194061001032 -0.3871981087873267
Ni 3.560062888435997 4.448123324308516 9.138501365757646 0.35363364256832003 -0.7679525188318387 0.6954936895404796
Ni 7.380067050494752 6.278928327344062 11.571591112008043 0.7027303164982349 -2.434933681209452 -1.7078635024142717
Ni 8.037079730712762 0.12119580499632149 2.1116379511159535 1.250316154479421 0.24621706625485335 0.9737546716047552
Ni 4.748803910695097 0.352299230410655 1.0847727263811189 -0.6333385561679739 0.2661066060899288 0.5595162708701847
Ni 6.0222998607404055 5.695919922932918 0.027076493512318243 -0.06250506051275687 -0.534305575932512 0.8036453442477579
Ni 8.455953605541163 9.098592536296131 11.294404989505688 -0.5088699094682267 -1.040246741789718 -0.46425021387632304
Ni 0.42755470688506514 5.079308886443725 5.859974142042471 -0.7069186435479696 -0.022515664604012834 -0.06289535397264007
Ni 7.013002557064252 5.862016583394744 2.5719365155873364 0.5232233499764215 1.2556519648700375 -1.3455860681280247
P 8.687183884998376 1.8366548909122513 3.6324372266847043 0.3392238949008932 0.5662960127961795 -0.18004484130315443
P 1.8442296287245215 3.366450764716346 1.30844834564436 1.3166575580191324 0.01823992004679439 0.8114648402921767
P 4.942388655844342 1.0943123329295117 8.026482398727692 0.6458690845348167 0.2735134400769612 0.4545324723679268
P 9.043114426463854 1.4944136346496721 12.775479784653657 -0.8557292094271907 0.06214690584238974 0.3066302772355881
P 6.44078130939299 8.069167415228355 1.3320824402376563 -0.18849965693872694 -0.959514359635657 0.5954191554143811
P 2.1803015804556614 3.524333854056434 5.859199328499987 -0.8070757100855456 -0.6710306714021089 0.3233553032997528
P 7.04515412491079 4.333270221456203 5.822093152029012 1.0212084942113444 -0.1794573442308006 1.2300741164009332
P 2.505577249256783 8.719946907583978 10.100119806739414 0.26825296300897034 -0.6399879431636913 0.7343865099509352
