# total energy = -340871.3114251152 ev
CRYSTAL
PRIMVEC
9.22917541628421 0.00000000000000 0.00000000000000
0.00000000000000 9.22917541628421 0.00000000000000
0.00000000000000 0.00000000000000 13.50783112107847
PRIMCOORD
 96 1
Ni 7.1540783959741905 7.030508966162114 7.961218701825558 -0.34238558045832646 -0.4129101688414502 -1.544914183140823
Ni 6.7185720658545245 7.664848651713205 2.6797243106941044 0.10751067868916969 0.20567154073232322 -0.9020625452760916
Ni 4.838330614158769 5.849119136262607 8.23395467950063 0.5853617711783791 -2.0158675200689347 0.49495458493871536
Ni 1.6321981328796125 8.803931941448507 3.2485119319292477 -1.4472608568617074 1.3514427840191177 -1.8138171210289666
Ni 5.617411457954895 4.739596895424765 5.921873649082951 -0.9384359416988032 -0.5149719086009067 0.710340524745325
Ni 2.7352045758649397 4.3858333720752505 7.806715844729808 0.09575430948418993 -0.2869327988066607 -0.2106419973637211
Ni 1.4800551759409268 0.6394397278928754 0.4500081334704548 -1.4329207860899513 -0.05779762773475853 -0.17124884027807927
Ni 8.979720045834988 7.233680034044931 11.22360300734137 0.25573708993014665 -1.9990710173368862 0.24651274311840127
Ni 6.781348917119124 8.590073488419497 9.712414131009972 2.133950574957312 0.12235777100433119 0.41279626897140514
Ni 5.725272831187677 4.5660053347902645 1.4023289063172555 -0.32259451387432825 -1.8764769619520327 0.3304086106021084
Ni 1.710295415355509 9.008745802557595 7.864893797878391 1.234238275080952 -0.4308775519531483 0.8063030935855791
Ni 2.516934576981111 1.990723910750229 8.105306434450258 1.4957161241496175 -0.08951604188396196 -0.15057537108912777
Ni 2.0533530952079735 7.22713654866613 1.4343024616717222 0.3719023589705208 -0.28285734318570643 0.011768196279521668
Ni 7.820803258103858 5.565949575765625 9.809778240110388 1.2791153380993003 -0.16848670415190983 -1.1738055237161915
Ni 7.873824870940543 0.7024205439344455 0.24184315876328194 1.2103295867841541 0.8545860969616831 -0.4874407930601734
Ni 5.361910965392531 7.4235980060124325 6.165378982340904 -0.6926441359068265 0.010360260188401513 0.865702775700135
Ni 7.819354277561584 5.05915709463629 5.376089747603323 0.034238352357579736 -0.09291709714571095 -1.2011265801286477
Ni 0.8217316322038146 5.372736788170151 0.19809132972697424 -1.0343416891591928 -0.19231723091260428 0.5141224161164177
Ni 9.056525243750896 0.1072217913755879 11.14733771618803 -0.6929007320023227 4.4189889418637955 0.09616131511462149
Ni 1.74027177714725 8.272202228311388 10.290576748645377 0.1940864069978851 0.7542511100853462 0.5340338103283642
Ni 5.827827428549077 6.306849320814081 12.528122035385016 -0.2019310998532845 -0.48444854320106884 -0.2292166750421149
Ni 5.256818344788296 2.729648612256988 7.4196488418465805 -0.3665650059180074 1.4293878332360286 -1.3715758073235669
Ni 4.266583196363709 4.422519344403504 3.5330271062037037 -0.5067531202355402 -0.2148254393174494 0.4916993112262112
Ni 2.3505233148299776 1.117773123670914 11.456747668263302 -0.3639365671562248 -0.47083249507953107 0.3528823662245923
P 7.143640198564566 5.434083117243336 3.0894572455121647 -0.017382714252821674 0.12455066489059193 0.14334594322022412
P 3.9747935860165153 3.216736803846494 9.28169035959735 0.6654362080334668 0.38966842470469015 0.6322193549618661
P 4.997672327931678 8.91191329396186 4.180147353888169 1.5316642601094526 -1.2156993357364998 0.7863598176944328
P 6.846054666048279 1.368336007379035 11.716206554166945 0.17249042599466424 -0.8645133833777241 -0.7161746149285989
P 8.97884327416928 2.877979919743706 4.427083171652893 -0.5974433849332614 0.23133680670891124 -0.712981819022914
P 0.7625938448106684 5.127536055385985 8.824031239696676 0.22026357961388518 -0.8121418117545433 2.5850282560074187
P 3.3499599511567713 7.112205627055123 7.2595946357305925 -1.2361411485306195 0.9228306310613784 -0.16745620600486644
P 8.123584816386385 5.507205874163276 12.071556572772618 0.06609971984255067 -0.04281992337900368 1.487347183359632
Ni 1.9962521868318954 3.6662253347403246 10.079205558394346 -0.819093303371712 0.33303113582662 -1.002988628769208
Ni 7.50419639502945 2.3589864686979047 8.979924933529501 0.676315573950132 -0.025722344466768604 -0.1595490353426478
Ni 0.20103912835883447 7.297462865431237 8.633692417329636 -0.8282572292591671 -0.8712651002792607 -0.7072495445248271
Ni 2.842576802800012 4.464382884147143 1.2036829031470289 0.926982705556539 0.28286839892929994 -0.14008089931570714
Ni 9.321651766285175 0.6104656545526685 4.553665927242371 -0.6679759437361851 1.2307153495293577 0.9713730587464561
Ni 7.571560146482011 5.709906254099239 0.6954709748367912 0.5345338898932342 0.9229830974788427 -0.8440497162067334
Ni 4.501862565562248 2.077090534410054 11.510468852597466 0.4634809398104663 3.5650921576596537 -0.9025898785344714
Ni 8.849311797030401 7.824661053432967 0.5395228288689387 0.9289146324719292 -0.1681573458369491 -0.20244403493396101
Ni -0.021204030546959657 6.408665584141201 2.536730235357683 -0.12156998499571321 0.2777436761082249 -0.13580824008228223
Ni 1.686308788416859 3.5844825279701733 3.1077060940869212 -0.48700910483939347 -0.7914256622531144 0.29535676120429777
Ni 6.3608584554216145 3.1062543447920197 3.924160483780724 1.340552619469175 1.36616363516906 -0.560014807773158
Ni 3.343028840409974 1.08732607393232 4.496919419202747 -2.362650715374324 0.9318168937203888 -1.2206008868031752
Ni 1.4997686946561852 3.4307060069806448 5.640937549039663 1.4875258750293412 -1.2738317211028578 -0.419112183887104
Ni 3.7146046723364776 7.320545033177894 11.148567042355106 0.7565237081696068 1.3070277482388521 -1.300260861828664
Ni 1.6824048472106072 5.846359612809488 11.623326901407232 0.5468394467334646 0.27701502547231643 -1.108132092777782
Ni 8.528062658715461 0.33823451277353483 6.772583046297143 -0.20083966656131863 -0.6303802448705983 0.9475528163984069
Ni 4.833752943146237 8.100650315446583 8.48351250600459 -0.8992695559119867 1.304599341303018 1.7090390107796114
Ni 7.160751089808989 8.46259088822574 5.060168612263252 0.3491815203342373 0.02399867690744254 -0.34111545549665123
Ni 2.1466416004391675 3.5187984864455983 12.309835423985417 -0.6221203188546512 1.384254688342816 0.8476076087613209
Ni 3.4826385771167674 8.913371503679562 13.343940534891797 0.8433480621540185 -0.7235493101261152 -0.9280047190631503
Ni 2.406581326382636 6.389376607495653 9.234669556624272 1.3527866996415219 -0.536856881599456 -0.52692728119057
Ni 8.572814930368217 4.072106011734531 2.070845151397594 -0.022377082143619526 -0.6072786258561282 0.5872319916178983
Ni 5.625939216050821 1.0646869066062299 0.3597606415429489 -1.4072655474156925 -0.8798479568522652 -0.05554482714483983
Ni 5.51636121618834 6.323535669988794 4.2229393486799145 -0.09618188393991177 0.03531307347899725 -0.910403203931303
P 0.5429551592107946 2.4129771449545805 11.29085877744142 -0.5085050699296404 0.2567151375726998 0.3467058051002352
P 2.412607977937441 5.624840944174831 3.3095675419764343 0.6002029499562695 0.4955040296842821 -1.4046473930665553
P 8.700685155929971 8.601296165740543 2.8361985196613815 0.40200689166538506 -0.22931951916856633 -0.9069085605144833
P 5.361320298165108 8.208779334766792 0.8060217297894361 1.2310421367411573 0.22962548044475936 -1.8411538611707066
P 4.431277831885143 4.182413116455865 13.0409873139463 -0.2945118967054992 0.42457192145009454 -0.2595204682319789
P 5.992272876333942 6.553056033719955 10.230588031277723 -1.8214160164221471 0.527695269704846 0.029482068619516966
P 8.69345871156946 7.022128874873045 6.052670446173078 0.01633190439080413 0.5015458650029879 0.700237374873052
P 1.5544792465962838 7.848223138301907 12.675978040337167 0.0022386595225316287 0.136471584697894 0.18647568453016272
Ni 9.198248461630815 2.945103712635126 -0.053651965518450744 -0.1098095020256754 -0.09016241721870923 -0.6900820316066051
Ni 7.1387856522891795 0.8958603692454599 3.110785869927409 -0.7689174538482694 0.003730670687025833 0.4023642750048038
Ni 3.966358119674874 0.15233861545776953 6.528766689827249 -0.6841661803428024 -0.41989739879256077 1.2669607050146372
Ni 3.3801116672816534 2.1607530096693313 -0.03310412934445684 0.5814526659319598 -0.7146604922769175 2.9867695527162432
Ni 3.0996831718869338 5.610517263909811 5.810704539376597 0.3377974468670118 -0.07012915271691793 -1.724803986923352
Ni 7.625135509844406 3.676008260694526 11.174042335290373 2.3152169473723934 -2.1559077959546933 0.2416520725919903
Ni 4.12529374972893 5.050204794470653 10.860052866367484 -0.7510595997312419 -0.7007821916329287 0.680590547176402
Ni 5.400027459912201 1.3112258698275283 9.068549936416677 -1.2717964358403837 -1.1484691018339317 1.8688618686089362
Ni 3.2269442718704053 7.611079475666813 3.9242140129982093 1.9932045312537803 -2.4901643195479823 1.407002780672609
Ni 4.683326612837251 2.2028011329215396 2.362775968128843 0.5279369534020069 1.0676824694031677 0.07167849948190883
Ni 1.7140240022286195 7.943523603776512 5.81701268078197 -0.4458372585867741 0.16862194417819348 -0.45468699566792015
Ni 5.473611675603566 1.461624512610229 5.2435107967379535 1.3811418537454472 0.5722918253682984 0.9998277145427233
Ni 7.558740821811837 2.4583939172381886 6.197136574990343 0.08976312489776155 1.0837462077342497 -0.21332725750536807
Ni 6.397765927960153 3.08752834784761 12.984430004002958 -0.17413618912820333 0.6546535155956662 1.2270337869127126
Ni 4.004677656053971 9.137455883083339 2.28688907316807 0.9598815131670887 -1.8968028179935785 -0.697324057880999
Ni 0.8273134375029664 5.957137405477674 4.692161702474945 0.14111808233096984 -0.5914411446032395 0.3636468038299479
Ni 0.36434477297828066 2.7667591266549527 7.929393736195491 -0.5328181927537081 -0.30316520150512305 -0.2670237185875595
Ni 9.330604066450814 1.7665287812413089 2.1300632326169677 0.41594509901303206 -0.8044837809886533 1.0712915269106649
Ni 5.1015190098530665 9.267753381782786 11.211135314255024 -0.3873282066072878 -1.7003864773109358 0.014364496251788166
Ni 4.693303351475451 6.551542448949681 1.735310172436893 -1.422872400715014 -0.6409819316458445 1.481868419633248
Ni 0.37481065791419027 4.873216897278468 6.897882023584518 -1.4313423858592382 1.4763744863982122 -1.2381247546195515
Ni 3.5303349557312127 6.394554174911038 13.135028919892457 -0.830430582761402 -1.310949966111394 1.166638573654107
Ni 7.074744403990875 8.248215601372737 12.175337727548465 -0.2637483902703974 0.3100120492236274 0.8726187860936778
Ni 5.924041582391102 4.0462181746576125 9.818532113004311 -0.5264451993478289 -0.2547418158964129 -1.7463115219778247
P 1.4541581096885792 1.2234010364500014 6.278967058927065 0.26165628362805904 -0.18781985726288297 -0.9427327693019442
P 3.8353130577657204 3.439353744357142 5.801802999675816 -0.10987532226660432 -0.2756595398856866 -0.6692057023782282
P 9.11206642147956 0.19050125585458266 8.872483487778714 -1.0673564535223166 0.9583661049638268 1.9581202859561375
P 6.182356973459156 0.2038531039469816 7.40508797177305 0.8570906085510916 0.17052610317944178 -1.484961713846591
P 3.2655960585649284 0.4897951087426825 9.517469027186571 0.4674216696257692 -0.8206292804002641 0.5269771605918988
P 7.1558134809547465 2.3607123245030324 1.5203331433459502 -0.2738397130681284 1.1295712364881643 0.15498095635599116
P 6.861661201697859 4.3366787837431024 7.7266010645052425 0.5301136493383515 -0.4659006049955524 0.07258147091215242
P 2.6869083008476426 1.4668297675518982 2.1328052206367727 -2.5679846702615707 2.081288982897538 -0.10014909611777591
