# total energy = -340861.54663294053 ev
CRYSTAL
PRIMVEC
9.31394878177293 0.00000000000000 0.00000000000000

0.00000000000000 9.31394878177293 0.00000000000000

0.00000000000000 0.00000000000000 13.63190551049784

PRIMCOORD
 96 1
Ni 1.6641045611243164 8.359771784848853 13.156519558935397 0.34956924269095924 0.4156393948471552 1.0807521581029322
Ni 4.64198813622646 7.8246481843449205 8.442089393607404 -0.3553038311818913 0.37540085904208254 0.27548161954692557
Ni 5.23733572811234 2.9421366405330263 11.173731728103796 -1.1530734333751624 3.253202431797339 -3.0954426271446303
Ni 5.232455219067469 7.577735408048071 10.675376802325895 1.6773841028784917 -1.9162910086251774 1.2212878855678708
Ni 2.4152465705551758 8.454317676670405 2.2435253009744507 1.3970837217866843 -0.12211762996906712 -2.177877101136933
Ni 1.5941474934983022 1.289888735924209 12.468176847663027 0.3303492181190827 0.4929815203727445 0.4070362265591764
Ni 5.879225120947121 1.6559176003410299 12.594653749329108 -0.46336601149915685 -3.8155137489141575 2.3236213693860046
Ni 8.641416275321898 5.6002164779162475 9.196383243230601 -0.19622479349712657 -1.457141349200213 -1.6850840426259108
Ni 0.5767271459268956 8.055736562040174 3.5221301882195335 -1.4942541948921106 -1.3205877463114741 -0.18515670860842304
Ni 7.289347618818369 5.711778953754937 3.7171475059358183 -0.8342119041807051 -0.7345785713570833 0.9781841681310186
Ni 2.8150943821894185 4.650380003878044 6.509793409308538 0.6450764134301923 0.1919289943352501 -0.06368339709157418
Ni 3.8938172763858954 3.144817475123587 4.175738391131142 0.4623208580640941 -0.6381488330724236 -0.16020055288371765
Ni 8.757868574154019 8.459552115760514 6.174707344794147 0.2520876661030174 1.0364399664491184 -0.38089144984300854
Ni 0.6145538852092192 4.189982212662291 6.953389768718864 -1.6192211213845142 0.47100193077785985 0.23999911036959956
Ni 0.5779062918144543 3.7926864229331905 11.937881598092035 -0.8454357979209826 0.17116502231502134 -0.38477561538876315
Ni 7.949836966925305 2.482344255973603 5.802938293880467 1.4539704076713993 0.265689058936536 -0.34426068599385223
Ni 2.909547134525381 8.412488733692314 11.074027771570316 -3.808042637348094 -2.9042106588764045 -0.17332397763955312
Ni 2.7758919727049434 1.5222717524691511 1.2122923676901722 -0.9820454508586377 0.04088156870571024 1.0163383106032366
Ni 1.2336231726798006 3.0313176979846426 0.47731844156273445 -0.7425117101612309 1.1357997338963794 0.745006965779259
Ni 6.2207862424996705 5.612501576065457 12.085611067579851 -0.8676570712130283 -0.17141210532882092 -2.9122762094933585
Ni 5.469364814612043 1.4100293583856602 8.51748673858668 -2.3851386120641958 -1.216695895321814 1.2271955093015574
Ni 6.2411372201009 5.336063582836844 9.670937304861047 -0.44624554976878633 0.505803097617445 -0.3576599901188937
Ni 2.695894468532418 4.689954971304876 12.819484084987625 0.3244017422863962 0.06999185580810527 0.11820106852348031
Ni 5.849811671398065 1.3588119552601838 4.896253343515719 -0.7205403480964624 1.006009417873403 0.43693558522177006
P 0.5949033165396193 0.40816144211793093 1.0836099230053395 0.704646045463709 0.21917343187349994 -0.23962295797710342
P 4.655353652408504 8.757589155697252 1.603276094480895 -0.2696259320970969 0.15099908889010769 0.45071566972499794
P 0.21371227526373998 8.789917871145247 11.348397136823994 -0.19657292086516467 -0.5737974633795473 1.7789403637564394
P 7.461189969730361 7.4895230012465825 8.98348035009663 -1.9684926303293968 0.5049991136589109 -0.8253007177340044
P 6.433134955694384 8.900809742687695 12.186841580282136 -0.8059493097905863 -1.5443079170153922 -0.8259674047837258
P 3.019116425372463 0.8069018252685186 9.423981684400829 0.04504727004762564 -0.5951224501095685 -1.1756160945623688
P 7.760344683494169 2.744811326363842 11.265597065530091 0.6352861668126478 0.5191908317782606 0.7199343390813472
P 4.016882478694846 2.378763834049904 6.473928187592723 1.2159711013406478 1.3319934170452545 -1.9845003186115628
Ni 0.8518621177521156 7.360590011345514 9.835937629161661 0.28548809594033414 1.9907717534425713 -0.658026545832957
Ni 6.017201954898895 6.337713552708295 5.775797447779787 0.7501111197750436 1.9192431492749658 -0.29413523009237086
Ni 1.6831795277729753 0.7995596396195256 3.516908788657405 -0.34284272260040305 2.327654658915114 0.9583221390997689
Ni 0.5444319606937119 1.5316974684107736 7.483793060093137 -1.7684970569359286 0.02571385982633636 0.5451872558420223
Ni 3.4583529254623597 4.269616472841019 1.7277346634942596 -0.04050953007827217 -0.2341267107492226 -0.13562594886814708
Ni 1.0143448817572527 1.0663912263044726 10.210473854192195 1.9964924579764327 1.6631466191228714 0.4108085491174151
Ni 8.386856747258179 4.248306158538219 1.525423592661488 0.04271142282559741 -2.211057444543644 1.0449598309946713
Ni 5.036294148468149 2.059714526164253 1.53638424732562 1.875531567319628 0.964230534164404 -0.47957321738663866
Ni 4.523198036306052 8.593803370288722 4.8113399372937975 0.3492244577570308 -0.9272269603568613 -0.26477580309364723
Ni 2.4252776931531277 2.668977157197152 7.885784942685642 0.7655989309979976 1.7736598320837909 2.5523297373331335
Ni 6.7743887169444905 8.06057981529081 2.910179551632531 -0.37928425325688875 0.8191159290795312 0.7895528707104337
Ni 7.725296295066969 6.632369629318147 7.008912078868271 0.42280223114418153 0.19322585876980272 2.2968315028866697
Ni 7.337975744244467 6.1564361719061225 1.3980469635646156 0.9477055399261871 3.924807744755996 -0.11907395804673687
Ni 2.8060505381387117 2.680656848690032 10.57703640786144 0.12885109203815875 0.9400583077935746 0.1487365181081761
Ni 8.991518287702974 9.240563958219816 9.061972720182034 -3.345108314069716 -1.3441809602503818 -2.081569490252434
Ni 8.531856298423376 0.7490296058976972 4.062662398651628 -1.6133253247253698 -0.9684916234336031 1.098792817654727
Ni 6.759747189809875 9.00665345411121 0.5774759873910323 -0.8841265296229612 -0.4676561542340784 1.1551755673198298
Ni 0.17816186500921535 3.1783104341414465 9.554234460812694 0.31539285391956645 0.9811818173067618 -0.1440059454017262
Ni 3.864115094431514 5.541482718303726 10.634754015686186 -0.5810793417529412 -0.24478213358053974 -0.3780005014484587
Ni 0.33946455173193774 6.155327812027612 5.210877594441029 -0.3842927622150737 -0.37249705513172626 -0.03289058008043368
Ni 4.009086703751034 0.932400762335914 3.284143900221548 0.26486296349081484 -0.7051168144525405 -0.34160627909014074
Ni 4.297223016369644 5.742962053530186 4.7642281226930905 -2.9295378247872836 -0.2055581550829105 -0.653297515788404
Ni 0.8638175021223395 6.408341224630552 12.076381875952823 2.036953651315273 -1.335717402864061 -2.885633924315482
Ni 6.083619722072521 3.0003301911291302 6.975337157103093 -1.2816509600369606 0.9934048417355149 0.7064455605662929
P 4.466476089582256 3.8394331307503875 9.054597935713085 0.32472338729187306 -0.8494850282896919 1.7828672096146714
P 7.1931531581018895 1.2466720146108412 1.9992688628066029 0.193712311487918 0.31715843046042147 0.38286297174708256
P 6.824851690236694 8.820700471132463 5.149220186375864 0.295775079688639 -1.0362327355343186 -1.326403838772619
P 1.2787119976535104 5.414552227342826 10.05603834174196 1.7392605286683143 -3.3417555955473994 1.3369487041680008
P 4.3282570929679505 6.497140410191252 12.642760293635906 -1.0642829568033154 -0.4414800100593429 -0.12573594344794473
P 9.029724104691645 6.14881736198493 2.6307257018605417 1.889039886218708 0.4934553746853695 0.5932673991787007
P 2.776590518846862 6.898701988360336 3.594038528068641 -0.4011537996364704 -0.6054955658137765 0.5946290554129179
P 3.9609522175985585 7.334538897226228 6.416687453934196 -0.5553318004751919 -0.8721421035675755 1.6187817198542507
Ni 7.245981874328058 0.7130218807689298 10.638270962662032 0.3799619960502037 0.24139213406238424 -1.0852893838516533
Ni 4.731821170077201 6.465687205907794 2.5383285379715326 0.716322967581005 0.4038755694430077 -0.3015307512254936
Ni 9.249859278881614 3.9155560323224043 4.229285212791202 -0.359817917002161 0.32083279398821524 -0.13674746406709998
Ni 9.160883128298295 2.223276776807368 2.506171199177021 0.6744278700091159 -0.14756306662536522 -1.6138760550225175
Ni 2.1862072615428843 4.779247796139199 4.165010585180982 -0.45925327488236395 1.1071293625448804 -0.002115503681106034
Ni 1.924876492876833 2.5829349004098905 5.545513795240025 -0.4162711148938831 -0.09472226867524977 -0.7996526781485971
Ni 2.9877656745231533 6.617579079006588 0.7900184307157725 0.2571707370528797 -0.18846854659047543 -0.9003931279934686
Ni 6.9925586479885276 2.9665764415516205 9.263193127638557 0.6889085801237942 0.6977408337034435 0.4582438597812431
Ni 6.312230589451103 8.80346966629847 7.265764701067195 1.4934509822645246 -0.010390342095388557 -0.3605882195092822
Ni 4.870142620125654 5.176338679000002 7.542778296316749 0.21578908878229933 1.0427150008245527 -0.5375523650045838
Ni 0.5246416827957282 5.6038116620599885 0.46467196220943896 1.752524335656756 -0.7754344290311808 1.6743738552972585
Ni 3.097456046701501 0.6090772834565767 7.102781778024444 2.0694117718439777 -0.574864728301797 -0.6308029342303136
Ni 7.033633161133344 3.2377054841016513 -0.20040823114218506 1.0376206170207807 2.3756209023817476 0.2700527352218704
Ni 5.880547701642486 4.0524803900870205 5.020916819397379 -0.0213920925225309 0.9296427688872053 0.6825011339355536
Ni 1.845065267675486 8.098366504594331 5.523825334625734 1.9311193318872615 -0.8263618120086672 -0.9551434842614712
Ni 3.8500882879017873 0.392408760920237 13.256714360557933 0.8024104433993923 -1.3733161870534414 -0.2831645900134801
Ni 2.750772253441548 6.54009634094497 8.442348321377342 -0.750985809070513 -1.6449954021351412 -0.03491378115804955
Ni 8.258221803710997 1.2051876877294316 13.026880571733564 1.5525421319997263 -0.14210590016553593 -0.06625218626001494
Ni 6.980534340398967 2.995486937878494 3.471841385765381 1.2199817651619376 -1.455021988864365 -1.8149658899214292
Ni 5.6820860857491144 5.328081528921853 0.5520340055074988 -3.9112546886619093 -1.9692881296474987 -0.26936496512622643
Ni 8.80373045685812 7.488638176133485 13.349861297305932 -2.7470344946413077 2.4810893538299075 0.7396271895245844
Ni 1.6352220066431196 8.511095507085553 7.7700228074417375 -1.5033263323967077 -0.39133424244288734 1.8617332279839551
Ni 4.498972456104313 0.2907721600607833 10.92606731615824 3.8117378268114934 4.929138489375395 -0.6806836211108406
Ni 7.918299937104816 6.99605137869812 10.922700323754192 -0.3076643749270572 0.9654456375184275 2.134232882084421
P 0.5078504963337154 6.733789215176178 7.381799735003876 1.4510974569989785 -0.864227476706189 -0.07979341527955935
P 0.8659913777159906 0.6831948919038587 5.589299598810342 0.2829470746860353 0.5342973484023961 -0.9998806792678457
P 8.000355823908862 5.30321328626955 12.988425140923514 1.5613949544046657 -0.129533462817164 0.5253555658280759
P 5.6246655928834 4.223335462451767 2.4123015000208463 -0.9523173276665857 0.44493094472242084 0.4359608800133266
P 7.775321512776904 4.803315039215436 6.069618994598759 0.33122107920107474 -2.122771675522357 -1.798651983252754
P 7.470345581163775 1.4335657063940397 7.67669797427626 1.2380213962724678 -0.6377359139047211 0.6476248908836588
P 3.6170719228548385 2.6460182739994256 12.882505055121815 -0.286561531510171 -0.42779814169687613 -0.10080498453421995
P 1.8414607695831857 3.1874101618835073 2.7937086249032927 -0.14467777465777018 -1.0101095560847055 -0.1216733433427969
