# total energy = -381166.31957987533 ev
CRYSTAL
PRIMVEC
9.33565626029386 0.00000000000000 0.00000000000000
0.00000000000000 9.33565626029386 0.00000000000000
0.00000000000000 0.00000000000000 13.66367659954370
PRIMCOORD
 96 1
Ni 5.657977293656541 0.5756673853818862 10.03416708735103 -1.6734677985432211 -0.5193147589506347 -0.9613655539117831
Ni 4.919190783534946 3.5956654306431055 10.425494467279531 1.0742251556176918 0.34900719953990217 -1.9175593338146395
Ni 2.738652167031571 4.93532279790881 9.422689990895492 -0.23941212751787797 -0.38464860289259567 0.8750060553789317
Ni 5.4166879166270885 4.5188404916317095 0.7047543080391387 -0.2994224466332392 -2.2532754726725903 -0.5652346614112007
Ni 9.3081816293761 3.8756884463514716 0.21449791010230224 -1.565722635245742 0.05026712368566827 0.37313983092204767
Ni 2.5730189500054723 8.336815909708164 3.8185467602521963 -0.8250878303922499 -2.3794886128672696 1.028787334999867
Ni 8.339663284930404 7.63969443439592 7.3932377715123385 -0.15925721513384186 -1.3007236603976953 1.1443396530465906
Ni 6.304238112540076 1.392515854178215 3.3841651998321507 0.10084766484669727 0.6031131816245291 0.5623313717214766
Ni 0.644108016502393 2.157638251191402 6.06212252991335 -0.5285856427295994 0.7542536811885074 0.5493149048571507
Ni 9.105373828300971 7.210067523814189 2.6645401246077522 -0.17901819981085298 -0.4736573661228359 0.650380599251925
Ni 7.784229067808052 8.708552414542018 3.9375847822890626 0.47505244669814956 -0.09742912608345157 -1.279127165173842
Ni 1.4918565746367156 2.2818958387586084 12.925496447364688 0.7955875069402879 0.37723791225082126 1.2301733609829586
Ni 0.1671063836164897 3.3567659816690405 11.403254178061275 -1.005785989008687 0.6860636544758314 1.3968577218188072
Ni 1.343419636821646 2.5365632115043497 1.962350321399922 -0.4821211806194729 -0.14010866722984902 -0.43024171814136225
Ni 7.830468574285916 9.110667145517395 10.038266374105405 1.1480173590084937 -1.3607095540330245 -1.151830304996681
Ni 2.524790948700274 8.53600147607435 12.177643147682968 -0.2748059336361396 0.5580432858690841 0.6533659071324941
Ni 1.7197026063546146 0.8051957023950227 7.821717329914354 0.2699421777859351 0.1328571278737583 -0.3481803327632326
Ni 6.655258795675084 6.355770936234364 13.301316368336925 0.2754813624366094 1.7190999945600394 0.9000920518132821
Ni 7.309398908616223 5.252688439482602 8.337329370813816 -0.1672471753178539 1.0417441522708513 -0.4278667901512825
Ni 7.92277954542525 1.8436147746325655 13.184942742655558 2.01854892355584 0.5901455657202674 -0.7221478017928983
Ni 2.771980460616464 4.699522786881576 11.973193204635406 -0.3543029007212027 1.4591416674596935 0.0047809663284111206
Ni 4.184978745081866 0.09680328903094475 7.342900845411391 -0.9894743963328573 -0.7472520530596937 0.604588737728791
Ni 0.5804873848154661 8.425448632199755 9.108452727803575 1.0130568116384875 -0.2504827835097428 1.2680372259082677
Ni 1.832785413131592 0.42753385640197306 5.342484384769899 0.06123493555108163 -1.1479109153376166 1.3898154702600451
P 2.595872637035113 8.000106787936081 6.674050538576212 -0.2767746273267362 0.0534375509938499 -0.08555371480210427
Ni 3.0268625534609317 2.6545565735826306 10.956177991978278 -1.8314340627797814 -1.712355219637038 -0.3752414506460828
P 6.234211353385935 9.195911024711696 5.312328347252275 1.4563422503376853 1.745078163791356 0.508464189389376
Ni 3.2212682637163415 5.886906261524537 6.372916802900474 -0.816354307173994 0.944322225276251 -0.3567282223332437
P 8.78054899721056 0.6150750584576706 8.037630525536954 0.2716180228264613 1.1227778677154148 0.9980161152552812
P 0.7968346884637536 0.3179799277692785 13.40481892444813 -0.7807429857282876 -0.1327511984235133 -0.5259888285367006
P 5.954860504943147 8.166094759907901 0.5437833178523386 -1.0751304410407807 -0.8336346915209965 0.5688509180075493
Ni 0.05286782256897736 8.128546749600217 11.913906184680162 -0.8284654886152314 -0.5113525666807645 0.4037686115514981
Ni 0.27118401616601945 7.367298650020567 5.044096265660917 0.060692175673734174 0.2472964153619612 0.9453905186397652
Ni 8.49138637382163 0.11723997460144595 5.9865074467984485 0.20838534011906046 1.441707531143646 -0.6539729445888737
Ni 5.542644593671171 6.482707857207415 7.117723877877223 -0.22385721050241444 0.3145626447087873 0.1773780931042687
Ni 1.8432973623127096 4.144928778841196 4.6983922388835 1.5428012505628785 1.3859940396314259 1.0910311714314371
Ni 4.431365390541949 5.574721909289573 4.311259369405331 -0.5595581798517137 1.9252471893772003 -0.8022782886969022
Ni 7.127344271865803 2.7668085069341024 5.523227361786796 0.12521812327126178 -1.0347764627037663 1.8006047361037507
Ni 8.527515364346431 3.179817949005718 7.55660055688582 -0.48996741613676903 0.14346421396564324 0.3598773094851867
Ni 6.871295221963041 -0.008591604645987969 12.028735692781995 -0.2756232873311124 -0.23295917280368267 2.2196027630104935
Ni 3.939843077588274 3.042378414508016 13.149663296869194 0.07951830724130177 -0.6817058917277679 0.27116910821450074
Ni 4.189851957757304 7.191788308453063 11.31853869702297 0.05174602222403991 0.5056676004808451 -0.64523993559125
Ni 2.809547142237083 2.172052504775457 3.7363733784696787 -1.3950810895343586 -0.4826063477860076 -0.2727547075340657
Ni 7.215706260319869 4.1245770477445385 12.944051998157217 0.1903616498481302 -1.323065004207373 0.37041369024013626
Ni 0.8538494096350867 0.7551071047560797 11.210787483653927 -0.48011314905050867 1.0732409373275515 -0.7046236768662058
Ni 5.080193514953731 6.297376405037304 1.7686811944397076 2.9195406043652556 1.354724540094183 0.6978935572312238
Ni 8.738053088975704 5.943769745061115 12.165700975931205 0.38861118708476944 -1.435502687884515 -0.7948704262686053
Ni 0.4076731808354461 6.547170565107607 0.5598285106210656 0.6063831106250525 -0.6918712622965439 -0.5805265545732647
Ni 3.0958997330296385 7.42130542267844 8.750601144832135 0.8964182025061207 0.7472391975438872 0.23715855559701093
Ni 3.0555416901255787 2.408739403166995 6.32588656631991 0.2699187807471674 -0.18524386900559064 0.23544697222254288
Ni 4.640325389228408 3.3406059603257776 4.2784529390169075 0.307128042807613 -1.2541584110436466 1.0186708153911552
Ni 3.5031304037485795 6.694739286871305 13.518992135900374 0.14190046902294917 -0.4553822219627318 -0.20195578244363283
Ni 4.168547989701078 0.8205435216257129 4.924061195513445 1.502574541832348 1.6964529465844849 -0.3595284107862001
Ni 1.9440384312411634 4.602189232563341 0.541260823475129 2.4809862525931403 0.3942758415697145 0.02596737059803915
Ni 3.8813458541700836 0.2831990060382204 0.4638383572683406 0.9342262744928297 -0.33177129527758986 -4.326003710484311
Ni 1.652560565048578 6.579210538100143 10.706898226579272 -0.5656036147148453 0.4219506817771636 0.24184876198382865
P 5.81497502845126 4.662058797482086 5.630364288960351 0.12274292225789184 0.22247369989132654 0.6697546329031627
Ni 0.6268239821205804 4.883612596741661 2.5273563870972287 -0.08163792468746586 0.36744200920632203 -0.0855323746458656
P 5.914437112443823 7.785648087590938 9.137638790614346 -0.4161459021699284 0.46983516416326826 -0.13769748668519513
Ni 2.828302476077993 0.2662529224204899 9.923054104088452 0.8249993844435016 0.17021422836597783 0.21459121181945623
P 0.6705736690188673 1.208071289372408 3.7627307373711436 -0.6168089339440668 -0.0852418399886403 -1.151042261877747
P 8.722406528738091 6.502032666092773 9.515207280042732 0.1875840871029931 1.855953130967068 0.9487455511549273
P 1.7414640215776918 6.258754794235986 3.938295225746152 0.43782595824652343 -0.47307012616079813 -1.085524125570279
Ni 6.209079766178503 0.8895480263967875 0.6906182570177816 -1.6739002580949494 0.18530171882671959 0.10575127279590174
Ni 6.6151434798391495 0.04003782988726351 7.6423541629231835 -0.08403393572346818 -0.6841463828484604 -0.08123426149114397
Ni 1.3227038151228006 8.660828538686003 1.4851050278802465 0.2661012067732901 0.0804737291760356 0.38183144515877465
Ni 4.813763215060381 5.928375247548092 9.524607352538707 1.6327592650802651 -0.6645931433068812 -0.3795310791603722
Ni 0.7859791871246743 2.3936809892867625 9.515411730919347 -0.21875819871295227 -1.4265907301068657 -1.2124497184509506
Ni 3.1494303872077274 4.314016188759846 2.6415986824073276 0.1392298641693215 0.16822316607787804 -0.693892920712263
Ni 5.948157503600303 2.117345557882607 11.86713547934936 0.2892737882350115 0.9896718570556441 0.6387604985144935
Ni 7.6297986385415815 5.950687466502685 5.926537990355514 0.3777176801007172 -0.5937332830715258 -0.5988603198854461
Ni 3.148851576506813 6.779413691021159 2.164640927106816 -3.6228987842554763 0.5745785645199459 0.7947709245762634
Ni 1.725602741241352 4.13646133842621 7.442208891072259 -1.2171440386028263 -0.29376807656093923 -1.4144659218188738
Ni 6.655221453049218 6.466043710414968 3.7197857840602566 0.18148568751473906 0.17769073924868106 -0.11853171239002168
Ni 4.167931836374298 4.1834570330778496 7.6067601055139065 1.6501481499806743 -0.6732713878071694 0.3828845690136373
Ni 4.574901108712181 8.075202808551454 5.243682331689508 -1.0468560195761196 -4.056599664590033 0.21503986932110064
Ni 9.391857118284054 4.560701575226853 9.398027053642672 0.744027375474809 0.08813253127287402 0.11011829151534584
Ni 4.536587574574254 2.4407140265642666 1.8427652298941273 -0.4123465830284963 0.025704346744639603 0.20469632130324747
Ni 7.265885413826536 4.3803180209839105 10.691581215014919 -0.2776863405077282 0.07017697523571785 -0.8725367679028327
Ni 6.838424375544999 3.8589496143072943 3.704359545315249 0.4750293067696981 1.6177298815509689 -2.94399873740762
Ni 5.412841626162949 2.0001270552910335 7.113801968595706 0.15497092905366214 1.258970230609993 -0.5200506086753947
Ni 8.219980169031713 0.9814482286516019 1.7331963642110864 1.9086291212045452 1.5169516364896263 2.2595049985220697
Ni 9.210904088996665 3.200169680102375 4.187506840852954 -1.990645255167036 0.052660049397877044 -1.856864329927428
Ni 3.3491480859924936 0.3135594944324587 2.3925784482580856 0.3188126782343929 1.3048610796048365 1.9633504240068251
Ni 5.278529536581478 5.177611090180163 12.025265629273449 -1.285615086891031 -0.1351909182132575 -0.280141229806124
Ni 8.181647963580852 8.395285126156956 0.6340899235483458 -0.0763548219116556 -1.142663036675116 -1.1130400716023605
Ni 1.23802007531648 6.321919845887355 8.083937248741378 -1.0160331206579922 0.25233577755808156 -0.8569509976494338
Ni 7.687922435701118 2.0083797756072927 9.640297608166737 -0.26271686368208946 1.0925478651862797 0.22152573415576043
P 4.184941402455999 0.8291621996754532 11.701491059535503 -0.680816290033963 -0.18184975572237713 0.4902535799186202
Ni 5.619224983664694 8.605113340894787 2.808363380997149 -0.7165422826806628 -0.8870596441093561 -0.5680078532809637
P 2.6953440566841427 2.7458312868541994 8.789351587692687 1.4569695995090393 -0.6577120999163318 -1.0350032340025916
Ni 6.893943524550423 7.214464618009843 11.16319710768538 0.016906803057667657 -1.3149806845373417 -1.6652130147335968
P 6.703206727286291 2.849765150294147 1.5923371787497582 0.4699300378699197 0.8248021808310312 0.17818361972469957
P -0.00937393265786865 4.566144262946739 5.930431892667632 0.052829227985889654 -0.5150603545496548 0.7901907614047488
P 6.313443069815903 3.3939125587486734 8.510339623579629 -0.2797730478334278 -0.5743001140475787 0.8996709051154635
Ni 7.5486344412230775 5.424175113113106 1.5726753526659647 0.9447935084857148 -0.491175063291625 0.8872007976729108
