# total energy = -340887.3455518302 ev
CRYSTAL
PRIMVEC
9.10537080665770 0.00000000000000 0.00000000000000
0.00000000000000 9.10537080665770 0.00000000000000
0.00000000000000 0.00000000000000 13.32663056053470
PRIMCOORD
 96 1
Ni 6.369370712764559 2.295190796472089 11.042219648286782 -0.34818496074892297 -0.08722647451883687 1.3934435539309356
Ni 4.944871885673385 0.5336566723149627 5.71972345450514 -1.7673392891824016 -1.457125151250297 -0.18841763874788198
Ni 3.174004756531993 2.0453758454981203 4.381196627180737 0.57482667597501 -0.790503150438845 1.1131943377920377
Ni 3.8987103172175566 4.442219000647618 4.584907444069503 -0.9340334417557332 0.17342939286916584 0.33538755187393854
Ni 3.8439233016172367 2.6599701581107795 2.0720381920297566 1.7131373492187012 -0.8574469634492459 1.3757715905724694
Ni 5.488198461689119 4.545319113268927 2.4290579567439683 -0.5062031612693412 0.5957536559356643 0.32342420886447526
Ni 5.507429004642065 3.4196949745714518 0.018424717644548227 0.7231703295201416 -0.4959565438406685 -1.0071543301111234
Ni 5.829385807801728 7.910035859455015 12.222825657517907 -1.1574877603927742 0.11008461006393298 0.7291427450534927
Ni 2.260781600534976 6.267536246672823 0.5122371982418047 -0.3053472967581064 2.8956164894494902 -0.6799979078977256
Ni 0.601798535144963 0.2557525632181048 0.2335554904857699 1.2894048929507664 1.6305823120336047 0.3628101668612655
Ni 8.323902274625587 0.09746935137031427 6.760133160279446 0.280211163812111 -0.7006875750365933 1.1674042481755378
Ni 8.732250835142047 2.599000595794054 1.436184659868547 0.8713563744414865 -0.5976287614711902 -1.3318237242366096
Ni 7.213438578170845 0.7666093872593098 4.870710462262801 0.3046641546481527 0.20921709199173646 -2.700272813005737
Ni 1.0629518720567903 7.685060359795269 2.424034523719754 0.42610866980959516 -0.735293852256553 0.14824800850753178
Ni 7.682938808418358 4.098682468890187 3.62139168345776 1.8723192310299175 -1.1009962530639492 0.16554587635603102
Ni 7.830081599194685 4.28017982337933 12.395365148296298 1.0480014460344727 -0.6131816216041246 -0.12256577325007925
Ni 8.393330726337808 7.590619454725215 9.16347117636092 -0.51302712616971 -0.9021044542576204 -0.4715701445765039
Ni 6.88368757767798 0.7442984973930205 13.1525978247919 0.3072393715744967 0.3583210207416603 1.2168146802878657
Ni 1.9229905576995667 7.110675364266041 9.535604035390143 -1.3933437951282777 -0.2264771646237648 -2.767544698779518
Ni 0.505250647291144 4.906866068303311 1.2614362061543685 -1.9327576388216328 0.48320284371942596 0.8031568346471136
Ni 6.342637344341336 2.0225486811122133 6.578024835415236 1.3905878296496956 1.902966780712445 2.1429113836950258
Ni 3.713151967388919 4.598740323261793 0.7461851302054495 0.3136473319833695 -0.7117695438823677 -0.981088229151691
Ni 6.450535987330165 5.874420971364829 4.817323852678657 -0.6074449762306635 -0.5035901491265262 -0.5135490601114511
Ni 5.496484349041004 3.299886506685627 8.76407228472157 1.5788419462365195 -0.3289932183118205 1.260441672949197
P 0.5273593979275303 5.815345326157106 12.5273921131464 -0.15123794437379112 0.07971936750851431 -0.9237641986192414
P 4.495922477132691 6.1332320286065585 12.767378726969133 -1.1996245416618243 0.3989655337359 -1.6511346822636597
P 2.6049464028718345 8.540901469537806 1.3021636188315613 0.868056363533976 0.5920155290494706 -0.8644709601755628
P 6.707598813394354 7.871966304489927 5.728945373966667 -0.3613047859603326 1.4356163306442438 -0.674701949606109
P 4.835234116877731 1.3850816772600656 12.546489717686887 -0.12371479925285792 -0.23479442624020852 0.2307660218071058
P 3.788690122851816 6.491956318718873 8.194199000382296 0.34422469054959426 1.1971601392817317 -0.5192293983256799
P 5.157737242280377 1.2438937989322352 3.57569455944358 -0.5134472444262641 -0.9547958711140653 -0.2514690586824121
P 0.48660102698990176 5.767806185647006 3.5289985762618152 -0.37494860199601227 -0.9035090479146309 -0.46688430906506045
Ni 0.7892098279143792 0.31924613429740484 4.79064420594266 0.6190380803849017 0.9128580932296989 -0.44177542981257467
Ni 2.069978557173717 6.741944271736452 4.553016793672535 1.0434228255248545 0.7248711142613322 0.6073655291429798
Ni 6.459887203055863 5.830259923390499 9.125116623292412 0.25933509169405017 0.6131386841813311 0.619530703750604
Ni 8.709177825746798 2.4978399271353284 10.28446705512327 0.5750315928969645 0.9273971673861383 -0.21374994686508347
Ni 2.8523302198645357 5.320404690128093 6.472038320276842 -0.7627992567656734 0.7994163937680748 1.391908862453964
Ni 0.6170818998923681 0.3311131639520328 9.120838920129867 1.2734051750884006 0.04001999203636333 0.6887694834427686
Ni 1.6698703571555609 1.375120401696371 11.454918754931516 -1.016416729249656 0.6093028553750087 -0.7072819404246594
Ni 4.610285933330134 6.917459397664948 1.5197692314334887 -0.47982852793055425 0.5406975955017849 0.3686152035788168
Ni 5.831088512125687 7.752203363457685 7.720889993564133 -0.9072008949439215 0.715047186192375 1.0018025788809068
Ni 5.6622294121908485 3.1316829934423662 4.449308442287373 0.6740679155665358 -0.9664571095020775 0.038735468896984905
Ni 1.1448000494261228 7.571352490289404 6.632957536947018 -0.4868373551482197 0.3083009800697916 1.1518645006687258
Ni 5.268695289829902 5.2437921009206665 7.058289434923625 0.4090892524334632 -0.6371407035228834 -0.31262377581486156
Ni 0.9854924833727421 7.810377576964489 11.593355900765935 0.4435913999753909 -0.17290540204489577 0.3054812512328094
Ni 4.893335487418804 0.48523977406780644 10.328205613896364 -0.5239172907196524 -0.3572856374986105 0.30088437589074635
Ni 8.608700059891799 7.57273650663829 4.231764746206317 -0.5941749985946347 -0.32176944686987163 2.6616597286192287
Ni 7.691079009838781 6.388710520166102 6.818823648305869 -0.70256859410939 -0.21621614901738895 1.237657585175146
Ni 2.5867265560684047 5.314376934713865 2.696123943077146 -0.4418402216122391 0.023467744104637003 0.3414795237042893
Ni 2.6286932097000935 5.300554981966435 11.568861543001862 0.2516354090569473 0.6403106166104326 -0.3370561978256131
Ni 1.2064525145465754 3.03132359740668 3.5987229525223183 -0.4344405867140583 3.114465448104036 1.6752598574466375
Ni 1.6546097558349466 1.2540553926516893 2.397500562915218 -0.0416133046654122 -1.633974111323973 -1.2174618269535615
Ni 1.1284832251024113 3.804460624932546 7.9950053579059155 0.8792897703559502 -0.14019968428175852 0.8337043684166674
Ni 3.821769934664341 3.0957258844834725 7.257829081487229 -0.48464754658575254 -0.5971641631299457 -1.6769516433267635
Ni 4.315690769173122 7.120481848527557 5.72587959564647 0.2999150699989415 0.37766085872085275 -0.3610646449250685
Ni 8.808043940985002 7.446508752397434 0.44562685876629565 -1.932036701495208 -2.363621049707394 0.06345945400622618
P 0.29645448085729187 5.9036583167350525 7.996871048365696 0.6937430253979601 0.3171103508313055 0.9941124093255008
P 8.74606368251876 1.8352238893646027 7.969564952124414 -0.07726627798233145 1.2026121635352385 -0.40476697090902547
P 1.7923102771784123 3.4726062838042018 10.428541335968188 1.0219440868257883 -0.1724063509212902 -0.7942903853954192
P 4.5095714278365095 6.1976798425369335 3.5896212239542478 -0.17583363143528427 0.9935200271571405 0.29779056745677107
P 7.0934753189828434 4.148525268191525 10.33773347381396 0.4947257567573608 0.6510511429563886 -1.2464078205639502
P 6.359673492951639 7.995052705833641 10.093776007821823 1.026967765292625 -0.5940369303548737 -0.5713454022946289
P 2.7763823227194027 8.78035450863656 5.765353198776021 -0.5306278699706087 0.4161531012587801 -0.9900163848792563
P 7.27711243559033 4.128029078709005 1.2741127032656805 -0.3835561411593652 0.6216744895664842 0.37334577628526666
Ni 2.743202351828998 1.7275164591608165 0.12663112216359057 0.938183716478681 -0.4108028926904603 1.2231048841719516
Ni 1.6168224673620655 1.2993272958534159 7.039912065206802 0.4624093040128423 0.6481460534944515 -0.6412984344449987
Ni 7.001893500317726 0.9985951118335797 9.10444743176628 -0.27526796087422273 -0.6298593393701216 -0.9772143480185815
Ni 3.0388810551012564 1.902685581002091 9.251640302081547 -0.3810140914638019 0.12496641227177188 0.15581399378024777
Ni 6.258039345015663 2.18639072178234 1.9108922516287434 1.3933754196971617 -0.28827928553222615 0.8572718713239623
Ni 3.8087583599106667 7.197695392202265 10.57178975968913 2.92241998279558 -0.4259268928160923 0.7054664844824754
Ni 7.715463192617185 6.776617523424339 11.493685781293477 0.8607924828827112 -1.1684175199314004 -0.3536930350513457
Ni 7.805287674734046 4.027150676542488 7.9254803892641 -0.05889471745367922 -0.6033055001409933 0.4059473643703718
Ni 3.3899841499239796 8.643191204165358 12.50544361703462 0.043153909679654705 -0.04782534701339505 0.3454675618177599
Ni 0.5339617022339607 5.335091653093577 10.23351977435404 -1.024868459561435 -0.9761277998226221 -0.11999004210310303
Ni 0.11630745284538511 2.9465161745545316 5.8426213746750255 -2.0097128133214484 -1.0078657543558514 -0.13122010649096755
Ni 3.781342088683716 3.094369184246735 11.568315220758882 -0.3192929603049211 -0.7719331007461415 -0.37013806798124643
Ni 1.423488130941659 3.5613836482886816 12.676703803227365 -1.2831303727959644 0.13463221749631007 0.3388670257821067
Ni 3.1540457839217386 8.706601005834068 7.940099972486283 1.1179547352951584 -0.19765535529606604 0.4651290169368506
Ni 6.083152489666596 7.959559970781281 3.575961346805569 -1.2778182165544316 0.6559033288423672 -0.5864380349616932
Ni 3.113162669405296 8.78589967940282 3.501066030515247 1.4166343902251022 -0.16786012631150446 0.4757713271420451
Ni 3.650734651128292 4.6502494054042245 9.129807710285478 -1.366581439432769 -0.05247210175678705 1.0629012459644402
Ni 5.180992359089952 4.8760534937991595 11.060223697804235 0.24052335830418575 0.6339641055671146 0.5496380925245243
Ni 8.237046143362258 8.990588413106524 2.4301906648610827 -0.39465096552094614 1.5408736945228625 -0.484134868615392
Ni 4.838666841637798 0.253982479150845 1.5069352114087835 -0.5424153495238401 0.23506156385866614 -0.5591622299648756
Ni 6.465213844924932 5.8983589909781315 0.35054220398659525 0.5109370764099007 0.631827518840086 -0.47576567071509035
Ni 8.217314805019912 0.10617954899758131 11.133280639746923 -0.4223440605608404 0.1013361744473416 0.16565951911575988
Ni 0.3613602949346989 5.400704954475645 5.7950986238322155 0.7750564768664715 -1.197498496457757 -0.8203755125182453
Ni 7.629435650089045 6.247713854623314 2.597053867534896 -0.14083628942449292 -0.2748069620774041 -1.7808000426729975
P 8.632537920427222 1.8178508420377935 3.3828582868013584 -0.8489795494081831 -1.180740817383444 1.9197594267897518
P 2.0031360307449404 3.43267012784226 1.6248497621856057 -0.7185546851250012 -0.821886549846133 -1.3044877554258179
P 4.950034630869559 1.191210123967394 8.174169005880454 -0.2693713928841296 0.5200884038918656 -0.8180049554035397
P 8.734918708761938 1.8134529479817931 12.496554954141313 -0.13002994283760833 0.7602564357391617 -0.5890294498379532
P 6.6983841782294 8.032639676150762 1.2750095822812415 -0.3727595647644935 -0.6520703282495222 -0.6053994065555445
P 2.17011942431221 3.415597557749091 5.839156781117452 0.0919336501865191 -0.4855962836522669 -0.37840416464478055
P 7.071840958160779 4.055404641875343 5.867355203688937 0.12059245157379231 0.27029287625713444 0.10398826735820801
P 2.6948892548080083 9.0888262577653 10.270513985037526 -0.7633913818237175 -1.132887188235275 -0.11068907641715131
