# total energy = -340889.57586773747 ev
CRYSTAL
PRIMVEC
9.10170509847982 0.00000000000000 0.00000000000000

0.00000000000000 9.10170509847982 0.00000000000000

0.00000000000000 0.00000000000000 13.32126542607790

PRIMCOORD
 96 1
Ni 6.263220046413741 2.1578777550168087 11.404748686095951 1.237781769457836 0.8526369436551122 -0.15831464871491444
Ni 5.0072393520391945 0.46236479903537925 6.05315633325312 -0.3864764001299537 0.26974883082820644 0.029957465594038727
Ni 3.2219034887093034 2.012232269913243 5.063346813164111 -0.9180720333304705 -0.5046088201990278 0.6975773115423857
Ni 3.2738560214534074 4.771059206247891 4.849473126246188 0.9693668269497048 0.6110974853815863 0.09087718389754672
Ni 3.596511467455246 2.9249603596314477 2.81486340415974 3.4484967430603968 0.946341569699125 1.007048914881511
Ni 5.207167406393958 4.906683714029933 2.6859131767318063 0.3111034825155932 -0.31011592179134334 0.4480540637324348
Ni 5.207331237085864 2.9714882761324746 0.5967487444114962 1.5068991373496308 -0.21199079808213167 0.386500825609986
Ni 5.820185448682133 8.185864232970253 12.96457524270062 -2.0474098136515897 0.8374869753875512 -0.05135958541889865
Ni 2.3329490527275385 5.460595283360818 11.691501546137316 -1.4557709512152477 -0.15490665147462998 0.17142881749936928
Ni 0.9933874003661116 7.7556448360276615 11.949068878586308 -1.1254698127252811 0.5491210436787898 -1.6288568447020657
Ni 0.8178956038794926 0.5211818377703039 5.14098253737586 0.43249914671697126 -0.3352901070641258 -0.22109610281750952
Ni 8.972033113191827 2.480059912353144 1.2517365692836966 -0.3072242020658451 0.5957953078068772 1.0708228148043621
Ni 1.859196200263739 1.4358485906760516 2.865896664688155 -1.8320557555241803 -0.9310339928077772 0.3361416564311437
Ni 1.7531340306654477 6.788534058302094 0.6268107662055574 0.92864826618442 0.5718210563794669 0.012826462340706942
Ni 7.928650046679366 4.600966541230052 3.880045054400675 -0.13365288430217626 -0.8461402801871751 0.4834368141071029
Ni 7.881748960268999 4.154364075096958 12.586784397679166 -0.19974771904872052 -0.7911700945988825 1.1893637831657644
Ni 8.056720139223565 0.014390705942835171 7.194722223253752 0.4781195156592476 0.4167452263168242 -0.05363526882695279
Ni 6.987306196108418 1.0544416382160504 0.5209679477003168 -0.40067608866910354 0.3035716929149223 -0.8210162314260377
Ni 1.9133331422332434 6.736608830673307 9.597079058777362 -0.012884569272152004 0.7187300343606009 -0.7614304014426048
Ni 0.26396674130890607 4.9951704910688575 1.3426507710743472 -0.5669251617397463 -0.14928981950848483 0.7585654211899839
Ni 6.379530735961202 2.5716048623076286 7.115274349555431 0.3287631045788854 -0.8759496502391236 0.35281423199081813
Ni 3.5519040107315503 4.449359439282165 0.686281307367081 -0.7802999846535981 1.70735288132644 -0.41826809071925386
Ni 6.210129800531408 6.177645815008684 5.028737579499175 -0.03835263163626943 -0.862505866029392 -1.1016657683271478
Ni 5.292222840607983 3.342246233618649 9.253203897491783 1.3827061129087734 0.19129881695041892 1.554543221590155
P 0.17704454737767453 5.888029558541025 12.548205910417575 -0.05600351194881323 -0.5456947916060603 0.7041585643043292
P 3.7950287575186055 6.423928853467464 12.811047680975399 1.579640787988731 0.04058563473184623 1.398744654428875
P 2.613063129064706 8.911224621379747 1.6170153002961587 0.014623663450445783 -0.4789584666207751 -0.051078820953686224
P 6.582462353000891 8.058030784758806 5.9228745263682026 -0.12608792747072478 0.48090196350039116 0.6655922739953569
P 4.862558647676846 1.2810649936462275 12.678927329659103 -0.903734533661876 -0.8100885287699404 1.2258346243982887
P 4.122990497597145 6.59863608297396 8.318291311748617 -0.458401725515346 0.04533703337390257 1.3416337683484958
P 5.08619664383231 1.6805752375617338 4.039221134314575 0.29872362079400167 -1.1252862359595652 0.4953194244773019
P 0.5985973007184912 5.8397723180698895 3.688578855282806 -0.7264927090251553 0.6903054604713208 0.024828886118221753
Ni 0.7027881597470228 7.976306574613517 2.8108531928901095 2.6229371152380505 -0.9724477798678737 0.23769128817202934
Ni 1.929215617642925 6.926579619642289 4.975306019675373 0.2743811873938952 0.3103043836530656 -0.19180455294224388
Ni 6.150631954254567 5.986136837876817 9.465877979676758 -0.5043205995346476 -0.20596156116891623 0.2216578888582505
Ni 8.596724303152735 2.59135556238729 10.366262336930427 0.46559824326378524 0.2417567164906546 0.024873623313228132
Ni 2.498873136806904 5.615670134954028 6.973389689001596 -0.97535955419803 -0.902527400727652 1.7394333068007528
Ni 0.5416970810788553 0.3674349249520344 9.339925853910685 -0.03807495249485055 -0.3618460031757833 0.15511902459575222
Ni 1.4883381240214002 1.2759134285563252 11.690889001383692 0.5907829421939502 0.6341104013369917 -0.678641136759515
Ni 4.262819993138083 7.133552393748968 1.6698343153663384 -0.7586602948966353 1.4017214776690117 -0.08509657266002764
Ni 5.872028760964968 8.152761331500333 8.201156917889078 -1.1194223209796204 -0.15276235143811756 -0.5220568404721461
Ni 7.544039294022111 0.811924885330065 4.942815662959076 -1.6073896759672253 -0.5827333324165964 -0.12447687422986305
Ni 1.1556343955827202 7.896730366873204 7.296336389566822 -1.1563451621478988 -0.46395865077783327 0.4756255455928002
Ni 5.269768934111889 5.155087449778372 7.248486905484427 1.334172169864128 -0.7231343340758836 -0.4423629268849285
Ni 8.2016920981493 7.337512503465617 9.586941579630485 0.14617955601427726 0.9653625908863179 0.38866980823684677
Ni 4.193000813271226 0.7493788780132798 10.61418459247877 1.3553295206680336 -1.3190625679161994 0.234461468380822
Ni 8.402311882092107 7.38197433290762 4.949502685700332 1.0616959128024297 0.3480633475693941 -0.15808633475419226
Ni 7.74909160835146 6.677638883292605 7.343840008855193 -0.36724043471847717 -1.1792799165672014 -0.7449668565699429
Ni 2.4409407838082666 5.681530073099848 2.6046003636573007 0.3459427016819655 -0.5333488684461976 0.7854079953041248
Ni 3.5151240203988725 4.835135210192966 9.767511217395649 0.664776462962281 -0.35779934391023543 -1.2512065275041744
Ni 1.4377781521584885 3.677252693449105 4.073669267799138 -1.3995969751268411 -0.774077400782654 -0.4590319029001772
Ni 0.7255315004654824 0.27816358093298693 0.6201064502245996 0.4036097173761307 -0.4122211131942256 -0.3816632950120265
Ni 1.247406888164851 3.629113775144346 8.574872019364138 -1.2979499543073 1.5296310317295074 -1.3968788048647298
Ni 5.245349059312935 3.5653199240575506 5.163202530050734 0.9582198091939498 0.08781062915708103 -0.34216035182139787
Ni 4.238827898479103 6.984466464115396 6.114740290340218 -0.20771505352491326 1.7304110486974844 -0.5770115994414707
Ni 8.20763551158341 7.555816900429061 0.2772688833210834 0.505039222868227 0.33719272340347733 0.15427056055252786
P 0.4795178724778352 5.912458535045086 8.261009730665046 -0.5441354175387403 -0.4685280153160705 -0.5329153804532047
P 8.41074006102011 1.979020147982052 8.169692323338205 0.7492338593764128 0.43774394005567835 -0.3183527078788388
P 1.8645662062761814 3.543940018763945 10.544434585570716 -0.20635493995259302 -0.24361228164215465 1.7072333250294405
P 4.27047452713209 6.606345227198602 3.8287715088574665 -0.41676168137705644 -0.6171115527861502 0.45627182365653673
P 7.043272580804194 4.228415547838028 10.625281391343803 -1.8736549191222052 0.10030130542492403 -1.106282955384185
P 6.255447190253358 8.163983733895828 10.906919093115686 -0.06486841853861086 -0.5107910377503397 -2.9384932342083583
P 2.615993878108785 8.766944392042054 6.03117662559304 0.9632172624085411 1.0652214094571848 -0.568566296887595
P 7.255506140462046 4.2505144878349945 1.9021034584736647 -0.8021003683581411 0.9501488592603572 -2.260476875517036
Ni 2.7382479810903555 1.9978424741409182 0.5600579507888555 0.7554032214119184 -1.5889114146573797 -0.5902692357823254
Ni 1.5259099626982855 1.5985415694428462 7.41192531389939 -0.6293919128153999 -1.0963829226616537 -1.2399934323971742
Ni 7.093768840731365 0.6857233728440933 9.358442362777996 -1.223373050231674 0.5483021473219202 0.49767635474525257
Ni 2.895170478820051 2.0720850826892114 9.274598365513558 -0.6097479133322273 -0.021792670395059242 0.938213541275352
Ni 6.733814607205816 2.3788398498711567 2.8181800655003064 0.08287102576361857 -0.1365489749030487 -0.23892721746165949
Ni 4.042185559667545 7.0433271910348285 10.637217367419595 1.2317360774843884 1.1733216421012373 0.26693861507292094
Ni 6.948978915907747 6.31538191837528 11.823023005257646 1.55765631329784 0.4040524613405041 -1.038145122065683
Ni 7.777425216345923 4.236588879023068 8.347451354566688 0.3159667241451655 0.10079907099694899 -0.11442848885492551
Ni 3.0713976930792213 8.579249029349533 12.572730454825248 1.616934896453499 0.516608158652749 1.2655026324118723
Ni 9.030165703702794 5.17910684955267 10.441474277072494 0.8963012173122822 -0.3002241165989281 -0.06387622982867064
Ni 8.58825971740431 2.5827453493571704 5.887386978160553 0.9325612280855811 0.5251640186425601 0.7234459517790315
Ni 3.644768707926381 3.022303095738349 11.714827395982548 -0.0702988455255628 -0.1996919261101206 0.023817414134571887
Ni 1.2174076681360202 3.568050435589301 12.790519695279702 -0.1817091163794548 0.11228161771525179 -0.5262379684330293
Ni 3.2315877029419116 8.945374218936838 8.17376897705511 0.45318649986299375 -0.7767312934657332 0.40118773819819936
Ni 6.077445143498551 8.645427527174057 3.6703554213199037 -1.215295672540178 -0.5776150373534246 0.7888784703512285
Ni 3.4050479988489086 8.747785302794274 3.819699839378481 0.26923743840942665 -0.3959277753508407 0.23591414166694855
Ni 3.9117581255009353 3.2838496936596138 7.4696865548420375 -1.3368566586748267 -0.49709605676175034 -1.7842872298906498
Ni 5.275757856071528 4.755404273465855 12.05795621744945 -0.6701930059921619 -0.27908579195841615 -0.3336703120725157
Ni 8.184244129461415 0.255667806593406 2.4129739745295686 -0.7987751606396502 0.5032512777298688 0.009238487879132477
Ni 4.73872084800686 0.8491271947796536 1.9393631086654202 -0.13055727609598805 -0.6173318963270723 -0.6488261102806117
Ni 6.156256808009973 6.11216814847731 0.7195389378238009 0.39483788472077164 -2.203024289826522 0.49968644319674593
Ni 8.042903750872908 0.1193133420618759 11.4948801412475 0.46089569558179333 -0.9149849097647146 0.15538899042768722
Ni 0.17571478826171205 4.879624344750286 5.881138657605398 1.8203340962118781 1.7026485338722352 1.002580337587196
Ni 7.823934929436739 6.644008082926546 2.5647166918835334 -0.2326850932066896 -0.8812852035194243 0.4913211019511861
P 8.808257031517439 1.9214154563672246 3.603855633305144 0.9705832158553092 0.6988741759769382 0.8218690663446362
P 1.9339303008877473 3.4718909211461577 1.9024365808805381 -2.4636770718907313 1.5733945499687032 -2.0781128991624014
P 4.816840782930239 1.3603499468231532 8.442791715550307 1.1275706611183678 -0.04804594766463339 -0.7331341256010728
P 8.68619406434309 1.8075167186728096 12.494694255588842 -0.5736758502000184 1.239003300569763 1.1432903858464698
P 6.5212169793437305 8.068952830885808 1.6962765890398093 -0.6734264253277951 0.6041760756714045 -0.8040006707046475
P 1.9086548658088445 3.3652735475364106 6.274622662570331 0.33856389271939114 1.1364952173015073 0.026260219248109614
P 7.248825488914365 4.443334110502102 6.01804195495481 -2.1875182237711233 -0.45796515219855966 0.9082445057170875
P 2.291545396201097 8.747239200487924 10.44349940645854 0.22974375119017854 -0.10015115300030494 -0.6850778935237943
