# total energy = -340888.34437778447 ev
CRYSTAL
PRIMVEC
9.10213440443385 0.00000000000000 0.00000000000000
0.00000000000000 9.10213440443385 0.00000000000000
0.00000000000000 0.00000000000000 13.32189375873878
PRIMCOORD
 96 1
Ni 6.63457297474936 2.1982837536004682 11.172352813419444 0.4254198712726867 0.06657048883138213 0.3138617619870207
Ni 4.86083096770263 0.6227461815319896 5.713267687074642 -0.026472078148599573 -0.34202973978080453 1.0603756513291094
Ni 2.88299180395219 2.1235552312556676 4.834381985945075 1.3525367884142447 -0.2794930546991638 -1.0616020675370426
Ni 3.69725963348246 4.592381721720266 5.132712628517664 0.5847256802562768 -0.3022637727367762 -0.28611107423631366
Ni 3.9181775343144527 2.7699888070081333 2.852430477932104 -0.437247202924918 0.7348518796231279 -1.718759580501485
Ni 5.477473257994129 4.730970818093218 2.537114342600973 0.1278948987724765 -0.1507628045095855 -0.4204170187414566
Ni 5.752248487293135 3.3072877928806768 0.09255596252318393 1.4762091644649415 -1.2034698835498434 -0.09365603219426451
Ni 5.730275935168855 8.107562261294639 12.120138940321658 0.01682941285251295 0.5320440335918449 1.1683378157334008
Ni 2.163504498560336 6.429274336322201 0.4996279827752932 0.8504005981254258 0.6631127021066128 0.4667171873595769
Ni 1.1112613685788093 0.06601869006322458 0.05411309843996035 -0.39868194105721017 0.1620106095092629 1.5012074862814921
Ni 8.089512729040104 0.1489172881274763 6.8667966365563196 0.40729796486099534 0.3270885450899399 0.9507929206022592
Ni 8.50200324982228 2.6128677652644123 1.4250829334630444 1.5612694845703952 -0.8645483503807175 -0.4238296439674313
Ni 7.172791276183028 0.680790491762537 4.7301780221984275 0.19198915814922418 2.586273698378746 -1.286969029815764
Ni 0.6246849361311909 7.5444314183679495 1.9660582713666555 0.700415038101497 0.033372661923174785 0.6713530877385341
Ni 7.939764416053909 4.2020093872106665 3.6602439840525456 0.09562344033328048 -0.9123063344912868 -0.4060481516142942
Ni 7.633568619259866 4.347698148313088 12.300650646708702 1.4926295148044941 0.09961533510149295 0.8655112285146189
Ni 8.298024420864062 7.294195543056955 8.815349683297699 -0.08483740546137002 1.7557189313346537 1.351097484864557
Ni 7.0340929541988535 1.0905995237891994 0.31721302011269686 -0.5578645941993747 -1.3750555383420513 -0.8180885162562814
Ni 2.2538613854442384 6.322606424829056 9.2494177235769 -1.9716237197592106 0.4801581433558312 -0.33782161523672793
Ni 0.477454273483677 4.696910631660302 1.2272926455940123 0.039275914781487196 1.4501554048006833 0.8758236661842207
Ni 6.704541080871708 2.3510994858351646 6.732285296335678 -0.7088117468056245 -1.1208515972269792 1.0661040691724541
Ni 3.8674604421700884 4.290145353333043 0.3089865111607808 -1.9907912938265975 1.3376644992881028 0.3239317446285131
Ni 6.277559962333998 5.863185299758231 4.739783504492029 0.4203152030562697 0.23741052370681695 -0.7220896948614531
Ni 5.394625631881782 2.965648285244898 8.974693466229798 1.268823469254989 -0.08263397005214801 0.9014408525316928
P 0.4100356751699493 5.847720773635964 12.597675133013754 -0.4778559775852157 0.004871212049372256 -0.10996453954630094
P 4.20902713273172 6.327676313616638 12.69084913045377 -0.05189103244233644 1.2964569147015415 0.74526921830171
P 2.7119080882405115 8.462918685273126 1.7322590301178102 -1.2391470252364787 -0.0301487556692384 -0.46326702402744735
P 6.851813613336859 7.975444782386628 5.652519132752907 -2.0356742703822164 -1.7343309525771808 1.6131941984641442
P 5.0266627519413545 1.2496866265349273 12.513521350633868 0.2314998146493368 -0.7938936641776327 0.21068287790398554
P 4.055428616949928 6.136986600690502 8.141342101992086 1.1793974159816718 0.6706414063834902 -0.4314059136527925
P 5.109410254576748 1.230936229941713 3.610925889945258 0.3798419255325716 -0.3031729148146069 1.823646962635195
P 0.5379734540218433 5.762634022493552 3.3121956636782794 -0.04591270337171447 0.08148880070411127 0.6072228329175284
Ni 1.0426494804624746 0.2858106568861972 4.398955907233004 -0.2970562603939078 -0.3780472955259941 1.009650871280732
Ni 2.0696341878487736 6.91591994499026 4.5026000897221365 0.04687403884371927 -0.9352292618360474 -1.556772625141306
Ni 6.211269118456145 5.823636526361379 8.959705891943203 -0.9810044111886332 -0.1822667886551377 0.9592428511418254
Ni 8.831673450894916 2.5449931500238305 10.029907532836582 0.5535294571591305 0.5428141276241555 0.18045698913990857
Ni 2.3390755664664096 6.062940738415843 6.656497285562018 -0.07577272415594047 -1.237102226892308 1.3863642784866512
Ni 0.941424645261923 0.020107524812655195 8.587106384806377 -0.8464886646655293 0.5780796356946689 0.33333015512427755
Ni 1.889157069571952 1.2051407814246404 11.483126073537141 -0.5877642099722845 0.7346230514417735 -1.6812656973210849
Ni 4.3588664670606 6.930037355240782 1.731206823396366 0.14943637238867813 0.5633883522310813 -0.18315304791483294
Ni 5.807716893525684 7.9046028713744985 7.754367594204935 -0.026625058786696087 1.0157994073806311 0.47748522450935826
Ni 5.647337287713822 3.1758620761770744 4.569289607080953 -0.5341312551381769 -0.19518041139301226 0.12859501016329467
Ni 0.6658966694589076 7.786002061855283 6.319973177385164 0.13479805365021302 -0.3809855522187116 0.9662251959969295
Ni 5.483316828194539 4.8454483607887795 6.980365786251879 -0.8364816740514884 -0.44285349336810187 0.037911173223476646
Ni 1.2497685457433443 7.676576203678767 11.617463562993255 -2.5150878222625397 -1.1910625110244262 -1.1801165535358837
Ni 4.897157585568416 0.5672067786521473 10.143716068663405 -0.8062200469534695 -0.33498748822204244 0.30279856219432366
Ni 8.382601452487435 7.492330801814766 4.339740152322094 1.0493273639347476 -0.3283640693682538 -0.6858818774823284
Ni 7.52062933725569 6.261922495660628 6.915301910073425 -0.7539880862319466 1.1322145876482823 -1.6726532730617254
Ni 2.967286669413237 5.054642712682878 2.6002066964968584 -1.2699354713722453 0.7035091036457884 -0.017798204523685475
Ni 2.4794759875588026 5.489360645348857 11.676453584974304 0.3883990710739633 -0.8293797728993845 -1.2470899342326394
Ni 1.301486872657249 3.480647042159492 3.5390672705353308 -0.7740987409388926 0.2587882180516446 0.5180135236407079
Ni 1.2625024315850466 1.1307945487191189 2.231443738954225 1.7073785923580531 0.9807087343250851 -0.4502261316830891
Ni 1.6067087410845573 3.7661809941639257 8.435635948016571 -1.1333132200290998 0.5165549368173105 -0.6979439508531851
Ni 3.856110080737206 3.10787823532527 7.236452513470697 -0.942274598718603 -0.051096047344866835 -0.8939933951147119
Ni 4.493669075577835 6.987289779789965 5.929268614974762 -0.5518860080184367 0.8328492195052237 0.06832963761433393
Ni 8.30242985385004 7.677013106123658 13.201023756206034 -0.5064646424608439 -0.02992866923863233 -0.11568421563889754
P 0.4626096027050978 5.999143879327572 7.809893343883375 1.21809483255187 -0.451707601324622 -0.04023776447412425
P 8.613176717778359 2.0194268152234485 7.899123386544831 0.8915878709970129 -0.17952136469951663 0.26795934302795144
P 2.118021133620389 3.4814389278408564 10.664948877338528 -0.5372649156711521 -0.7751297533065683 -0.9426895747688346
P 4.291811043904188 6.204187657995211 3.8405417902842767 0.2575636016159242 0.9480783498845737 -0.23714081498519804
P 7.138831213227065 4.252180351298918 10.182908948610356 0.01591461434772743 -0.7649235021975278 -0.2510401986751096
P 6.6259077429257 8.14479909258728 10.163445854903914 -0.8797898499208203 1.532509124608251 -1.6044637605696819
P 2.6921837632805627 8.55903722314902 5.880616797095932 -0.8761095728557556 0.39921698762507374 1.338946965544952
P 7.3331708819948895 4.387884071108739 1.297950693493917 -1.3161376809599206 -0.05620688620887094 0.17064077438043515
Ni 3.071187532088742 1.8530033922572688 0.09704604535785996 0.4249041079785328 -0.5210816210430702 1.265896268305865
Ni 1.8606582871771198 1.5474902555333667 6.7092914847464655 -1.1470765923617794 -1.1996757066147339 2.080044826077792
Ni 6.9580628266536495 0.8963363129492308 8.975958662893127 0.37772307941735594 0.10034758528182718 -0.461756758030508
Ni 2.801445783040245 1.798508914391456 9.14436088984929 0.33121747965664894 -0.6369437570207289 0.3939719371760505
Ni 6.434917659568702 2.309684774913259 2.3598266121718514 0.0780077841340463 0.093503051556168 0.349426803575824
Ni 4.246163840547406 7.149553527395417 10.305230710618554 0.8393908772784835 -0.09385272158610289 -0.12229375053561517
Ni 7.315148656143159 6.4376482998492675 10.967901583692688 1.0663753205559698 -0.39460725676720426 1.9800700507543512
Ni 8.078881436214436 4.400972940186915 8.129858849398882 0.36154029900990636 -2.0054602086926816 0.3472683624719245
Ni 3.1796030533614488 8.416870988008528 12.310975197609517 2.523260587881319 0.4926827581854031 0.9623220042877814
Ni 0.27206279328697835 5.310531013374643 10.465572997679915 -0.06207671472608664 -1.084124931229907 -0.6014453070038028
Ni 9.027660605965348 2.8248382681104194 5.709457533669826 -0.35853853606910513 -1.4966103538291127 0.8456371152985113
Ni 4.1773152969400895 2.85542143925275 11.325927663652138 -0.41971459335779326 -0.09657372006169174 0.06005891296510947
Ni 1.1635531299516326 3.435846337289686 12.583674230081867 -0.594599487726563 -0.19620036801709434 0.1833728772351229
Ni 3.213845282479736 8.525459449832336 8.119947535393857 1.6201837424080998 -0.214706654351398 -1.681537720035549
Ni 5.675089695098633 8.158980217777682 3.7543363868402606 0.4357832167848817 -1.0674305012933618 -0.7951437345346499
Ni 3.3884879326904174 8.896617178901025 3.9755464661822737 0.1450035334283051 0.389602090243129 -2.5024701334985293
Ni 3.67540540910367 4.446074015487583 9.576709536965165 1.112244829394575 0.5720498845608212 -0.511817422132325
Ni 5.358908857011989 5.075850685528602 11.445784567700413 -0.16462902096871648 -1.0444204135514337 -0.34544930698531473
Ni 8.226581768990208 0.15656854219361996 2.4144066500997883 -1.1972429288035251 0.15801717207915367 0.07728684680762174
Ni 4.718218727982979 0.3718476708462452 1.7153536361408313 -0.16886877008167692 -0.024457361711415944 -1.4857631267019638
Ni 6.273181835750826 6.20325924029982 0.4024918262881746 -0.5526390841343773 -0.8091760442579998 -1.564644314579899
Ni 8.530975343199078 0.12135966641601241 10.824664937562213 -0.09839946041652085 -0.5166703793492521 -0.053542966223462635
Ni 0.07871525715442584 5.07893630904564 5.6590872328410935 1.2492815425673194 1.6149816293818702 -0.40836600111419347
Ni 7.593801394640568 6.28703528410756 2.34352104884317 0.42431018314827573 0.3397895375963761 0.41402602761344826
P 8.792534273540149 1.872381836115013 3.8122596386850365 -0.3468829541080477 0.13767331831547902 -2.0661004480825578
P 2.1709591465262794 3.29232388414318 1.5695592902808946 0.07129283400771592 -1.137440611933912 -1.5935496847603394
P 4.682902447021003 1.1777251530077661 7.837189734341331 0.7735102154252743 0.06417139247158625 1.0472103175917449
P 8.85551194054425 1.6138903250224437 12.354444260235834 -0.3031394904735102 0.4178780543696867 0.5567906444089057
P 6.521715611953601 8.093909059891814 1.446318212711573 0.5755555837212346 0.3494021209854757 -0.20510949758126612
P 2.002942850063103 3.6740036804263134 6.0125567843857075 -0.8743414252117393 0.5868818073673312 0.4545155030870624
P 7.079922200241006 4.161896281489164 5.796888994599816 2.0204078311414495 0.9736451426100845 -0.28348032148168595
P 2.4782289951640113 8.50421506844954 10.082555187659304 -0.28243773914978454 1.2291006967440703 1.0402320865016987
