# total energy = -381170.65836714034 ev
CRYSTAL
PRIMVEC
9.18659695721908 0.00000000000000 0.00000000000000

0.00000000000000 9.18659695721908 0.00000000000000

0.00000000000000 0.00000000000000 13.44551324233887

PRIMCOORD
 96 1
Ni 3.875733312119313 0.9987300546596583 9.585225253720447 -0.10692086762397071 -0.6059262255932919 -0.6110496628627864
Ni 4.721515717122723 0.6913097802830181 2.889319727751812 -0.38756989030444866 -1.280538443699072 -1.0103029030424344
Ni 3.9599835911148955 0.18541124532897596 5.214869035524986 0.06944189684190621 -0.24279389950591737 -0.5432116201728903
Ni 2.859631402963891 7.689484655818259 6.3164871367111655 0.5837383766423431 -2.472634281084019 0.8854118240932881
Ni 3.532384257767564 6.070392907745376 10.238058810743492 0.4096983467723718 -0.6667299871442259 0.5470297083673998
Ni 2.442798761033289 2.013490720686375 5.350278553283898 1.2040324409215328 0.6694602415911954 0.9481349141541219
Ni 1.3679485655212273 4.873627386472723 2.6317707312710743 0.4604578367134264 -0.017477330849156994 -0.38526926719573007
Ni 7.967250595815033 5.178604026108024 13.085173475605599 -1.6026094809697624 -0.7196713152279476 -0.3897658695145029
Ni 1.3863217590651336 2.8342580226797565 0.9733245212868219 -0.015292921603328501 -0.48147814771883535 0.32729474756347504
Ni 3.7298501553806966 6.512773475298779 12.59330930454007 -0.3200781752103778 0.7617476755727075 -0.24954484507650576
Ni 6.311017436993144 3.220058340714701 2.2897436281948096 -0.5792404887719895 -0.14634924882292216 0.03142916504355878
Ni 3.1180228103686174 2.4480259345965303 11.191856301931852 -0.5067253523213983 2.4938700505343436 0.6212505146551882
Ni 4.040403059256573 0.60655699444401 12.164128957888284 1.0142076374134792 -0.07425654462173019 1.645052994845954
Ni 6.96638006410751 4.204732902313271 11.187513797637749 -0.06349236412669065 0.19956002851794663 -0.302211322232286
Ni 4.963692781224952 5.7178480700249015 3.897652532017193 -1.2905405492171065 -0.2008239828320348 -0.043242098518086816
Ni 0.551629413684825 9.224721148556753 2.530889037479548 0.7622842648024678 -0.9143393057609156 3.081157577980526
Ni 9.04757600300318 6.920006123602691 5.887951689152772 0.4398859260993456 0.32605341895720624 -0.06322394095665242
Ni 8.007910473127698 0.7639224784878902 8.061244179346948 0.36662105596692346 1.1429797965845865 -1.9700175516143557
Ni 5.903968520624673 6.829968288640778 12.279168115965067 3.705677250305289 -1.3478218994370785 0.7592984427012666
Ni 7.544667144305189 4.805591450779639 8.952816257300483 -0.1595806599115316 1.2238433049998727 0.6619611050006728
Ni 1.6470281888563918 6.916809187926051 4.288056253694563 -0.216838098872104 -0.5092792290915035 -0.4141777226999641
Ni 8.421803404091275 4.179625933335523 1.786680077004592 -0.27050627781952125 1.4690915795835537 0.25873808153999955
Ni 8.07433875438569 7.502914061976662 3.698322673919031 2.5242424921786144 1.0880949716212487 0.16158354927417334
Ni 3.0187248858605757 4.466367178378497 4.243081431878112 -0.05853913388647339 -1.0796774369815147 -0.2525219254269586
P 1.9449495221708322 5.291194956145081 5.860025353625712 -0.42876513359583573 0.8705266794513395 0.47551473104654884
Ni 3.599997610009139 3.7742306043860028 6.408104147658177 -1.401698080630244 -0.5450473878300485 0.6358147856226082
P 8.676731464512974 2.8107678947338726 13.17461234445798 -0.014773301654432624 0.7797963055443021 1.011446272618258
Ni 7.080137691934606 7.842129147781032 7.426749825459752 0.3408264635013227 0.011247290779045144 -1.2045412622371514
P 2.443478569194414 4.708287017771111 12.27118220739121 0.6752537083445209 -0.629813830844167 -1.0883502821651643
P 8.265594512580984 7.560688569075475 -0.05996367310956977 -0.20726279647884308 0.18872668534786852 0.40757898643652385
P 5.3474996077603825 1.0800865556720753 0.673204835364853 0.4964365688008805 -1.7522278874622597 1.127630824932342
Ni 4.600142400571678 4.3539324204865615 11.87960811328509 0.19014259185878868 0.07286943446621644 -0.9475546161706196
Ni 2.6543477114978264 0.5794822564377097 7.475920166021955 -0.07705056242709955 0.6041830176499401 0.13093137160595517
Ni 5.255339668944148 5.218758640598232 0.589864029449694 0.16566697531492758 -0.7047964549986443 0.803697537641932
Ni 5.9480090655494156 0.4743526802988323 8.887874367400192 -1.3496139583404951 -1.6322697270383564 -0.6236832924663968
Ni 2.061545808400462 4.227166571630381 9.67689738424809 -1.9523419887114637 0.040819605119523254 1.5422060401810407
Ni 3.0630318420917058 5.600268817940673 7.867735867623174 -0.9016365134822666 0.6529812700995659 -0.7025074018541514
Ni 2.501712406131825 8.356826605123251 10.92278547577973 -0.35851102526527934 0.5298277426668165 1.1497837068802972
Ni 4.086731066777532 3.847888737303523 9.053213817442128 2.3933756552620076 -1.604873851523907 -0.34981838258728787
Ni 5.94840408921061 7.8425976642164015 3.913961497266442 -2.2863267467006043 0.9693483150069434 0.28252721353979726
Ni 0.3587430345625107 4.382208765350634 11.497419046441202 0.05806399402226774 -0.21569370085501563 -1.2387677875201892
Ni 6.749723365837767 6.436092952043286 5.571565296326706 0.5442572878285853 -1.769845857654339 0.2837448879969823
Ni 2.6717011928000454 6.3709875407204555 1.25884578627848 -0.8467347192380644 0.39207472015333766 -1.426995421744452
Ni 5.48078794032465 2.3521913570715154 10.697237070494412 -0.328438374249615 -0.527744891995859 0.0521622838258521
Ni 7.220462957626189 6.368700078124238 1.4001218647359615 -0.7532123844081867 0.7510932811826548 0.8461202255825171
Ni 4.942067532423775 8.13698215777364 10.836922030390992 -0.4989539359060955 0.7201947918315855 -2.0002398408340065
Ni 6.922082294473152 0.16669079842708986 12.513953644304584 -0.45638392375436887 -0.8908808176276592 -0.28701327433560897
Ni 1.7133278577595776 1.1244210716935212 12.684295196288845 0.11545075947185278 0.13897532495635423 -0.7856895311002855
Ni 0.20152729204601338 4.377597093771113 4.664961190075226 0.49582593180007506 0.8521283794498099 -0.36829021613923024
Ni 0.8952494726413465 4.9072778904483885 0.28166748764582383 1.069892332570293 1.1219990805678615 0.44859708072009835
Ni 8.891734575363765 0.5285517639340015 0.6525460165440846 -0.7433131230166037 0.4209464088823654 -2.406545874095378
Ni 9.10341213818311 2.921089735368258 9.060406922714566 -0.34073338956688415 -0.44154197364552994 0.11297298735532155
Ni 0.919964173936932 7.9975020589850745 7.764663170501537 0.18839269904721748 0.8055741858393546 -0.18522741394535844
Ni 2.5433185029120007 0.8359343732638767 1.3671401450052953 0.6624236464593882 0.5046188475013568 2.2614420676437827
Ni 1.3757755459709313 2.6219465846831476 3.594361632889546 0.1291025459273325 -0.38076983666347974 -2.350269310990836
Ni 4.873067004069634 2.4527019123534544 4.81739255299289 0.08888175073407273 0.33674380879151683 -0.20899134913417558
P 6.416056984483657 4.011125375344359 5.067331372707742 -0.46446232988712916 2.0020915493307645 -1.306965270432033
Ni 0.41457641376341037 1.9748794544538557 6.712268692138837 0.5510637692274574 0.3563412713074702 1.2947083074415509
P 3.7644928118077323 4.832103969063495 2.1426368167661693 0.801999838224535 -0.4016204548602438 0.8074040399592417
Ni 6.715530852652558 1.2367364038274202 3.7719909120930004 0.7890782450668604 -0.6208447945763372 0.3030947532785038
P 7.237246869928549 1.0591227418384783 10.347168939263657 1.21248828499837 0.13241772634349455 0.8535972506858525
P 2.448356652080321 0.3687490757665221 3.6239286946000773 0.5524038281951196 0.25944024981334673 -0.8861787841662995
P 2.1270278701909437 2.4739596972837545 8.343505121144242 0.1741179342957582 0.9192673391901522 -0.6687909834383127
Ni 0.4385047423753167 6.9807019684749845 1.87996537392539 -0.7553553988931184 -0.47602638057564467 -0.7441621012804603
Ni 3.4567234467537578 7.6084680588864035 2.898408946597983 1.0356251838573067 1.3220910703298778 1.032396906727996
Ni 3.136506243073787 7.850865601311159 8.891208183368734 -0.4202884635833923 0.9904012790225009 -1.6214361267579624
Ni 5.038673784077634 7.887079165786199 0.6373229070332811 -0.7972258138746593 1.3630520861232718 1.0011320351764434
Ni 4.932044955345574 1.7659762438596411 7.3405106482630424 -1.965421190492925 0.8766019391111419 -0.843833229320553
Ni 8.620390066510586 2.0955637762470043 4.685250707705761 0.430982967182761 -0.4352515126511278 -0.651380244161033
Ni 7.15376826506181 5.428461085111605 3.5669194310123675 1.4485757190183892 -2.1138373491472047 -0.8363243225380178
Ni 1.4626256318529762 6.7312858661164565 12.186488215771542 -0.3590756395194977 -0.5766884117740971 0.4705956964783766
Ni 9.0476678689709 2.0086677573810996 11.227554498327983 -1.0063883984793764 -0.5807461267832384 0.5491084452732995
Ni 9.107371561391822 8.962407064330401 9.676910245483569 0.5965483839228178 -0.6660334752978336 1.0679264670931738
Ni 0.7941509751660021 6.454107868313087 9.52072707644424 1.3321158015557317 -0.3038799681839605 1.145628289951027
Ni 0.20237980822645063 8.698439392685101 11.950721558896781 -0.06105290144726259 1.0210161756948803 -0.17463009804548635
Ni 7.001629035921494 2.5333694186079754 6.277965899127011 0.3262596214307413 -1.6729985722162866 1.596928114314269
Ni 7.155495345254938 7.7928981756801345 9.617507873436766 -0.8638050444567897 -1.2791842436640228 1.922392750647541
Ni 0.88687956432242 4.577267774609515 7.693764691254311 0.46631918059020977 0.0635098476281874 -0.503601719090752
Ni 8.635263166684378 2.0963262637790763 2.279592438761801 -1.2511545912203161 -0.7437844062260675 0.7101911436516544
Ni 6.842057849992668 8.642768616247064 2.02283716424216 0.730998824425625 1.576729527879207 -1.4524100051628148
Ni 8.470703658708382 6.678674226403482 11.333384093140884 -1.3785864343134453 -0.8045614283041241 -0.21337096625910995
Ni 6.339257035470128 2.4739780704772985 12.850576272499907 2.2362424284497036 1.2169265232753816 0.4317956928920434
Ni 1.3588446481202217 9.178935150245337 5.461675225740602 -1.8193642760994408 -0.3831820456493982 -0.3428123835830999
Ni 6.050660097879221 0.16466607249855136 6.082077340179623 1.2792058409305775 0.848715754223835 -0.4999381541962358
Ni 6.491102293513742 2.8433803132743063 8.67380828942014 0.6489096711333533 -0.16518155103807683 0.15305185765407833
Ni 1.6346722161981146 1.185052610388412 9.975401147797871 -0.3494777114184175 -0.10945006180372763 -0.21812982110033402
Ni 5.033069960046742 6.6969647405764405 8.23703062723795 1.272068715665164 0.2588131577523091 0.2230313721670094
Ni 4.237363694047249 2.7877922162072175 0.236072570547266 -1.948398173572367 0.5966224316938629 -0.5555356889558819
P 2.826118697939806 8.456510366695714 0.11870093555008379 0.03642121894151147 -2.1562394682624992 -1.8991674615710135
Ni 3.787881887189125 2.6962110329876166 2.4686764854802044 -1.067957063220793 1.15851877276045 1.0245139044354936
P 8.320714093212702 9.167819368151275 5.575020375372637 -0.6351049040397772 -0.05711422851448873 0.3200529783993972
Ni 5.52179690831465 4.557727883275571 7.109449366254877 1.6892533435122519 0.3282774231917185 0.12503557494681047
P 5.855215251555917 5.9830375590408735 10.324998006614225 0.029898330221329154 -0.6502415025708995 -0.7048165096033022
P 5.005032466698742 7.325658677261826 5.984705845014659 -1.7665738717712867 1.2810189828799163 0.717858430388925
P 8.531895579806362 6.424012577288169 8.036060042956317 0.14535577456140128 0.07726524954106694 -0.8787691219657899
Ni 8.144478420739555 4.730417529394746 6.550801392636279 -1.5068366595428113 -0.736323321962332 0.16031830940850456
