# total energy = -340877.73801832454 ev
CRYSTAL
PRIMVEC
9.22086844107587 0.00000000000000 0.00000000000000

0.00000000000000 9.22086844107587 0.00000000000000

0.00000000000000 0.00000000000000 13.49567302318108

PRIMCOORD
 96 1
Ni 1.5399403487911456 8.970070004936202 8.575703606223499 -0.5880737707929032 1.0311576350042564 0.19741958513617613
Ni 9.121163154615207 2.3815105663490197 9.691620477251986 -0.6613612666331449 0.33005636946901223 1.4350555730447672
Ni 8.666196286660139 8.365937148798707 9.716844162772974 -0.7578609389237916 0.35339555841558495 0.988432585331904
Ni 5.387781071456791 1.5693918024756774 5.105534900023892 0.6822311681036186 0.31369721138469847 -0.6555546872536967
Ni 4.361885694489464 6.920833431549644 1.4010805252246241 2.055031591862906 -0.146205009935574 2.871835842090125
Ni 0.20389184216417264 6.137170267573129 5.792207437598994 0.16229394507763664 0.025816703952787793 0.4667940633440993
Ni 4.503665767079747 1.203885799782767 8.978077407058821 0.9502810139628473 -0.4679469460016199 0.08240385631921292
Ni 7.852473091684383 6.247553283245493 11.309940973743391 -0.46456928777863865 0.36155135475349987 -2.0866276215016324
Ni 5.94509957870375 4.656243476571903 11.403465475711487 0.08710768955278546 0.35245042089349626 0.12596631429119595
Ni 0.4802661645969737 5.106249517325256 9.91277378506971 0.08733574640319153 -0.5702989633079855 -0.034052718709334906
Ni 8.662517160166674 2.249412405583646 4.373380429042732 -0.49345126092031144 0.27588682540514425 -0.3814403803679431
Ni 3.277668324862569 4.778779596801629 11.560528215595678 -0.6468018807617312 -1.0609731757037923 -0.0015408621245586365
Ni 3.313592828167183 2.4772508429947595 1.6460541023921451 0.37335760335980855 0.6586238130973238 1.0990301304765135
Ni -0.02459943272999185 0.21400252436989872 2.5205732490204444 -0.7567772189413097 0.3608705266363914 0.3580893643468284
Ni 3.8425202815961477 5.593609295985945 6.958922072668835 -0.24956232857800245 0.5563211609716547 0.22903746915177328
Ni 8.911554374040135 1.523195251768256 12.262613434709193 -0.8964174311751724 -1.2067434120947929 0.11533943070496909
Ni 3.987868830259039 5.098098269655522 3.2999210465835715 -0.2944666452898606 -0.28553360446628895 -1.2219910822824827
Ni 4.24627444643165 6.532081619608548 10.136411194835654 -1.165450723993593 0.3130685766617641 -0.03980350515018306
Ni 5.852955440735832 5.368177505228451 8.959979608640966 0.667799823169637 -0.10598987116926908 -1.1880581769804635
Ni 2.866989287855156 1.9286091729166 12.986778023217703 -0.32332085051739157 0.3004670858476696 -2.1636869256794804
Ni 6.588946715060179 2.4919765698370253 8.252266893540078 0.7903797374871033 0.07922160193648937 1.13778411131626
Ni 9.365820455996445 3.7550326821725917 7.641249737051654 -0.7972499822443753 -0.10786703358732391 1.6713484382073733
Ni 7.091880540456365 2.6808107338963643 13.511192783649419 0.11043016632880981 2.0946461209307343 -0.1163367616212319
Ni 4.565159738470523 8.400828914841998 5.542389216171657 -0.7131401989776492 -0.40144407718337954 -1.7025426044219905
P 7.588949893547177 0.8917713914134457 5.878809833655701 0.12088221490006924 0.4048014236913867 0.1877604647798573
P 2.6153978934335997 5.184838978738299 9.39983070702025 1.4540724804669023 -1.6416511682532564 -0.42222913224953085
P 3.0361645604757275 5.142727272734149 1.147700282332561 -0.0022486868248606435 -0.5333013030377138 -0.12316406895571046
P 1.2273713516094742 2.84149358671623 11.76925271489074 0.8819889144546681 0.25937288691052107 -0.41879876641174324
P 5.636975040093131 7.430987196906692 3.398426661663873 -0.446862871637811 0.19820480004163285 0.41720751066522344
P 5.487633855411016 7.2004747076582225 7.091368782259906 0.44402231686522237 -1.0077441411763224 1.2347972329082153
P 1.2494000062282427 2.015128581157665 2.2421445171070813 -0.6408081250721416 -2.7102368661969836 -0.18357136639917418
P 0.2915408067848104 7.996770461349142 11.63599641305374 -0.8083687178653562 -0.33382097871776706 1.1565477650770084
Ni 0.02540810288908184 8.16234959529189 4.722595001438263 2.8406756144372367 2.6249397474903757 -0.00017714900781259815
Ni 1.2389896457993643 6.1841229294897335 12.598642165286037 0.5684660238643049 0.4356168664103465 -1.5484941871825977
Ni 8.250694735477081 4.286873930017434 2.9557004965160125 1.3595746690976327 0.12544155213597752 -0.46077176840941936
Ni 0.13040428723943462 3.0698115092843863 0.7895571430607834 0.2452315624131325 -0.6625614575888331 -0.5729400004752584
Ni 6.248475370085961 5.966814723796759 0.03447959322560106 -0.8371514464250035 -0.004147446509470277 -0.2957609386212519
Ni 1.2867537441355807 6.176192982661714 3.160821480438528 -0.873690679001618 -0.4350190849253475 2.5356080537030783
Ni 7.804589122058906 6.707969684427724 4.058526500670382 -1.6069667294971937 -1.61208605300163 -1.5858194059956172
Ni 3.033776355558917 1.8393603876277507 4.098258300539286 -0.07126892274831598 -0.13791474490232378 0.6490024879574758
Ni 3.756397370696484 8.128001860484476 8.170510063830028 1.2661040134412969 -1.394473537857347 -0.20186630805362007
Ni 5.0856593181776155 1.459930873643781 0.20196836901495743 -0.41730521258535225 0.4918618049460045 0.21455778747835952
Ni 2.630621547169718 2.123519889254619 10.010401573477887 -1.6725571138034938 -0.0990085547554295 0.684047652487067
Ni 1.5520104655328653 6.160019579479914 7.825074203306732 -0.692515323638446 -0.9429631401451954 0.25846708726680007
Ni 8.888483761291637 4.329714084625554 12.027317158932377 -0.5968299197189786 -1.3574843622275072 0.8835997105852137
Ni 1.5954591974556935 3.7013856697941927 3.2176247960718474 0.23733236217071382 1.9549532010820658 0.8438291155554951
Ni 5.119094187012967 4.13465583439306 0.9105543003537686 -0.9431526304481822 -1.3178672620565173 0.03458982215972753
Ni 3.2132605590559145 0.8529413924745191 6.807082032649053 -0.49456146326535466 0.7803856023888689 -0.5756473721040924
Ni 6.315262119941022 5.5572514118663126 2.4207462834977522 -0.013781370054808523 1.0504506789059136 -0.41948370829390985
Ni 6.989289158585952 8.144249030613514 1.7098339270604415 1.2992025957674787 -0.42437857449236593 1.105445289974238
Ni 6.065487236595186 4.191898985449282 6.594701459031537 0.6284637445741758 0.5109553312423458 0.14419055060870653
Ni 7.0412764146515086 8.591654786476747 11.422764753282472 0.8137896317706114 0.8411765084239964 1.215745358483087
Ni 2.7185148648030797 3.324925275436528 7.424009765784874 0.33015458560977334 0.5678381604723188 0.606958009291916
Ni 1.0251208240213334 1.5014801066752466 5.9834012218830885 -0.1663560309621522 -0.8922812975196117 -0.3458915367290559
Ni 3.7909756272140145 6.897956457037646 12.718200867107894 -1.4264919997454724 -0.7421147318331284 -0.7723699311732439
Ni 4.683804652233476 3.4601032062490633 9.599526131973455 -0.9494996557121326 0.349982676079294 0.39056831081114024
P 4.723767895899338 2.3667940603751587 7.065672988276598 0.2986685991863501 1.5856916221685013 -0.03915378738132611
P 9.186068847315711 7.340622686540876 1.9096104956556075 -0.5688432046980655 0.5209404674795157 -0.22291104453906127
P 7.782615792650566 4.723113214242606 0.6713179475076364 0.7764021922610886 -0.6110532624072121 0.9400089426128779
P 9.116543499544463 7.6931364856516 7.823603474796187 0.31873554513955427 -1.6775553383490336 -2.154187727939793
P 6.832626604390524 0.7106283536904466 9.685102245376722 0.10575024435463724 0.4405646973339251 -0.5608277905927567
P 7.717368927819085 4.289769282696502 9.783310026407552 -1.1758948021450524 -0.22333244834719598 0.3097279423243053
P 1.23742209817057 1.8887381379347852 8.105204185440757 0.5227510383256934 -0.10087877519494887 0.1418475042978267
P 3.5572173922870998 8.998359629201744 0.5052399645841953 -0.41306572058270796 0.06314269409675577 0.19824285236841988
Ni 2.1720124361948048 7.2204286668859385 1.2175197758059193 -1.325830482767652 1.5603284608133643 -0.6343981077807397
Ni 7.076324935457678 1.990020156491735 2.3467488145502355 -0.24072904655708866 -0.017713101009046914 -0.06892176267237807
Ni 0.9115584529230377 3.899219401416494 5.653283067953639 1.5138989657062314 -0.9073291929916697 -2.160265301592441
Ni 1.737368362203641 7.030995146380296 10.168800417193914 0.6150384723072053 1.8065537545983337 0.8276424784933035
Ni 2.143012805062102 7.963815077670834 6.556777871456789 -1.0691300004829716 -0.697111941870193 -2.2404490103318833
Ni 3.1261971195789733 7.338584874623443 3.7982223076932486 1.278889081021107 0.01881867536839985 0.3352803368721129
Ni 4.793551427985918 0.5511949285394144 11.307362818937444 -0.4246058600118236 0.450379883652134 0.19022178183615626
Ni 4.893736163202711 0.09056183694967461 2.426886459768425 0.03353695541518095 0.41154105640806543 0.4055131050464307
Ni 7.966064969561574 5.650446728832362 7.964282575698951 0.4303949558897749 0.896234882850721 -0.5817817671366045
Ni 2.4236038306163605 0.09085506056494327 2.582599264518171 0.04223139786538534 0.05232529176627763 -1.197334202965751
Ni 1.1362599509028808 0.44361597894891214 0.4161516224055878 -0.535233229953104 0.5679798282565056 1.129582549342074
Ni 8.450271211227866 0.7041534598966839 7.862390135653611 -0.2634966792709075 0.10220957819123043 -0.16123027969981263
Ni 8.232465078641038 7.142696746234528 13.325263193137554 1.6254475619102005 0.8983444729945561 1.2808215221571295
Ni 5.413839245568402 6.10565333936595 5.143687165135076 0.5973793644645454 -0.03352332856842614 -0.359948014822122
Ni 0.696536100507582 5.3551576390410505 1.1616551445761962 -0.868258709352769 -0.7890864725969765 -0.7058925162763003
Ni 5.663097760283575 0.3356082589775925 7.146539082098757 2.381873825269995 -0.37449814472215504 0.5841705790837552
Ni 6.24267544385942 3.9835995681876746 4.090038818443359 -0.400613096641652 -1.221730629532244 0.5812315510600893
Ni 2.2455211991168733 8.730585610729984 12.216822602211577 1.0121893214318696 -0.24031587027907 -2.1054612092683676
Ni 7.499092530943621 7.847429276667026 6.217267340970339 -0.5600171217660033 0.07535440567159926 1.1579405316594769
Ni 5.596541532138632 8.335886338667873 13.338043316746433 -0.17346564542374 0.7169210061763202 -0.03721080472234237
Ni 7.30790704544109 0.17597197472165732 3.958632222808336 -1.2788780252775134 -0.9347258398370676 -0.4162793424239992
Ni 4.07763398417855 3.7446776469541416 5.247805522813303 -0.6269624774383009 -0.17150029416725301 0.6478182378413875
Ni 6.7511878946404345 2.366720293427921 11.215511904584796 -0.053458891150088575 -0.4726104129155602 -1.6426482420592032
Ni 6.032375098153999 7.878558928401209 9.346293422975867 0.0918071519109838 0.14734400863602365 -0.820095262273665
P 5.628205994240285 6.899404133377179 11.718076895244794 1.4537271813123414 0.0234173504826758 -1.8467431823330258
P 2.4149362143159663 5.290159737656497 4.937405273880412 0.5281205301677228 0.6224928717027214 0.43831343940590317
P 8.075378364498995 4.43465678793916 5.381872338983075 -1.0209750380442997 0.14884861820600817 -0.28106528428229016
P 4.654906450653225 2.935389689681035 11.866515356910092 -0.13010836148402755 -0.5760209533934273 0.3433140058098668
P 3.1919050278306873 9.008142970579105 9.963140012469726 -0.3623946765904017 -0.00661107755861442 2.2170679124037815
P 5.012067567439905 2.3756921983856696 3.0369179054243896 -0.007355926144438945 0.4319952104973593 0.05148274126032423
P 7.1312720902811355 0.6265303454924491 0.3213371209476771 0.7419828342409543 -0.7124544857645343 -0.15511953881638446
P 2.1321690638182043 9.047811146456016 4.701568655215083 0.14320350410508886 0.8254678394394881 0.788857644415622
