# total energy = -340896.44608215144 ev
CRYSTAL
PRIMVEC
8.99325397811774 0.00000000000000 0.00000000000000

0.00000000000000 8.99325397811774 0.00000000000000

0.00000000000000 0.00000000000000 13.16253624902393

PRIMCOORD
 96 1
Ni 6.284566793412141 2.0577824073070117 11.441784239022265 0.46618034101950034 0.11274595894618003 -1.0496834617225856
Ni 4.415849563711462 0.3262455752495664 5.934092492719526 0.8326162775588113 -0.3689034242431969 0.5031558898025851
Ni 2.863721852503657 1.5982361241644552 4.798415391767937 -1.2953032607130723 0.6469533187379309 -0.7182518091726017
Ni 3.4403782884688203 4.446237768778854 4.788030881442007 -0.632957261569155 -0.6989469381964027 0.29021404066109374
Ni 5.251160976280141 4.471239014735454 2.809042868541021 0.2460247477383892 0.1295792284534349 -0.3788481941607347
Ni 7.177030334777294 6.086913058291941 2.4822307182931573 -0.19357912834416338 0.15478503829510118 0.5337797853360291
Ni 4.855134045724443 4.277623250634863 11.403442400169256 0.16535895715620555 0.9979058149296619 0.45076709178822366
Ni 5.71513194036178 7.744270833865997 12.260599325886561 -0.5816974349529144 -0.16714381697077021 0.7996578203549195
Ni 1.7995770934005568 6.55522776402719 0.3669967068334304 0.7079974784344453 0.24070950617306283 0.7504178523821851
Ni 2.7273481497389507 1.5180792517863342 0.398207794636445 0.22346897392506027 0.13628852215281043 0.2103046686289604
Ni 0.3125524467986602 -0.05574918118164171 4.832901822656345 0.9340452688302753 1.023805308404243 0.008248870272353536
Ni 8.663867022371818 2.281075909413639 1.294888272774637 0.25687711707186084 0.3932006062276648 0.6536281596549453
Ni 6.621283214225473 0.909910454011125 4.753202706903833 1.5367792127385145 -0.5180659741451981 0.6818419030849999
Ni 0.6355496587246567 7.607546394197582 2.437399347396161 0.3792605991078049 -0.4784758705574018 0.36430989133524355
Ni 7.703180656608548 3.964810898797302 3.7940487916121466 -0.4484685255620341 -0.45575374636953764 -0.34111828371012864
Ni 7.733685773977177 3.7431721554158597 12.55346643913328 -0.03142967926419104 0.027804938027410176 -0.5111941867260293
Ni 7.98665701408984 8.848669397610012 7.030952911010008 -0.48507100727641617 -0.9191755508072945 -0.6950146930215321
Ni 6.796300929175616 0.645065420719865 0.24624068886305198 0.5110954563646358 0.00567982399359667 0.9614146619821636
Ni 1.640126701022672 6.461257253595351 9.400038602143244 1.241832542488442 -0.2752607617853711 -0.7203467440284175
Ni -0.0300212803065908 4.843146038220793 1.3513056527241112 0.7542279701568946 -0.7669590445703178 0.022887703231450906
Ni 6.3238673131352865 1.8096855108304915 7.033519585684833 0.41123483802155625 0.8791851264572859 -0.5346696441401501
Ni 3.4466285999579704 4.5094333642238285 0.7437789732803056 0.32875899081382737 -0.19908874530848292 -0.21464134833110132
Ni 5.896094196167071 5.641872893756577 4.924367711865554 0.51784203105985 0.43774471138662674 -0.4636789147538853
Ni 5.149069557539377 2.929642403892822 9.057127628015197 1.0460597489270693 0.215262526854868 0.9512037828874328
P 0.3095909682758154 5.447411763785511 12.410389164880785 -0.01811162199904623 -0.4921034886431654 -1.1975308923575891
P 4.020218336329177 6.218619262261153 12.653725032720821 0.13930159794752137 -0.45978857856054356 -1.0798769545868305
P 2.388967976946492 8.486277236794487 1.4732829545797077 0.3045335426075594 -0.07930387723765052 -0.8549151981663277
P 6.221137373364695 7.839716237944197 5.788856837521138 0.9500365020522089 -0.27873895014195865 -0.1399340893251977
P 4.79326945186277 1.006884711259333 12.548240459268033 -0.38944833827408415 -1.1982261186524008 0.5812351506045151
P 3.8966240474149485 6.207017964676974 8.104923699369287 -0.16097162672178728 0.1706207197757771 -0.9989602243361052
P 4.751486794051847 1.1505159699546064 3.7556799729973127 0.33289255336622664 -0.3616367153784546 -0.8885200307049665
P 0.13490150709452817 5.674878135720865 3.413480365256017 -0.19362977907644072 -0.5495272779782729 1.0531526512181086
Ni 1.6719538267206604 1.2141252550808774 2.6359299247756303 -1.0703232494601245 -0.0016506482295455443 0.24013923549188967
Ni 1.8328701194909645 6.5040831288634555 4.515052349286305 -0.40544548503328887 1.4348802238091676 2.325792666005711
Ni 5.817205372594661 5.5179008881768175 9.089376537323028 0.8001890102680413 0.5860886220420746 0.6317714687911701
Ni 8.627489310179572 2.1020651897135942 10.126518152142213 0.1516621763954033 1.451814794780977 -0.11389189962516515
Ni 2.3592092996549847 5.232041318401102 6.858576514742403 -0.11908372823874976 -0.5041933299281639 0.7387512146775341
Ni 0.659949255992589 -0.27460900909524594 8.932965864777277 0.4902888040319298 1.373291247352777 0.2982577369011767
Ni 1.4525723900784653 0.9876931073487631 11.341565215752066 -0.1301276447577372 -0.2869939910618993 -0.27113671231466857
Ni 4.135349973284715 6.893518004280237 1.6113572816646995 0.14651225676334767 -0.020322513607435966 0.094916644074243
Ni 5.476738764887839 7.770899858785958 7.772530335725502 0.40821507735862594 0.284304102934562 1.2953572538794595
Ni 5.00952123613342 2.7795989551374567 5.098389873604403 1.2765061826112274 0.890604166927505 -0.013494692052325149
Ni 0.8704273712329734 7.207445519606511 6.8920485065862405 0.015098803314651415 1.136572864616978 -0.5956258721085484
Ni 5.1100388354344695 4.527257993535333 6.980829909493995 0.06557135814290642 0.21525892731044216 0.19834595360518745
Ni 8.177916545657832 6.9242119799816315 9.203166380790535 -0.5656532370058581 0.5909166395583371 0.7517062321763055
Ni 4.725658168732655 0.07978275301416621 10.404603053885742 -1.369860367294357 0.8926186262543724 0.09837992003249509
Ni 8.102463145090969 7.117863717097987 4.675056726106969 -1.1545590167817534 -0.9790323750639268 0.25990999036091367
Ni 7.371032808797357 6.224356958275653 7.044431100691718 -0.684721281515324 -0.2397402002812581 -0.9072034660470828
Ni 2.0845373377821503 5.364296110860727 2.6531070398033663 1.457515701820496 -1.444940693368963 -2.3153843261881932
Ni 2.4678837802807245 5.152226189672747 11.538305236271837 -0.85732715004193 -0.02906015059074995 -0.6176563695460267
Ni 1.0876890979212224 3.377812220799732 3.8414468371839687 0.5591002663786888 0.3003004783628183 -0.513353142050561
Ni 3.6989613190408073 2.741494538188495 2.6585821328027825 -0.07743108569496988 0.10001205631927935 0.1675117418331502
Ni 1.1297865196200874 3.223667848247169 8.096236216062067 -0.6756378311568171 0.7160779414497345 0.5097952494959735
Ni 3.546984320688079 2.7847880626615424 7.081720728833606 -0.1004504294082786 -0.06628586771142778 -0.019596948295321086
Ni 3.938127914353693 6.874020629735665 5.815655834940589 0.3636941121281156 0.3141088450008203 0.4095181124407657
Ni 0.6738474306333551 7.383272627411362 11.404323739055496 0.5643489163721377 -0.018126791507697814 0.2472532208288516
P 0.26031423195567194 5.505490197737929 8.011588112665699 0.06020495162467051 -1.630050607899851 -0.09522029135759084
P 8.500603490322854 1.6341282006438764 8.053011040318973 -0.37012906912018195 -0.4171134082895203 -0.2599817241391135
P 1.9055895708596942 3.2384257779647156 10.33001120704645 -0.631563466545422 0.2099884229401222 -0.5214991681964632
P 4.015155134360269 6.127166862932856 3.709887223253999 0.0023224774855895485 0.8193558130044791 -0.9207364675365111
P 6.752260964625446 3.9672660571232554 10.46479580183974 0.5632371713651977 -0.10407002843873689 -1.336443482396808
P 6.3568905416074575 7.602285340641966 10.161859841480432 -0.4511514717108359 -0.29511559172776913 -0.7434612185586938
P 2.2828116074242955 8.452597500784607 5.4990051623209135 0.5746690673512231 -0.09627084410929226 0.912770161501583
P 6.970940927460226 3.9252046084401555 1.4332818603745416 -0.6457492711275008 -0.7433002675007973 1.3021696488156025
Ni 5.180069303874774 2.837749335121405 0.5780171152864706 0.06714101662287146 0.10151538033768323 -0.5705655867058109
Ni 1.6654786838829798 1.0594053142760758 6.850533847742767 -1.1204674744146832 0.19074860087390372 0.4462347511355089
Ni 6.596578745648934 0.7005861732513996 9.177460063724945 0.9329036990266643 0.050525776663693636 -0.5258810993142427
Ni 2.7769369519708547 1.5893867622862916 9.129205860377919 -0.47816013908919597 -0.8451712314056864 0.653955718197693
Ni 6.395714418871718 2.033311763332944 2.546397585163784 0.31164727083420524 0.5534538667261887 0.07003633589279551
Ni 3.9807559380350903 6.763970181256918 10.230160007862445 0.35864857928440813 0.06628818170427295 0.8796818635880462
Ni 8.193348969420969 7.018227456683177 0.29269174479486315 -0.5031322356535013 1.015205482550374 0.3269517624017595
Ni 7.525968587696748 3.8299390694407798 8.067844513369625 0.41024573463540964 -0.19001146559756307 0.16007765415260816
Ni 3.080351353439838 8.404717416801535 12.418352691245737 0.8345296925314403 -0.7149674819943751 -0.15937574298957713
Ni -0.04207134126243557 4.66885677683989 10.185789091567237 0.5637791599115968 -0.4851154873611065 0.16880732071612217
Ni 8.544769360428202 2.224346463552404 5.838611115625561 0.2514646878070379 1.1238011667736065 0.24314305531521999
Ni 3.5730557638636844 2.3136224954269253 11.427845594738766 -0.027753001743552202 0.6987458779291901 -0.5934972558013197
Ni 1.1321337588987466 3.1895114697784037 12.382445326234615 -0.03613814048345389 0.3188486736786509 0.6831927606859395
Ni 3.1266036584595485 8.376622491489154 7.881305540795383 -0.5347267226303307 -0.6537528581582676 0.5959179494276705
Ni 5.709259345538161 7.908307785753905 3.6424027450044556 -0.6531805305945654 -0.7415097512592779 -0.2561746916881975
Ni 3.312988846391396 8.522421124384262 3.459154404047306 -0.5209584652016447 -1.3677325223180767 1.0327095528724084
Ni 3.4365741420516835 4.459421879056688 9.199875749173444 -0.9956578994357497 -0.4493753536470197 0.32422562171984803
Ni 7.224370823523891 5.934459417480328 11.420474723808539 0.006696952404201369 0.14050281734447417 -0.5898894838454035
Ni 0.5079066068860897 0.12696046386442822 0.4558464584711377 0.0275038618472236 -0.4731845402514754 -0.28645508783929374
Ni 4.660142313770845 0.3470613608219213 1.589955135935377 0.11148277596304025 0.27017177729823794 -0.4385453529110512
Ni 6.034050711625432 5.485237389862295 0.31851137686011455 -0.958646098098091 0.6652991682349704 0.10120787639959344
Ni 7.984264808541475 8.904355626014064 10.982188492983033 -0.38921642476893614 -0.7263106749213363 0.39180886808646065
Ni 9.139214452689105 4.861258451658417 5.8338204092510715 -0.48935935023912497 -0.5278785893602457 -0.5140833353483663
Ni 7.741959567603103 -0.05670336542480548 2.6563581011031183 0.42041213364545016 0.45354696852620596 -0.054752927371163766
P 8.723483302748186 1.6582391144602953 3.706398740050199 -1.5253113213082312 0.25024598490858835 -0.9736474566029296
P 1.906866612919348 3.1752481690276237 1.5497175191515566 -1.308696908411159 0.8096835800220379 -0.12779205464602508
P 4.623548763484009 1.1053968149314906 8.139527941884326 0.3037454994886253 -1.4498715550116772 -0.3611888292077586
P 8.446922757547695 1.5505269120062668 12.271708692480154 0.2233486462971121 0.46103427804218666 0.8101486925839144
P 6.354426390027562 7.790523138885707 1.4311891301824193 -0.2936207523497975 -0.44858911030029835 -0.9088343167822864
P 1.7756910109326685 3.181264655914302 5.911847679095911 -0.05469302066750581 0.31185835840374676 0.15667171379485276
P 6.910677132800091 3.9285950651759967 5.866752805858436 -0.058510851751699226 -0.3231035923002629 0.5008611802311373
P 2.5043694115202664 8.424259757615813 10.219946369361397 -0.9209989771692784 0.16999954125201044 -0.4516448664074867
