# total energy = -340888.91382034635 ev
CRYSTAL
PRIMVEC
9.08051568409195 0.00000000000000 0.00000000000000
0.00000000000000 9.08051568409195 0.00000000000000
0.00000000000000 0.00000000000000 13.29025257626381
PRIMCOORD
 96 1
Ni 6.7574201954282485 1.9853004091649646 11.270413842791475 -0.8704109798090816 0.8993353761529157 0.12988159018520212
Ni 4.92809580602346 0.22367671329944203 5.644250661098837 -0.8352370030111099 1.3716321144827992 -0.7865107414500002
Ni 3.0954751893861543 1.8914714394856318 5.037604102320938 -0.1565354453273046 -0.27595187431512475 0.33623164504178865
Ni 4.064647720388272 4.3721412266547235 4.848723017485082 -0.7381166664173288 0.5047085790016856 0.8052232302578389
Ni 3.7238559627123435 2.8794951212720608 2.9704383030326773 1.3181030322164073 0.8412299873697512 -1.0865926760441091
Ni 5.361327214462536 4.652320541418666 2.4485828765662765 0.32830981909155066 0.027630103012442737 -0.2642916643683771
Ni 5.9052137883436275 2.9390633048679593 0.2690466024028794 -0.9506641083338788 0.6264788529336629 -0.5892801323961787
Ni 5.6635267800222175 8.414559844384037 12.448926768760533 -0.38356076914505555 -0.6027241737162264 0.272655205841724
Ni 2.1874417712119625 6.923375702043896 0.215089269514893 0.2779411368310117 -0.3304849723659986 -0.14512463238720166
Ni 1.0336714346731033 0.2543979143271318 -0.06662919267580303 0.21359799466825147 -0.5197089090652598 0.19557584705921802
Ni 7.729979758820803 -0.08387854047439595 6.966697026784645 0.5472559654455931 -0.15796575001592794 0.23977748127709675
Ni 0.045613246926664554 2.2999039592965977 1.0948087313978698 0.29028320333613233 1.056715943089335 0.34196957596683036
Ni 7.27302096261708 0.688853376294977 4.757670869534961 0.13894061506367686 0.22225541323293335 -1.0457653576151023
Ni 1.2556355626941633 7.972211598089736 2.430321959308448 0.1380957505648783 -0.3039653288089152 -0.02152219034249197
Ni 8.072987162349992 4.370751907738539 3.4616587933714134 -0.5249832700903216 -2.0423395982175343 -0.4752766468938137
Ni 7.883830937885638 3.978609833258524 12.232468157464199 1.0841452429448815 0.41685166998770146 0.7322283259573519
Ni 8.183805777076266 7.434372647726155 8.950427414769162 0.24932938663159 0.42861061029584246 0.9800695580791895
Ni 7.219255228612306 0.7772467492211842 0.15111975991458368 0.7526079180549683 0.3657659070554798 0.7410047865984013
Ni 2.031838052599261 6.644322371238169 9.230918191224772 -0.8265281623832024 -0.8543295008661868 0.09331690368729091
Ni 0.37886091208255074 5.241210151565196 1.0347420274849868 -0.15802797071243108 -1.328919663215937 1.1535575721004327
Ni 6.657234864694475 2.1077784061682396 6.813566840673699 -0.7228407140948648 0.4834758948751544 0.08419462967104856
Ni 3.8525722740647623 4.355605607397386 0.5470547658409406 -0.2128022382398335 0.19002740643716304 -0.9334045499224829
Ni 6.245052091861389 5.773083203053395 4.399220232798219 0.7408412644373434 -0.8506996174230832 1.708431973323232
Ni 5.276760370891101 2.6969585928201156 9.235795336256688 0.9391885035941114 1.5309698051455891 0.5565643873307123
P 0.3911595626713138 5.8902672593499 12.344837724287755 -0.3700804752704336 -0.593657692638584 -0.8700510253665016
P 4.1336868819552866 6.222178272581196 12.452355571523615 0.3869636241790175 0.44619618458808963 2.294070395201765
P 2.8058975407774325 8.845094339632873 1.1734351015381395 0.6724540341121966 0.32744207177461676 0.6239995381552351
P 6.439248002590336 7.764231464388445 5.641991428769774 1.212248658183738 -0.007216572353097249 -0.08933143667698164
P 4.877145031914224 1.5634468870133371 12.283383517561846 0.2141538671717215 -2.196813790140436 0.6990333272626219
P 4.017192944858977 6.508441532925817 8.379783285003615 1.194231138560395 -1.0113226025562 -1.0744146459206785
P 4.9500252516612795 1.1223335908667553 3.5284423548156814 0.4969816426710732 0.4493267597972713 1.3245603578059768
P 0.6954912333389712 6.0309153684530825 3.1523682530297132 -0.6874209398346742 -0.30235041891331155 0.5456965913782731
Ni 0.8508125479105401 9.32568971844332 4.54420338014053 -0.5504233074299811 -0.6091172217267639 0.22166097418204406
Ni 2.2360316112152634 6.829219833796049 4.8701203448974875 -0.10750887891695678 0.42605030576783404 -0.642676545739448
Ni 6.062479241346276 6.146682864286027 9.33346536411606 0.7198134972327668 -0.24854237195392037 -0.06628921014553744
Ni 8.9941510063595 2.3948770739657297 10.246345961620053 -1.0163835620188755 1.9052715175862218 -1.8374532723906678
Ni 2.561032351928803 5.490497551604557 6.871286231254336 -1.271074984293327 -0.31172311837746314 0.4994537583606496
Ni 0.731988550461989 0.17016704984000405 9.074650686907672 -0.5984417442907887 -0.30401289421739897 -0.2469457168907618
Ni 1.7554634739521906 1.3361706572539234 10.965135982378285 -0.04137290651983198 0.22231326305406232 2.4795958000035165
Ni 4.5404213453131375 7.323090926694487 1.3246901611380248 -0.9541559235372212 -0.5054086903925038 -0.18027752613925083
Ni 5.538251984154989 8.475235850906568 7.738914078308609 -0.10686558890600305 -1.2933538502961854 1.6307016112202883
Ni 5.927106911918279 2.835899564954391 4.582293419733475 -0.02390586008332012 0.31125080672673494 -0.3858855606234903
Ni 0.4879106423325308 7.692005041778417 6.653406519236544 1.1023447966720434 -1.2088722855123375 -0.027887213328571327
Ni 5.346489651658313 4.803583773482764 7.555642028077506 -0.29960088119263245 -0.9056849725200273 -0.8406512320481456
Ni 0.9959328110413112 7.597949059204283 11.264007538900179 -0.5281948350490838 0.684095475005867 -0.2800558691811693
Ni 4.855524323813335 0.4790044724436806 10.086464412017714 -1.798980056016134 0.4841171280035792 0.7719451849309996
Ni 8.358415015241745 7.338455159414648 4.258475870227641 -0.39272958012851716 1.5848367303673738 0.9026256168684132
Ni 7.118161846299327 6.3127564176069715 7.131549250731558 0.832670013614882 0.08948981663171685 -1.3602632105242252
Ni 2.6048912432044418 5.553044144380252 2.328239708825714 0.7654696045089849 0.06321082833052985 0.24163536042144187
Ni 2.4172787064247365 5.426325546502085 11.43688693880727 0.3294354480555617 0.8613046466324392 -0.9100229377737488
Ni 1.3951032047443783 3.7155745323099874 3.6480817825823593 -0.3040640591703086 -0.22651470272991955 -0.0323745596759636
Ni 2.0592067271965226 1.274296022646842 2.7693293956312366 -0.9198990592368802 0.3156353089476758 -1.4464108501565864
Ni 1.0440958668023856 3.539185513049265 8.048576919797783 0.37588962575304297 -0.23320754136906288 -0.9773256767854652
Ni 3.6013325631301085 3.2744793971949893 7.259282142223697 -0.5337782426741323 -0.7858952193531885 -0.13851638304206468
Ni 4.437139558694273 6.870663307871001 6.1930715872613336 0.09404735409541223 -0.03877917765072676 -0.6885910488833754
Ni 8.567021704532687 7.655828266862859 0.23039811108872318 -0.3397903089273245 -1.056116104721807 -0.21591584416815074
P 0.2264208451718019 5.846771588705944 7.891459479202545 0.3749321469357801 -0.06314912185465898 -0.4679795990117682
P 8.449864889783557 1.8114448538102268 8.00964965664881 1.3270486714454692 0.7051067871502115 -0.3039866689651539
P 2.0401013219700332 3.647352617164257 10.009460730049483 -0.07260795327471367 -0.9138261135699229 0.28097503856132905
P 4.2325373768676275 6.252924899053103 3.7842531974000577 -0.8683913782758915 0.667187900617251 -0.9447521137248182
P 7.0348571944229885 4.072293514685184 10.206329036576033 -0.00046819788567016145 0.2954575484482202 -0.7396919813242487
P 6.380297294068297 8.16895005324046 10.41123813983645 1.611760037120779 -1.4957338647614304 -0.769184848577043
P 2.591724495305958 9.006173609268185 5.880298669113379 0.46883114837878614 -1.5556837629525013 -1.7632183250354925
P 7.386500168470426 4.149977327286238 1.2641421898881628 0.11907112983325946 0.8955746235589027 0.3429622788974029
Ni 2.934895348119405 1.810591285325773 0.16373986076238556 0.3035662935982837 0.40915455845375986 0.8194249756795178
Ni 1.0447587444552058 1.03599604671587 6.830964200879704 0.08428796071580323 1.652319189490064 0.30425689190740507
Ni 7.004464708066972 0.8247578239483887 9.167389994691957 0.04918340370318626 -0.1683668907445939 -0.3739031914506335
Ni 2.9314629131500074 1.7016886594316247 9.080458584808271 0.07228836515176583 0.10308606725891277 -1.5724311576141692
Ni 6.848325239022539 2.2890436624092967 2.3411576505914953 0.33824738992023684 -0.23950365879041982 0.7470170542307522
Ni 4.370297881948936 7.1782294582637896 10.553258314875812 -1.0614783974749848 0.2800214163988081 -0.04149194859619951
Ni 7.480864888581491 6.351312287660049 11.288421413658705 0.7430606406861654 0.40865010801351553 0.2499461942799824
Ni 7.733502998948122 4.0286343947569705 7.98608662622 0.1403441802794228 0.3378177585819859 0.6899863865690052
Ni 3.1872882845596506 8.88276939965412 12.090913812884967 1.129092497079533 -0.5512794847826893 0.7714458766970778
Ni 9.389071718671884 5.0489665517315405 9.970865813778502 -1.1216113582111393 -0.11372734902284284 0.7187434040970396
Ni 8.652505680199118 2.928647953254469 5.313057916666695 0.2622874894541547 -0.8209354987867733 0.4935674747832016
Ni 3.6767825688463165 2.919358585599194 11.316809830179416 -0.433630432107937 1.0901896493667482 -0.28282648994777093
Ni 1.489204589897473 3.7581712318905303 12.57742968799184 -1.124355753725496 -1.7147435173635563 0.7621778211315906
Ni 2.918023749777762 8.293344039075858 7.863802952254675 0.335916427794215 1.1289564857223007 -0.4916021235267147
Ni 5.96677968541378 7.822782630215634 3.4641441305436995 -0.9361309477147105 1.796809016506744 -0.8475492447195597
Ni 3.4661418440179523 8.542576956020469 3.633993362330982 0.43175275546924996 -0.06354687151370991 -0.227845248615885
Ni 3.967922066171272 4.713287124446542 9.6686190295367 -0.7170356773773134 0.1571944190675422 -1.213038243964569
Ni 5.416109966236021 4.739638781275093 11.523220850751839 0.45564550292644757 -0.8877276167106583 0.1733643439591853
Ni 8.15995126209053 -0.1475547494146218 2.426667051702145 -0.2911067276786922 -0.7641218322318389 -0.6156961604958623
Ni 5.112793497233914 0.7648572934745005 1.470367059886849 -0.7156621940685546 -0.8156050877127954 -0.9248296637692782
Ni 6.300715653666703 5.8591301706989345 0.1613743863985545 -0.30280061907685274 0.13842485176952288 0.5553395137846758
Ni 8.220118759728706 9.1998337695654 11.206128331241604 0.19158832316637972 -2.6881575177994415 -0.8246173185137345
Ni 0.16697524853909573 5.438112056000176 5.137068440100823 0.8199934465884781 -1.1734293713236954 2.581975328113708
Ni 7.596723189572355 6.214705008084332 2.279796973178244 -0.2889359452796186 0.9673688226830693 -0.8664154854964433
P 8.747333506615579 1.6178936597025155 3.230129250015 0.9763849101387507 2.1016204953660385 1.7785045617706015
P 2.0748524559062385 3.4030140982315666 1.5886634793678815 0.36704683065043237 0.05300971942781194 -1.3207247861099707
P 4.741082583286031 1.3867491302156851 7.692518090920669 -0.5920957474681029 -0.22446939016511666 -0.330553877930721
P 8.93466454740573 1.6948601115559971 12.259208460368649 -0.23509370264818222 2.5127082662867695 1.183561831772007
P 6.638084056889025 7.911871570651512 1.2936574984186673 -0.6776715737573942 0.26701009174080464 -1.4025246902965975
P 1.9071898123216837 3.5831987730933688 5.754652480150256 -0.01982963313141746 0.5183235986819589 1.0512482351065444
P 6.895625645783368 4.339760107340245 5.909218295807924 0.1868425809512782 -0.5779801340023272 0.2820255913130304
P 2.5732819677322887 8.63102117983511 10.058900506330922 0.4787687192074722 0.31544710419626965 -0.408213020476097
