# total energy = -381170.80195970816 ev
CRYSTAL
PRIMVEC
9.19931384431816 0.00000000000000 0.00000000000000
0.00000000000000 9.19931384431816 0.00000000000000
0.00000000000000 0.00000000000000 13.46412569205267
PRIMCOORD
 96 1
Ni 1.0670744226306257 8.315434674165719 3.7882664489847366 -0.08906507038947241 2.2068202665338443 1.2815208622169993
Ni 8.783330180729267 1.9572552371508647 1.9161876597767742 -1.3505349274928677 1.1512996293041915 -0.6815264287271101
Ni 6.014483868206691 4.864431633669274 9.169231282048202 -1.3684969112879268 -0.5443753014636883 -0.1279352650921087
Ni 3.9057619267270773 1.7162148128069907 2.552515245471567 -2.4916303625705476 -0.5063854524834762 -0.689673997534909
Ni 5.101819930371575 7.6989886457983046 7.413239555615516 -1.205098163181886 -1.0026371589670602 -1.192143659903747
Ni 5.869971845230662 0.2486675755469693 8.771851276771697 -0.12395236918496072 1.814065746704663 -0.873703020296792
Ni 4.071947533389626 1.2530661522460917 7.104090170516176 0.4780899479728927 -1.2843051098303557 0.37447629034528407
Ni 5.072483318157523 7.648374020397953 4.396454253211494 -2.1244747742563925 0.8271765946004787 -0.24934429902992544
Ni 7.9316576944398305 7.3931758518717565 10.13844616258117 -0.016004860068688564 -0.11607708020194202 1.1490625124435567
Ni 4.113767614645532 5.560433329150872 5.806983222624566 -0.847673686112566 -0.8114201030971703 -0.7020037227448556
Ni 2.6385748275544976 3.7461262316030703 13.092394631059415 0.6191818050516175 0.5614597677498007 0.6642637849919205
Ni 6.828061995393466 5.3633380275873455 0.08604118345501308 -0.415765121791742 -1.9303120054946177 -1.3703769019194594
Ni 6.361454392784124 0.3978721685732927 11.141079390931633 -0.6899979565332309 -0.3211426119191501 -0.994022677825172
Ni 3.242362599914845 1.1033749155113572 11.55798218029113 1.8955409205620193 -0.6403039317422133 1.1935672797241508
Ni 3.0707034014469157 8.702293424067747 0.31456410129538687 -0.636146200820098 0.6866398386942755 -0.24566247930296403
Ni 1.331149929126895 4.108386015979737 9.357083112946103 0.5812927433153279 0.2506036253583232 -0.818537687978558
Ni 0.5240701973204926 8.482025050642445 8.905751891096452 -2.3089033464495397 1.8468946203092258 0.5432638135670643
Ni 6.843562839413749 6.98778968365706 5.48764099765907 1.831229660078459 0.9864026993860688 0.4350494239426507
Ni 2.0397362861038904 8.265620389079768 10.88851958564877 1.2762429016475116 1.659867177040651 1.2480548692490698
Ni 1.6954059646325825 2.868097710822174 1.708490148875934 0.9273616861625125 -0.1834520672124905 -0.2188574432949779
Ni 8.523072389525828 3.93329547340524 3.8037231362980166 1.117174148375392 -0.65516130847002 -0.5706059530254431
Ni 0.3932780311823557 3.4642684512247803 12.914641807025292 -1.3207466404868413 -0.06942312778882881 0.14269416856883813
Ni 4.772585683106369 4.17403232038848 11.927572897961426 0.5596743937146039 1.73964002349492 0.7026444416526479
Ni 2.5492034924464626 1.7533708418858742 9.358307541633996 -0.25627342204959086 -1.6960179159295952 -0.9764005938680346
P 3.7579289514119854 1.9911179118325606 0.2495470299614138 0.2813321647904316 -1.5528102980594483 -0.07952962009521142
Ni 3.7058516350922126 3.474580882172398 8.260793509045678 3.227937486582963 1.718959869437749 1.2912684285220664
P 7.521865054838952 3.1427892256266956 0.5836550737618981 -0.20263918166390263 -0.15754923130379964 -1.1879787298927798
Ni 2.545597361374682 6.672805173713764 4.338706479767626 0.35385398610924224 -1.3395383192720478 -1.8605453783234411
P 1.300884186203021 4.56655784768902 3.019734602459158 0.8030851008689137 -0.45289699364703295 1.103763274286125
P 4.185494665580926 8.958015953489586 10.086367006398605 -1.2350656560782538 0.6306088159416365 0.6110005547924058
P 8.237212907575536 8.348653396870311 4.283800374405576 -1.0341761101156062 -0.5195842105619374 0.8330867894373265
Ni 9.385140100588512 6.174294350295913 3.962128883145756 -0.8872115963061883 0.6215688172265553 0.24301501437778794
Ni 3.2760136903754926 0.23234615272157808 4.716967550843924 -0.4692178422942435 0.18126637241508137 0.38827874344601515
Ni 5.7153221782722285 6.986372989307432 1.024656385967409 0.7816834952646861 3.1503529060292648 -0.8735772933522051
Ni 7.314061751827588 7.769593380430746 7.837238695762698 1.454236259738276 -0.34668677893684163 -0.527011356263944
Ni 3.2193275177624496 7.720929009589623 6.088680015008579 -0.7738583427933124 0.711706037634284 2.113278391319941
Ni 6.319100751318618 1.9836112716423235 2.4135789266858607 -0.10773539310546607 0.5246102030216191 -2.467717817619008
Ni 7.290621899861012 3.4227887445853433 5.607808876106391 -0.4699832597053583 -1.1703139656231651 0.8475656997797919
Ni 6.731128824211441 4.299768543574957 2.23552988474227 -0.7454947040489548 0.8589829404777981 0.9995718897781753
Ni 8.016291382859173 1.5019903886525068 12.443087733300398 0.5476308322865084 -0.3250897694923563 0.9798299312645578
Ni 7.999833810187195 4.087080404851562 8.060096676067351 -0.1195033322746716 -1.6408600398105289 -1.7964734875441963
Ni 0.37494103866862993 2.4524267096017347 10.711156812526493 -0.5540933000824005 -0.8142385463825719 -0.49616891696179066
Ni 5.581941325186136 7.430368678206475 9.707055373668235 0.08106971088882167 -2.504873343623383 0.6680435637493269
Ni 7.824577679961443 0.9441255915736119 7.299697023081196 -0.39168391247282225 0.1183134257316285 0.3220826072349163
Ni 0.20727618232153516 0.648579232024889 5.581405005182347 0.42376973726377337 0.29014487798605515 0.9642732144768811
Ni 2.38077325317801 5.341029691237683 1.3649666072387978 0.7424741720550762 -0.3026368398054788 0.9161737878664931
Ni 5.31650432022399 -0.13642582600639835 13.38440477432244 -0.876236328241607 1.4768272576649146 0.20440270132222862
Ni 5.195818520400798 9.065831913084661 2.3097711081825563 1.6939551198632954 -1.134580773887614 -0.08347394945494012
Ni 6.30591813441591 9.35183858405829 5.862576516739325 -0.3399039516870533 -0.812859149536542 0.014196603215356195
Ni 7.189107470327595 3.6101971685504375 11.590148501478858 0.41663132644677925 0.6773208752861948 -0.11945011043923298
Ni 4.643832084941463 6.03201776061183 2.6020765494236557 -1.2378640447589973 -1.4474205223680232 1.990620572576688
Ni 4.2931082402689125 3.6758986688429323 1.5577593896638748 1.2207073304740526 1.2455405874676484 -1.2763735136881051
Ni 7.47547291454561 1.9621032756070598 9.404638046523816 0.03559203817199677 0.8937319139232093 1.1553226344206555
Ni 1.1734644885621157 1.0822900879181903 12.531829835333664 0.28287559801815154 0.21509129138432634 0.6903208870902885
Ni 7.259132648180642 8.269254118093425 12.731340876742722 0.44799801368351877 -1.962907937152768 -0.3448646381264383
Ni 1.2264065403939985 7.247642705046321 1.86241215010024 -0.7257779423463179 -0.9411942211702307 -1.6025907119166851
P 4.28349495718215 5.604544039582475 0.31073994648278674 0.07591799148455312 -0.35246327640930264 -0.904260581368675
Ni 1.9245792739698313 2.994689470206803 7.291093824667091 0.3900070389910315 1.7553083261597964 -1.8062976727234699
P 0.3522868081141217 2.92536344021461 5.753678717822713 -1.1596621423362736 -0.670359099256381 -0.39534284938164815
Ni 8.445402581773163 4.816659596282138 10.029091157760815 -0.11350186327559808 1.1222862727909768 1.4996954205123396
P 3.9909015774141454 5.772817890513631 8.161387562271575 1.2954336156433497 -0.07450774140058782 -0.8200685228007877
P 8.285454109974562 6.839855515888423 0.9095214521868507 -0.568970217194233 2.3788057278676322 -0.1603789874431109
P 1.4490851340764583 5.078416875660834 11.521602573310355 0.20326961615904995 -0.8261851772214869 -0.38894234517194304
Ni 5.797435254666909 2.1985440429716214 12.692738715509543 -1.3712703602680063 -0.588325224682077 1.6882891798267698
Ni 9.126032223629899 5.016579087230961 1.459605469519541 -0.668279591019533 -1.2254535869097862 -0.32262382445036697
Ni 8.4871490685174 5.403373441935279 6.213249765185103 1.5767169294737167 0.4452258502550203 -0.5471754899166448
Ni 1.971228995054015 5.686592720779445 7.3270153058127265 -0.6602029846589855 -0.29865240123643405 -0.05986993688275496
Ni 1.0899531164457243 1.648388270990054 3.7441851763578007 0.6607837968631202 0.569480066951116 -0.49877113047132815
Ni 2.7249655849399383 2.234274178386918 5.442738226295628 0.29545652000695566 0.4447905624898146 -1.5531347712784025
Ni 3.340188104550856 3.9076017895188024 3.6706844976911843 0.6841070449700928 0.07327052655937703 0.4065790844170998
Ni 4.418458092269127 7.26469823312561 11.827951687240692 0.5860467130605456 0.31226819224765573 0.5351483835487815
Ni 0.4163094336091675 2.0025158618272965 8.159017818995833 -2.4173349942910822 -1.5346673086018345 2.072474469929702
Ni 2.4232556850389373 6.6301203569457465 12.898134558057937 -0.7274501878424181 -0.390001896784709 -0.9450632172073337
Ni 7.553391103775157 -0.25114771059021446 1.4538430192558587 0.404050147347659 -0.13026956965224015 0.9462094149966349
Ni 4.952625456590606 3.0659197581884308 5.997904864590459 0.12575522672165437 1.2230981993037324 -0.530968541139479
Ni 1.677918068797238 4.550339457179965 5.192493888336151 -0.536826799692469 0.13251517115330727 0.6467201196812024
Ni 3.50031136331467 5.542936234001568 10.264349813281694 -0.41066790977449275 -0.06151415735439728 0.054839573547699104
Ni 6.983769583457141 6.911646962021527 3.1936632716806796 0.565553221092884 -0.5450597291252226 -1.6343070691833597
Ni 0.5057056068648909 7.780660155122971 6.603964867498586 -0.04522956126176081 -1.146414019077116 -0.5063502283701666
Ni 2.03773083566091 0.17475108788942306 7.593363042856776 0.4780480389913638 1.4244950239201015 -1.898651441166543
Ni 2.780437448110443 3.223917975427803 10.944301465699679 0.31144569634636043 1.4273222089562516 -0.22776271620440774
Ni 8.770966302768876 5.786488071056147 12.404256509149649 0.5867223989713315 0.06885645665208141 -0.8552993209786238
Ni 2.659181290821816 7.515213950846866 8.732737633682419 3.33491106182174 0.7065584319950735 -0.8176133763920758
Ni 3.110168458329414 8.505087730736717 2.7337021734064435 -0.48290253887018775 -0.9090536318819441 -1.1570285613681688
Ni 7.776971230225562 1.1913479548976815 3.8951983545083895 -0.010144801743485756 -0.008801143231397747 0.9008710960711518
Ni 5.123199136011418 2.4304955451243746 10.385310672592249 -0.14075092879953824 -0.22226929719000432 -1.3231843033940565
Ni 6.14194956241739 5.318040605655081 6.70378846312641 0.24116382010166212 -1.1018706852491023 1.4393925098572242
Ni 0.32447544215440877 8.057835484696321 12.583410388699669 1.5319676502824844 -0.5764546984967363 1.630007413366741
P 6.547547314853135 5.748476505779111 11.01370844965471 0.07363356632575062 0.24326698248759396 1.376224618949488
Ni 1.1098328339103114 6.5594604264295535 9.8980717685679 -1.651227499087782 -3.4080671742904407 1.036619429449776
P 5.9438515356323744 2.2969031078172324 7.841035252633422 0.07839036428444562 0.6192381122108497 -0.023331989857721107
Ni 1.002375647559621 0.28465069209612825 1.4154432429297692 0.5894099731058237 0.21183498923055774 0.04209281540499202
P 8.89372194823276 0.05623356636627862 10.995989651039004 -0.13482427890245813 0.934434533848894 -1.0648951364660177
P 8.937427888850182 6.291300424535656 8.168657780093076 0.16296063212735806 -0.3273983630208749 0.06254748371491807
P 5.781014479250766 4.710977877525463 4.274496188267824 -0.2887695949050833 0.20534449641020763 0.6738593991001556
Ni 5.249008953709563 1.324462027878975 4.243178963758479 0.4708538352357698 0.24054675534295342 1.7856074913639697
