# total energy = -340867.5637321022 ev
CRYSTAL
PRIMVEC
9.28334755693723 0.00000000000000 0.00000000000000
0.00000000000000 9.28334755693723 0.00000000000000
0.00000000000000 0.00000000000000 13.58711752472730
PRIMCOORD
 96 1
Ni 5.081128744110197 2.2849381208212756 8.109933129012681 0.2897057335661075 -0.013846418964789057 -0.011448865266889959
Ni 5.685493219989932 8.984126449159454 9.480221102156788 0.30474411595646866 1.3774073264036795 -2.230756722744784
Ni 2.2699455149328887 1.4144386445648978 11.302484620258248 -0.10220186488174657 -0.7741149388888088 -0.5296423661288878
Ni 1.3876190542171887 7.969670106332664 11.165974854891344 -0.15708617562445207 -0.13022226135407253 0.7361520864917902
Ni 4.730181082807051 4.455310452621756 3.444361358404645 -0.698117757426888 0.5306612943117054 0.5645846865320276
Ni 7.040601991964934 0.0027729358383041486 13.597035647207962 -0.21996944541223407 -0.24342896198675495 0.5737951493867022
Ni 8.365326368229292 8.66804704031252 9.905565508716611 -0.8113864216457575 0.6928074009575682 0.14021691067293915
Ni 1.0935504618169192 3.9961839452397396 7.242680967641603 -1.5077571144745516 1.6014041478077516 -0.3596276553682258
Ni 8.917184231784125 5.070712828440371 0.8179269521656505 -0.026319868841451443 1.43784804818824 0.9783934559283474
Ni 2.1701866648544943 1.312878825110437 1.441389130109527 -0.03058250077254733 -1.9388233853997385 -0.6250408349355558
Ni 7.673865527987424 4.60316632505788 9.718321322024241 1.3485492645214066 -0.47155317529563945 2.364823040435295
Ni 5.056964191090091 6.808499742787564 10.206846333633715 1.8184422785058039 -2.0259675846174137 -0.17607377247054837
Ni 3.9395276766720455 0.15418433029006398 7.066428264151617 -0.9344216783330876 2.076015907424057 1.8268004206625121
Ni 0.7000479364937313 8.582695945242655 2.4866188408988035 0.3191818886483535 -0.9010032507736417 -1.651177619686453
Ni 1.999623724924256 4.808959567989002 4.907911695187086 -0.5452528189726351 -0.479620011464174 -0.43351781778947274
Ni 8.892815445123434 2.7661868448175495 11.124574839275336 3.6131147082855195 1.1007334863208655 1.6601854796120181
Ni 5.3936062142050005 3.6388864743838636 10.576904693687222 -0.13108872311942585 0.8337923001447832 -1.2139514998074576
Ni 2.9864064094518015 3.448169387466822 9.243587651162624 -0.30140168184679705 -0.41745459367902304 0.875080360260293
Ni 4.821835570693146 0.6559176884369974 -0.18788937932967187 0.16210291211275307 -1.2820492239166439 0.5905379160626797
Ni 1.4246503265941397 0.20983985401889232 9.453454426888683 0.8653065687029807 -0.5211201875904896 -1.348742097258503
Ni 7.210162330386846 1.6749386531308594 10.525260504326429 -2.6497796893521914 -1.7052245221295277 -1.2456223485481772
Ni 3.9335956177477858 5.349417481060281 8.080271906056653 1.074677155553446 -0.0238598373367331 -1.1311969450170452
Ni 6.712055047695024 6.675450809293841 0.28463392653997993 1.5006634408525639 0.945369692704159 0.15451764356632744
Ni 6.955436563841056 3.1137646510510466 12.659456560036224 0.20155340479889158 -0.29743266989672 -0.11751021310404279
P 3.967229185013189 0.9192398345819494 2.7030350181445275 -1.0593428391892208 -2.907278756278767 -3.7238950588648962
P 5.933989860497885 5.072244580744758 8.787005709275348 -1.5051911535195883 -0.9687245653800155 -0.4295220663665183
P 1.8758767054244425 8.029176362521246 4.307985587651153 0.6355810723452473 -0.7993701139111717 0.17630311487253508
P 8.877015188020007 5.55997308115595 6.348743824458655 1.0524517684963424 1.6972260773050833 0.6831652498821138
P 3.1166610554084317 6.687825511243823 11.012371662142217 -1.9593729274163159 -1.4380010288263365 0.3582582858245249
P 8.840011765684952 0.468210262714392 11.660993567936686 0.15764899010645753 0.4037177037089047 0.14031512681370029
P 6.709789910953992 5.238490764180816 4.08642086599323 0.0357856422400416 -0.9534812660677 2.2246212992710075
P 6.890174632326901 0.09286782137811588 4.3150242215734895 -0.7761065153975407 -0.19540666847120539 1.5966198390452309
Ni 1.9700005636921551 0.8191532823438894 5.360579777852972 -0.784408607505333 -0.5751282663758288 -0.5161502451797241
Ni 4.830506217070703 1.9505426677527995 4.085755249991871 4.188162242022084 3.4830027472570664 0.17959232714676812
Ni 1.9899133436491767 2.0393471680180073 7.4276284542121225 1.2080284494548033 -2.0324092264777 0.12885597713416516
Ni 7.296710977258322 6.8321537117062086 8.797793887171878 -0.6362019937586979 0.33271926101315596 -0.03693569668408477
Ni 5.607513102675721 5.420982805390668 12.423081186096981 0.06191730633008691 -1.7409003782645824 -0.8575636915327682
Ni 7.7235128693441375 0.36652418973666073 2.403533810904701 0.165909687453353 -0.8439306741303659 -0.5141278154330564
Ni 5.632513156952765 8.507389431950646 1.997387366559852 -1.1717141884048012 1.2842763134749495 -0.1414674952505886
Ni 6.290553946917115 5.522978942168196 6.756954885242871 0.733130526056647 0.8229676987254536 -0.9167150050819438
Ni 3.75371219712904 2.6453826464116172 12.894595392115198 -2.3512553290531892 -0.007254881790200409 0.4159325006075417
Ni 3.4271518891811823 4.6205261845075905 11.733453806946725 -0.2274814375185631 1.2999317606240195 -1.8245455631900642
Ni 6.207300888336896 8.412309388911105 11.601169821270467 0.8251299964840951 1.473358582390024 0.4893732341961959
Ni 9.141562736008467 2.8654351107944818 13.611166758466972 -1.3158242634845596 -0.44557037807863265 -0.945607519746578
Ni 9.165764422417771 4.140558562438622 3.2841010773071813 0.17348749980061093 -0.06938816078583535 -0.2879702389322395
Ni -0.10099260693447272 0.5650940601341897 0.16742888188199076 1.8457006000011245 -1.1731059265460053 0.9404092633750901
Ni 8.973617700016636 1.6233046754520923 6.306025573526146 0.8039664750326025 -0.7996732469738873 0.9991021492306084
Ni 6.779758499548898 4.517666696431227 2.08497017832047 0.22257320158366828 -1.3014739083001587 -1.8418038360498796
Ni 6.716706004691979 1.7593242800815947 5.905857604842053 -1.716416277080289 -1.4146484701433248 0.6128648616946543
Ni 4.973933932845055 3.7537400471709375 5.868683368916693 0.02718864459964995 -0.18168700489226774 0.14374266443801048
Ni 1.7467082111018313 3.5528855450030483 0.8151493746536966 -0.009411266011570888 1.284811102932497 0.3306343534596693
Ni 7.463179961029564 3.181755886671199 7.823435106335 -0.36490715859961026 0.0033100382098394604 0.4111674751187306
Ni 2.573046804255388 2.4762307752708748 3.6773668772742374 -0.9902655247755848 1.3709787971695164 0.2723045073705246
Ni 3.989629902046426 6.080666747826997 5.389316379417989 0.17537494663131087 0.015651590494327884 0.20035115696067432
Ni 3.2855994095612906 7.6510749103676154 8.979059598203492 -1.2916857185651431 0.22702609514869931 -2.109707129028915
Ni 2.6661680610147744 7.85360969839668 0.8314917792394034 -0.04354805979427984 -0.5611527780323433 0.5635888982776617
P 8.418510664907044 2.350051518778642 1.9860291911391452 -1.2088046654991955 1.6232639239953204 -1.4379514065353234
P 5.327174580931132 3.6824160898703324 0.31998027138210594 0.08550203562856241 1.9306503626706426 0.42132924614308087
P 0.6777409812682172 2.941307908271749 4.959297807492962 0.9640731826509331 -0.1734085669335594 0.29997574803354793
P 0.11324198369591337 7.328051557740795 8.567750684425494 1.898901095283504 0.12763341758097374 -0.6654768314634151
P 0.4869292042087224 4.0342828025561115 9.514977026110676 0.10551627396696023 -0.030266255083709163 -0.6706398637215935
P 3.355976465437366 1.264521869028327 8.987918696531223 -0.06262975901607923 -0.7490988764604454 1.138357981541859
P 1.7966619029194233 3.3148048201649223 11.976350732363734 -1.7531074618537354 1.2284517503061618 1.3490711984631476
P 4.240382395948111 7.42847880882474 7.078262675288778 0.6360186741032982 -2.0987933103298886 -1.0398407646005512
Ni 1.3777787060799191 5.792790148075367 12.718180230047473 -0.3512893107058595 0.20991154695559977 -0.745963159044941
Ni 3.829603561300906 7.315936789515194 3.0911782670718235 -0.8019371033073994 -0.44872872120195617 0.2970770863295142
Ni 1.8763315894421086 5.6166200663763455 9.030270255245409 -1.3996309136885703 0.44938666650092923 1.4153894620744074
Ni 3.751920511100273 8.76542007013499 10.827193020223943 -0.1829288477191688 2.799919001345165 1.5741411983267406
Ni -0.07808130579977357 8.998218570359809 4.620081512171954 -1.3465769712863842 -0.3640450677096311 1.4842546604772373
Ni 0.05081147310804796 1.9330992581773945 9.032864950815567 -0.9701998643739613 0.2207088946814199 -1.793891328639317
Ni 6.086533823320161 2.0742896872526133 1.4277890263160367 0.9733682347996141 -1.1090440630690899 0.8816400157556816
Ni 1.15267610076623 8.651903299359017 7.058819632705102 -0.18546189855366768 0.3142296868494007 0.32914825583244606
Ni 4.307380313407237 9.21818748461698 4.841823545763292 0.030147984338290013 -2.294929143657635 -0.9194123494084488
Ni 6.015135599241161 7.252243743694622 4.887421491028047 0.6419100998870687 0.7321100552119327 -0.28074183950460035
Ni 1.3053871638398933 6.328875604568671 2.2750132942235823 -0.31111299559729 -0.4381216351100712 -0.29439516862197684
Ni 8.634005005765946 7.469891821126965 12.363746671833436 0.9255048354594319 0.9367495551353158 1.3355574802474288
Ni 7.031207244498031 6.741390425160846 2.652830675949855 1.4649778145254964 1.4425698791439412 -0.11549626799780754
Ni 9.093280046704752 6.472637520845798 4.365214638747214 0.1869809063013554 -0.1511826656558235 -0.32762564854033255
Ni 8.027802427120948 3.839044725504305 5.649264957154371 -0.9735464122486911 0.12355744773938722 -1.0355367379085585
Ni 3.806543726609418 3.0086028928444533 1.736691479365875 0.9213347632421424 0.3676096451324378 -0.08122911928482139
Ni 2.0356338290982827 6.427715403264433 6.88358716908331 -0.58469225591518 -0.08112884626153125 -1.0208269425022096
Ni 4.453063882575323 7.422054732493617 12.640475828148052 -0.8800117361236393 -0.2532415772018026 1.8866482460580798
Ni 3.1873351783980852 5.32343339196951 0.38880329492027677 1.714158591394364 0.5111288807057326 1.6250220443370078
Ni 8.548709610779879 4.793075760759882 12.175279868301745 -0.6575118109800676 1.8201906286554783 -0.940781044892212
Ni 8.2251292573151 7.689647218396252 6.369382562174482 0.9662779036117359 -1.3030265974992592 0.5456886209584731
Ni 7.010950980690935 2.693479668769347 3.809664787971446 0.8421324445793626 0.3219800202187809 -1.3528360648222184
Ni 6.309686925700994 8.518835799170697 7.082176534510167 -1.4544226647174694 0.3827133335430957 -0.043203789080983664
Ni 0.48918969927610456 1.4022217595190045 3.2056085192220487 0.8517553123811072 2.035268550303366 0.7640930358764324
P 8.630941501157174 7.542171963199399 1.0576387611242652 0.21830105657087562 -0.20285001212312806 0.1554643237503129
P 7.162910092633354 0.9680953064140325 8.14012350276477 0.15004829494106417 0.5182343814022624 0.30958190366474425
P 4.8163305457446555 6.54603166459415 1.1815965126077732 -0.69397879555785 0.9407257661742444 0.7023263961915969
P 2.799328394676089 9.31286834372265 12.95587291096849 -0.6019363877076085 0.5582466601291418 -0.7586412687332418
P 2.5266393511061325 4.682483244383191 2.735670625575255 0.7333279867794339 -0.7143159644533054 -0.030018143628645078
P 3.6466473527260876 2.062666936433876 5.684469266782818 -0.4283815250041719 0.29473069758452464 2.7848759909691134
P 5.366582390216707 1.9414357040521757 11.776253751335467 1.1632604012104932 -1.924440634315505 -0.7461138256901925
P 7.172871124285515 6.5967651575848825 11.220159896407962 -0.11691731671505026 -2.2140597217050777 -1.1109903881621834
