# total energy = -340889.786819501 ev
CRYSTAL
PRIMVEC
9.07996218618324 0.00000000000000 0.00000000000000
0.00000000000000 9.07996218618324 0.00000000000000
0.00000000000000 0.00000000000000 13.28944247612143
PRIMCOORD
 96 1
Ni 6.579731101174571 2.0297166065143264 11.739295267151974 -0.31337839459269895 0.643524238451724 -1.242244690325196
Ni 4.533534363135297 0.8528191125310524 6.223379809816499 -0.4244379669753916 -2.757768079008728 0.45459160774063645
Ni 2.828489967605827 1.578215482504427 4.715692026269024 -0.6156676212507719 -1.611056583295851 0.06906291623593268
Ni 3.6959714032148314 4.800049415763524 5.024087496883842 -0.3641144874949858 -1.0007576825561602 0.2543656635039167
Ni 5.4878202380712935 4.2623158900498135 3.327716281317253 -0.35333745148413986 -0.02469338898162199 -0.3424107772693071
Ni 7.119725537494182 5.921370276668069 2.600651014278157 0.8422394024708721 0.9299045071890244 -0.6450525021707924
Ni 5.057130387590417 4.460413426953261 11.41708009395811 -0.18571412377378985 -0.30720620434371604 -0.3888806386960722
Ni 5.429354360997391 7.3128381751099205 12.218180649380102 0.02408583730461013 1.9258724816660253 0.2298291118151332
Ni 1.715749671048981 6.625303431821241 0.46380810487431395 0.8327510033644625 -0.883162365937479 -0.6006485221341203
Ni 2.721700531316628 1.5430760285090865 0.45775449402710633 0.7621037733605456 -1.2184277904112566 0.7858569099160853
Ni 0.8852164179200382 8.900551298151589 4.53035728433608 -0.6894369418234385 0.6034312270855802 -0.3100243905188016
Ni 8.732517516333044 2.269073491984914 1.5185583143803478 -0.6717050717613142 0.7956625831525974 -0.6642540147999076
Ni 6.737695204832694 0.8984150510796318 4.682402160588632 0.30851463874249446 0.07669780707337114 -0.019789266811785274
Ni 0.46789136390834624 7.5366774050564675 2.3192865913491603 0.1590921503108873 0.01521476006722541 1.1249257672963529
Ni 8.032979062919857 3.707194236583886 3.58882694040077 -0.12645790921563382 -0.03111291935472061 0.2448505249246299
Ni 7.619368621473926 4.053676516947762 12.764642742826558 1.1595739534978418 -1.5900373007317068 0.08035751531314547
Ni 8.139904698643146 0.14364046317294324 6.847372069124611 -0.27662910288780745 -0.9599411627604306 -0.5616803684010391
Ni 6.863779560951376 0.2513242757460031 13.193559276675575 -0.28910460964699886 -0.5302900270152158 0.9116157361821655
Ni 1.8554902904258006 6.638142498474835 9.091918767018512 -0.37744797137909836 -0.7428390115936625 -0.23776610727402275
Ni 0.07639063059643407 4.990710463565633 1.3849593814847811 -0.07161165079971538 -0.8392870047107676 0.21798378244077296
Ni 6.467057849332663 2.0648106606983037 7.034314872376051 0.6045583987114879 -0.01501987044759994 0.7132111614249007
Ni 3.9306793480017976 4.631824954737251 1.1899499397502773 -0.9942849303476232 0.45737919778810265 -0.0490677040609284
Ni 6.175500260756335 5.905407702992666 4.810073694112583 -0.34993691044302316 0.22366617753753093 1.2444324420051343
Ni 5.042784047199555 2.6591305112954666 9.678169255143931 1.0386886532739787 0.009066995298274707 0.24148855043093248
P 0.24168680378976165 5.508350032769863 12.412565389710245 -0.1744048694085577 -1.132234128032308 0.8759982440888721
P 3.731601175172898 5.868688335561876 12.602790599323265 -0.46260110830867424 0.05596417407044556 0.6177224468972716
P 2.3659385295100543 8.475481944317513 1.4949295285581063 -0.8228995644916796 1.2914882578423565 -0.3248236603151632
P 6.3744876339625085 8.112828251145961 5.721570246838489 -0.2076060387508747 -0.6454975601280108 0.0997271780890089
P 4.677433605233012 0.9508899690460071 12.380231644057167 -0.0060248660378412365 -0.040507730306059274 0.8383665497790271
P 4.0912130809830956 5.989860432091029 8.144714354658996 0.06272771804652422 0.4338584889583431 0.2003241603774808
P 4.681174549689364 1.042570348113437 3.72367527610506 0.6941361470713207 -0.14199482850896836 0.040943789402213354
P 0.26257707299055755 5.698221123854247 3.627366840267236 -0.4922958071596295 -0.30359303307116103 -0.9025248296244909
Ni 1.5557062560304091 1.2978534874103365 2.619229525084324 0.7902378125926003 -0.7503342915294432 -0.508510469246279
Ni 1.8495973949108198 6.44214243285638 4.924708217805392 -0.19521177885157995 0.7520260774095694 -0.17258812791479308
Ni 6.035160363869519 5.758039915306781 9.41898536405468 -0.5277019545730653 0.6833133454242039 -0.6244132286538859
Ni 8.661839090002363 2.0850680565286925 10.328076634774549 0.2538115907726597 1.7689266882741792 -0.26888031218032404
Ni 2.2884047316634875 5.195409133041332 7.0550725741276645 -0.2117501428262353 -0.2539838546844658 -0.23009753498517146
Ni 0.6855525875245494 0.2216963588501901 9.27750593190264 0.4108509723195763 -0.6481658509887933 -0.8846556626535539
Ni 1.5419319532627265 0.9520340442923669 11.579477035197764 -0.3879848663546802 0.9110503505969988 -0.9252310129727549
Ni 4.0409918096528035 7.067025436463444 1.403325421173767 0.5019556988468968 -0.22910380361333446 -0.41115359116165967
Ni 5.570529614413298 7.9081114217457165 7.822538225302903 -0.08780034474443588 0.46329582038285366 0.7676861525443296
Ni 4.936094490495355 2.7655749090183037 5.174616927433082 0.6707704757621867 0.879115192451299 -0.5838507338504912
Ni 0.7172244039279466 7.482678869420733 6.876662211423881 0.6406975676362062 1.0209968924211705 -0.4483934493497246
Ni 5.420011079818786 4.3715024363790045 7.069199179431528 -0.7848171557976613 0.9985131094963577 0.21571735500409944
Ni 8.230985800200578 7.4691224857475955 8.90437850224953 0.31477553205054176 0.2401132673499607 0.8392594939069417
Ni 4.743880769144615 9.092492620634149 10.387745606849585 0.27939689544093166 -0.24606974204371168 -0.30423915129559215
Ni 8.282087827871322 7.333921847507124 4.617761909169296 -1.0131956512091969 0.21912483802375166 0.027702608121590998
Ni 7.3209647413439844 6.5077996400502585 6.904090961457245 -0.8066867021772429 -0.5913015337015817 -0.5975778536285966
Ni 2.312157912968865 5.491869901244916 2.7116844249336145 -0.7176118615957576 0.43719603797200834 -0.10201108902717915
Ni 2.0757247753500865 4.991155381716995 11.303906536194978 1.0948903972765274 0.6838656183832481 1.4226924234937242
Ni 1.5193137672414363 3.434359530213862 3.990114965046423 -0.8889370636377271 1.0704813723045437 -1.156261087074525
Ni 3.7798520946900145 2.693543568308992 2.55902846722011 -0.5251511631267536 -0.16713404677875732 0.559396714573185
Ni 1.0299946003657505 3.5381707388776165 8.306539258275471 -0.6795741900967457 -0.5713150632773257 -0.10327350067937052
Ni 3.4223830599761733 2.7307532537025074 7.736648138176773 0.9008957786615001 0.9729951677309114 -3.162748965700773
Ni 3.900851671935986 6.955804978585169 6.131642226986751 0.9799474306790283 0.5201835347088332 -0.08398739875624892
Ni 0.9879271351563415 7.210370800862526 11.421239624675232 -0.0326057018501632 0.7710478699277108 -0.5371191341219071
P -0.042649490791088956 5.806009355993443 7.879084598352356 2.131271485463252 -2.6023479782327894 0.9919120592400723
P 8.445690588100792 1.8968313586533938 8.01217868534556 0.8260867039704095 0.3440531979687365 0.36487347714819746
P 1.5793504777885143 3.075837219876388 10.535152438373242 0.144513481165764 -0.2358526923013938 -1.0677567742845289
P 4.23615651874217 6.174583184566794 3.5267526863196985 0.41510049162454965 0.2462180946961179 -0.07834074199343281
P 6.899064294343081 3.85102083898342 10.3663495837502 0.3532790874423787 0.09632843682010507 0.9311810599086028
P 6.654795149282963 7.730770678597655 10.31458744282223 -1.010963933665201 0.2237728783187243 0.6783498307713414
P 2.4609512547315644 8.58293421785262 5.819938926115989 0.7312770177876761 0.006398447327176078 0.7947251589399926
P 6.788325074465257 4.000032099840664 1.5570174025825867 0.23095782610293775 -0.4127502462248182 -0.40323253654237007
Ni 4.854447469739257 2.761443526184226 0.3278038899727096 1.8241149034105488 -0.3627934546907171 -0.05904255588545316
Ni 1.5610361938844828 1.1758732742389137 7.1777474044129495 -0.4083839988363224 0.31708335424811196 -0.726510192526652
Ni 7.122939844138718 0.5499279150459438 9.312311243286345 -1.6265829610662244 0.5223419758127327 -0.7611501511980246
Ni 2.7836803537900634 1.4884963752879 9.422640048869443 -0.555019925661728 -0.6585417949064787 1.8037633363373902
Ni 6.243981336217023 2.100158953825916 2.471131708431713 0.5738751106950181 -0.14420469167609357 -0.16005065756941467
Ni 3.9296896321140733 6.667534336351558 10.52401586464578 -0.34390998752265284 -0.36936185193685417 -1.0464616123511785
Ni 8.156094271375368 7.04870207259714 0.25356884241981403 0.05141203592338888 0.27341136728145815 0.6453625772120434
Ni 7.495472536262964 4.219077109707226 8.350208428829783 1.0113344296307423 -1.118175593056713 -1.3192985951864054
Ni 2.832957309043994 8.4344132749581 12.527213533346464 2.163649387573325 -0.6427230827066672 0.2230923073119319
Ni 0.028523793483452946 4.934678016380814 10.169613133191428 -0.840511621146488 -0.39997289195449176 -0.5096489537260964
Ni 9.072825422351485 2.1463759617939484 5.610629451798213 -0.8346142818254464 0.8534350140763753 0.13005462542795665
Ni 3.389195797869463 2.7466704275665466 11.695400913533296 0.3374958564661929 -0.21694685653582635 -0.4922202167266878
Ni 1.2007251309792877 2.9823771682035094 12.910772931654675 -0.5030499603523402 2.412312601375826 -0.09537404332663575
Ni 3.0509944430982867 8.59649968148803 8.030491153257138 0.7245098742671716 -0.9853737439009224 -0.14186550201995568
Ni 5.634715867718998 7.936804102527442 3.439320821599664 0.5080517844423057 -0.08342921225993373 0.17411562030291303
Ni 3.2359986744045055 8.30416121615625 3.507269811271171 -0.6975526289520374 -0.10040517799264 0.8678702156650988
Ni 3.344540543412335 4.30441059514604 9.351979782463307 0.08730797848904963 0.9947577562189837 0.634666788061094
Ni 7.378114023888345 6.064098203632606 11.57054598430634 -0.3023923278948405 0.07147872476627688 -1.780001200920786
Ni 0.35436005563166895 9.028433486800266 0.3360194398370466 0.8978760179985698 0.1073399574392603 0.40331352629195055
Ni 4.673156943002572 0.397003190449167 1.6266144054065883 0.15858641431906237 -0.35271061653341834 -1.1237626002261873
Ni 5.862187082574625 5.421817992311053 0.11409608193003908 0.326044934316774 0.36663314015178144 2.020471080279217
Ni 8.467754896423447 8.885233401797548 11.199438846258905 -1.413922647720894 -0.508688132474724 0.9130365277890922
Ni 8.941256769020093 4.974021492908414 5.634577852292454 -0.24905864946870657 -0.6158252298745588 0.9260691926033341
Ni 7.537957679736917 9.045540135722028 2.314183652551904 0.6155544927116754 0.01740919661538292 0.22044047151138163
P 8.726551981119881 1.4780180988252067 3.574581387591134 -1.099758524002106 -0.3033534062565292 -0.12997826366406648
P 1.8846006494720697 3.554432951308018 1.7206773665743742 0.36090883607349455 -0.8218662381311588 -0.6816516414510647
P 4.757682311799115 1.0087111687985468 8.340719868254814 0.7615167905088239 -0.18691071518505228 0.09073371634114696
P 8.707801859026759 1.652889092235094 12.552821750944153 -2.3494218753888765 -0.6210512541601885 0.19018835749505955
P 6.261124304987876 7.515929691263352 1.1621434632863672 -0.43416830688927804 0.4323423094241329 0.27668078206134933
P 2.0718113116105537 3.1084978441712825 5.980953897097739 0.0675055990511418 1.1786682511251314 2.2069120549167027
P 6.945154182839294 3.6816523027107873 5.608915154921128 -0.06766834988125121 0.8895453866456874 -0.4458493427716322
P 2.54716549651083 8.38038749943555 10.259981457710452 -0.7638256411476587 0.7686132923442891 -0.1495667273189553
