# total energy = -340858.82698546565 ev
CRYSTAL
PRIMVEC
9.41022628666458 0.00000000000000 0.00000000000000

0.00000000000000 9.41022628666458 0.00000000000000

0.00000000000000 0.00000000000000 13.77281737078260

PRIMCOORD
 96 1
Ni 2.6890473618363484 1.1160528038192838 5.702814333341099 -0.6243728623342537 1.9214360431612265 -0.43517823621103124
Ni 2.04807922794641 4.678425599983225 7.9795432326804345 0.7326589857368673 0.10187199234615359 -0.6018309724779958
Ni 2.1612466058446453 7.548958580491232 0.4315633156933943 0.2981420372589188 -0.9665553256428386 0.6077481092933791
Ni 0.5988893673000708 5.080383403652202 0.6178679111005997 0.5876125148857686 0.4652154060030697 0.6864135816160825
Ni 4.827389477592493 0.8772165627793569 11.810727603790593 -0.10690415545342233 1.5350272630444146 -0.8335441886897192
Ni 5.488053214504301 2.911674488588091 11.180304569158325 -0.6202639823722027 1.591714945544446 -0.28432698575269744
Ni 7.049407322957078 2.6101520270368472 7.670192404118252 0.08397685723328763 -0.026244021298193514 -0.17431076703285464
Ni 0.5528921826030332 2.7472496096577843 4.310037836553243 0.5701069019018375 -0.8919455114467477 0.49959825435831373
Ni 7.271799194058775 4.256847475100392 10.677321402201297 1.7325689755807516 -0.40845573261452234 -0.27550578791664165
Ni 7.085646103290199 7.65705384657447 2.9005412502053027 -0.6200901757984998 -0.8664810486270561 1.6489603003201603
Ni 9.059902108252103 4.273597677383684 12.322442519454734 0.7537407461078309 0.5769216108308258 -0.6218920048939289
Ni 0.4648312876777308 9.061341872830388 5.569864778341776 -0.2942483586314674 -0.3371595561726968 -0.2657947312764648
Ni 6.894289157542602 1.4640335511416558 9.903812117120518 0.17727884852224304 -0.8408885448699325 -1.2904446470691906
Ni 3.1242797246478635 3.8250122038755445 5.555334448372321 -2.033904580076304 0.24369687093616094 2.0583958803494484
Ni 3.445488378994975 3.765887753905928 1.6767855867270576 1.4661463809123008 0.4236252412661091 -2.0099167018021387
Ni 0.4765489010952331 1.6798382640420575 10.38682490245642 -0.6512072089182784 0.5618356630319807 0.6799079192870806
Ni 4.330444852660853 9.284128973424162 0.017168957340373384 -1.4658836141692175 -1.1916633778332186 1.0523383828469297
Ni 5.8069751839329635 3.8166371027338992 5.80292878675217 -1.0917281974984618 -1.5180718661369983 -1.7629380747909122
Ni 4.020500238837955 4.8192872730049015 11.89774396362969 -1.061580727380804 -1.1473105627494564 3.677581777620653
Ni 1.2158670710208954 9.166868147215121 8.897391269290575 0.7786189974067494 -1.4646248020614518 -1.982657351865553
Ni 7.6549647764020605 7.521254875141788 6.405061858955078 0.35844546213466655 1.5218781272569661 -0.34943528821625625
Ni 1.9592937456189654 0.14171988563304536 13.134322942080654 -1.0004504357283865 0.7692601818996687 -0.6592527049305743
Ni 0.47515712866955967 5.248111271909157 9.769004042485829 -1.3699169315639053 -1.5618479827816842 -0.9568388696860232
Ni 0.46875252885270124 5.096267865143323 3.611769895515447 -0.1969130778134028 -0.09359226883586462 1.1378172785470406
P 2.9529853807362074 6.088133916416207 4.582588094289995 -0.2767699993410459 -0.8880520899296125 1.8905799770123182
P 4.571760688252267 1.8710634666256298 1.1294068555385077 -1.1889315807243523 1.0311815462636564 -1.0807153913277256
P 1.547426973970041 3.9401557292341685 2.2848555705145324 -0.8900056141115575 -0.9320439221295302 -0.12295478115838178
P 4.732797885821908 4.0029219366665005 9.007670648828842 -0.42654858556049124 -0.6515702486846521 0.5222643284972618
P 3.5596155999453996 8.500642966736219 2.146287169569506 -0.08957826258046508 -0.2508702487561486 -2.2281647936478914
P 7.410251849223978 8.436888685573694 9.472392777884952 -3.585259633746464 -1.0446237878114912 -2.7929027179283317
P 9.421518273051156 2.0643589189296088 12.643666230163449 1.4607246956760973 0.45266199481809133 0.40192358792295946
P 8.280358986258939 4.85866906882264 8.11246455700175 0.26632900651338 -0.7610447359684119 0.38241765667954786
Ni 9.460947119998902 1.2508542912957699 0.9591608108034575 -0.5929856062722239 -0.1430500092463601 -0.2411046847289525
Ni 5.3703971588031845 0.4519872702078072 6.746035751996472 0.0829404455489733 1.6942176294960627 -1.4539189856081736
Ni 8.91197335550304 8.9484191608082 10.53105355434156 2.454001239363864 0.2504992385699751 2.243131699370369
Ni 3.6995833014969004 7.549701988345378 9.001995341527127 -0.9873192976630673 0.521044854267864 0.16967506803305618
Ni 6.554523537519844 5.972341085463456 12.85448728737327 0.28044796241326536 -0.9127796745832796 -0.2862758819489521
Ni 0.8483968046260943 5.149501513635783 5.886819069513453 2.3137095095889313 0.6575490919759063 0.6592244227958001
Ni 7.4951509082126595 2.0982639632142703 3.7310143973656755 -0.046296826184010584 0.17264340663276073 0.8969018270107586
Ni 4.234573470154015 2.513151417409788 7.072685399017852 0.9463307710658475 0.6880526598814021 1.188644902721869
Ni 0.16585805635038806 3.092981312965714 8.61576484857504 -1.1759287407067813 0.9061565128398071 -0.49244030315729387
Ni 1.738369869773558 3.120440352439109 -0.3494054555390518 0.36994960611952415 -0.21351083427108392 0.22039162055131722
Ni 3.163238060295518 7.1506801751889775 11.673784348876085 1.3010651028975142 0.9910638523071641 1.4984054980563228
Ni 2.5709302050611407 3.014349464494264 10.37547616989819 -0.026199798323819398 1.2887027246774192 -1.206006276818452
Ni 6.803009965324667 9.346151773002347 4.907626710619859 -0.9003465910262494 -0.31793181829133627 -1.0246494015720935
Ni 3.2361202606798383 2.3805895637217422 3.500967307411476 -0.20137856978392416 -1.4635603653526794 1.0295496670871882
Ni 1.3861074696203448 7.247520810974005 10.298912689101948 -0.41199382767476794 1.1904577875608917 0.8991340587753871
Ni 2.408763780371278 0.33941367757028856 10.577702867700523 1.7602852105490976 -0.5286460636538896 1.2061597716771808
Ni 7.388363663543678 2.8621014180103503 13.089864329334919 -1.2811629646569485 2.3781297848465304 1.4269483705566004
Ni 8.770876426831316 3.7137456916296827 2.1469345931184334 -0.855833853325855 -1.6374726113955347 0.5754671377724864
Ni 5.498159797230287 5.606800856421634 10.490135068617718 -2.691882532059512 0.14351974979392704 0.7929894071958085
Ni 4.0949539469645835 6.169438269072182 6.637644063794175 -0.001139770031398037 -0.1368456802078611 -0.5688691728399945
Ni 2.147008933903848 1.8843412955142385 8.055500694922157 1.0189649495928064 -1.8459947342027756 2.315641693614638
Ni -0.21730752599289696 0.8557668936307424 7.697323967726783 -1.8287642292571018 0.9168541017629694 -0.7092688889477011
Ni 6.352250729610101 0.9537264052873897 0.22698876650359914 1.3527103378776315 0.21480075672710103 0.6035885785990508
Ni 4.1648154648023095 4.478373605409918 3.843194642556317 2.8449739847022744 1.2246341763322846 -1.6032262886181552
P 0.2397292714875024 8.169130114917085 12.650579923207006 0.40819296587143894 0.009345445770641971 0.18705058319702628
P 3.96260852847458 5.6456650898092695 0.47264459832706596 0.7332973906518145 -0.0380600400965151 -1.629507076691555
P 1.583374037297104 0.7391459627898286 3.7070089108349595 -0.4124689675389735 0.06464987476990157 0.07570613258406317
P 9.302253068703722 6.845920595893098 4.961354395977415 0.5978380492685188 1.8968406132100493 -0.4299061891788144
P 6.765604316967317 4.112560479814043 3.767567479247258 -1.0036465740681813 -0.7883539653063262 -0.4470199660409656
P 5.606876138229649 7.418128208387526 5.313277086971961 0.7416370208657614 -0.24796130263946978 0.6146157829474899
P 4.99980363839837 1.574453143047351 4.753440157579564 0.48655350535921366 0.6603405386781144 0.4742230088183188
P 1.5431170904611942 5.152014043978276 11.537860221437578 0.8548131253708247 -0.14396249375830047 1.8299153121424097
Ni 3.080964454361353 5.473260339229395 10.03976353421443 -0.03442012935108266 -0.4826847664324268 -2.5464696790079304
Ni 7.194070727283504 8.490084693162146 12.90318708897804 0.059060039386949904 -1.015910736147515 -0.3915905814280675
Ni 5.434414926293763 9.985096708301889 2.532160073933523 1.6661159861638404 -0.402626527527255 0.1001958901953113
Ni 8.38409731770332 3.9862564264172264 5.91673323695073 -0.9349389842891382 -2.240234323217916 0.69698595781529
Ni 8.745741713180378 9.604170759747044 3.2939479815064003 1.6717916963923791 -0.23826515839762838 0.6147623358276831
Ni 4.011165294644121 -0.2768940180592046 4.05671455258347 0.457341916792264 0.011564822019463954 2.4024035697922304
Ni 8.649164563723403 6.922538656000151 0.36608414010472884 -1.0236384438090758 0.4812745163484614 0.237236717133114
Ni 3.450588721487977 6.351959012604043 2.384432700020897 -0.8168477018706448 0.3305052840809728 0.39422467661680494
Ni 7.487321600179121 5.7595852857876535 4.714848820745981 -0.7076856036209812 1.8716810832252861 -0.7369262456536534
Ni 2.8985095824115037 8.35359877523133 6.085684434587926 0.12986744911781503 -1.8997760416892893 1.7294980499649117
Ni 6.888605381037484 6.202119983976602 9.152105384663422 1.8787673006481063 1.495616879567592 -0.9742051288786125
Ni 4.36737998971811 1.53403622236941 9.375583195845731 0.5246955636465738 0.25062265152171675 -0.06634294620160833
Ni 5.893972723320058 5.69208573467639 2.486778318017006 0.14948728023127159 -1.1271669979220458 -0.408365229783245
Ni 6.660360349362639 5.504822237239597 6.91458795605119 -0.8788711947612929 0.5685629544534853 0.7734670208921648
Ni 5.584310416277215 7.317655225365785 0.7309044868574093 -0.4922253589330104 0.2747545115729139 0.3385764911248814
Ni 5.299406413845237 3.932693420014702 13.859034559206245 -0.10299582153795164 0.2220299274856886 -0.8957540865595606
Ni 8.957133030085913 7.101323539809279 8.472045289916602 0.2132956329364843 0.5317609551337874 -0.10922843271122479
Ni 2.51005545305518 1.075617062689339 1.6064893164480456 -0.19436819990436202 -0.44753135845974534 -0.21541087950727414
Ni 5.686778367211348 8.13933733939523 7.97112766756698 1.473208944186037 -1.8117877493037635 0.8520283635368359
Ni 0.16995997386459402 6.965844516060661 2.5332620113983393 -0.390103969580212 1.7542642011659981 -0.05016016579415877
Ni 2.0576964789202994 7.924605392259039 3.904566254495176 -1.491566363647302 -0.38875645441338214 -0.8421609838244528
Ni 6.20317392928881 2.947593321237148 1.9585221070868137 0.8321182548764701 0.9183062608284637 0.26598782112387737
Ni 7.75599296275791 1.1643178529827671 11.937933156838385 -0.8362718720335275 -2.4722079921798774 -1.4518680166164157
Ni 8.606018677504924 6.597509449896289 11.591381822845694 -0.12133035818108137 -0.049427401393192294 -0.7089855533793273
P 1.2596622628335006 2.970902451043728 6.6553004708414445 -0.6579013331090025 1.5976583076120745 -2.511567982034739
P 8.172094336107666 1.3136299089541041 5.737204945287456 0.5642440153631573 0.4996795012182105 0.9442175813775868
P 3.5932195169980017 0.10647106107531962 7.8527366732151185 -0.5999507247361474 0.11026175907174558 0.6369584123087482
P 5.177233449663231 8.313200675005392 11.719303494092227 0.16458017000865205 -2.6870336886076434 0.7683577246900574
P 2.8399779766800033 1.8283504508032373 12.019592275014631 0.9123418157149126 -0.019017935863399508 1.069558346269642
P 7.758063212478317 8.96755956049596 1.573145121633094 0.1389691543087671 1.3108514928603168 -3.164656981356763
P 7.687110108424376 4.607387803895268 0.5954075836793867 -0.6620269252416018 1.1870503045412395 -1.2414617894125843
P 1.6731287729027393 7.040053558311241 8.142778659044106 1.3071023102305295 -0.9386722260793253 -0.841817484442105
