# total energy = -381174.57065528363 ev
CRYSTAL
PRIMVEC
9.17420186912629 0.00000000000000 0.00000000000000

0.00000000000000 9.17420186912629 0.00000000000000

0.00000000000000 0.00000000000000 13.42737177800249

PRIMCOORD
 96 1
Ni 0.40928774990132305 5.1119294925742675 1.0164345937720327 -0.04790299432886589 0.24974899066751186 0.6401386098089427
Ni 8.914223322057508 8.276974087062792 3.3542781038745897 -1.1504251971190382 -0.40041435036728457 1.2257559486415535
Ni 4.708649927467261 3.3000704973786665 5.735340361492106 -0.8895636414781325 0.04049641745214961 0.6054156045054605
Ni 5.2641203271336225 0.6519894251138629 1.5514657891274177 -0.6377356567944049 -1.1517801684850357 0.46561701231686264
Ni 4.368608135741268 1.557173977521102 4.087600498106694 0.32058031165777695 -0.5177530708904696 -1.1933788178624287
Ni -0.006948540484372504 5.850792187306124 3.628894992497527 0.34906942023640525 -0.12587632568055096 -1.3153300974569604
Ni 3.540324495536506 3.7571108853512962 12.751035086017183 0.6736840498645559 0.7501995657237918 -0.20465004144634433
Ni 9.150303058371685 1.6900164203699453 4.394053702004083 0.0692169253152937 0.0845908366682027 -0.4298606806528597
Ni 5.036838650397625 4.791135176338391 1.2626096218065734 1.1424277807358583 -0.1523355483133441 0.6395205166089695
Ni 0.10536754313587944 3.4255460561385864 12.796392339984356 -1.604381999489153 0.10563917269806967 -1.9523877543477344
Ni 0.506195761507443 1.0710054986613817 2.1576447547025093 -0.09849227724064327 0.42735642617376723 -0.0889938508319048
Ni 6.5669120356414155 1.598659718305803 12.437224172232725 0.19692310511573186 0.6559722344070895 0.7721081928714251
Ni 4.573908424834598 1.1178948443382075 8.676257369842107 -0.8239925404455422 1.1077875649541695 -1.6077689136835152
Ni 9.217687570990797 0.4136399912609564 8.913143518499268 0.2874107668843437 -0.008134713291992442 -1.492697391927952
Ni 8.672317967565913 1.7074290554892204 11.02537597402348 0.25149348416244427 0.2877756064229302 -0.5799945933291947
Ni 2.620656630662038 9.155027772326598 12.029098793706329 0.6142691982413485 -1.1653267968212189 0.5740206351339469
Ni 8.62596072559663 3.3815649324495425 2.501371823313334 0.38857390608893083 0.09425329945863123 -0.10200723237243722
Ni 0.4330003094338787 8.135526242874706 11.867997056885986 1.3419088763867535 -2.6604847344745215 -1.1940133661226338
Ni 2.8907818300571586 4.826107233806607 1.5075846642385846 -1.6165620864951127 0.47173366673756173 0.6861610992856441
Ni 4.144812655709868 2.959891092624861 10.020900869788584 0.08802274516788712 -0.728329762233894 0.4308726668571418
Ni 3.575113068967639 7.048080574490595 11.983270903184033 0.2917644158673491 -0.12258685629600177 -0.9346214530487195
Ni 3.4772885545962846 8.117187013368158 5.769379402631751 -0.603122951816542 -0.4159672105002191 0.48833193741587516
Ni 8.412495396853062 2.728847993128641 8.239706644290653 -0.47566179814737436 0.40397198581155586 0.9831605382996873
Ni 2.8607546673883557 4.645714902747436 10.423292372156101 -1.1692672695262056 1.6254190226651102 1.5505055611856717
P 1.7014566500821349 0.4450166790225123 10.162399172086866 0.3698495902065501 -0.5442894266181013 -0.270355868284586
Ni 5.521043850060546 8.1944613155861 4.54542069323693 -0.020901011818725293 1.0201204033534885 0.545808434365789
P 5.567988240948496 7.521992319673102 6.5876971073622945 -0.5624709826231344 1.2043381450874098 -0.9827486475732495
Ni 7.0039893603793 5.468695854280471 6.1635398110956805 -0.6437486957577042 -0.5546759120587479 1.610040740436827
P 3.803532346733558 8.51142081544692 3.2626232402501856 -0.7140999917877573 0.2240364163927561 -0.9756410899941907
P 0.3367610971429301 7.628458932191115 5.633803047630356 0.649028970320037 2.0799052151761344 -1.186715032689008
P 0.8355468558127342 3.5818102363212065 10.211395831929602 -0.732268692276984 -0.38212943601516763 0.7069582385366534
Ni 7.6205782927983545 6.489408378377117 10.357699581159116 -0.13526162355019286 -0.27148998188902923 -0.11198105575569746
Ni 7.467506734860997 4.134115536347869 11.166134835652311 -0.12345357517167124 -0.19147699439949603 -0.35344749469944287
Ni 0.4457818074571528 5.378605192072207 11.239891748879353 0.41208150229256774 0.33918944211853197 -0.9792550325976942
Ni 6.3444101180714565 2.598877075460163 7.356763109438554 -1.423884386919296 1.2117642623481517 -1.277501199534645
Ni 4.800015803733258 0.7594129068852691 6.400210366009268 0.5185650252688038 0.2412370965417587 -0.562771801693005
Ni 6.786138763149422 0.533352316416066 7.850702137268784 0.7428750070379206 -1.9913854757671703 0.26693347286659835
Ni 4.011245450914543 2.461484228491636 1.6386225415827063 -1.6070929706624126 1.7286179613528034 0.4814632353204998
Ni 2.6553351136709216 4.810098251571025 6.21864557195313 0.13925171854619245 -0.17709835708032082 -0.07449668565699429
Ni 0.18486200220253873 5.642455237399054 6.014670037607547 0.39433651960432087 -1.8400804256008698 0.9504717898174146
Ni 0.13981116657729498 0.8515705167712833 6.46386923525539 0.646625245974551 -0.40339785847564075 1.8338318735879964
Ni 6.316208621571639 2.205689132392779 9.923902033584106 1.7738984304571581 0.5006279811744088 -0.33558372704514466
Ni 4.3281499055642385 7.214821693190714 1.0328509105699417 -0.6081610284610817 -0.0768405032988225 0.07301418757419684
Ni 5.352577981411837 5.580410110259087 12.44185622674891 1.0433492919744418 0.3817329719076974 0.8753451838859053
Ni 4.668191697290231 5.826453029786927 5.2893906661410215 0.30929522566226086 -0.2484618964249721 3.0765545319908756
Ni 4.238279424200477 6.314153600356298 3.309323597368815 -0.16489641569749022 0.7032465940130211 -2.7669214633732215
Ni 2.1237268130273392 5.4862002314182865 12.840797311799065 -1.021372016372402 0.5884584078258318 0.14669634774969573
Ni 7.425727419616961 9.15201863411842 0.96567648717329 -0.15429421470161167 -0.09091523622433374 -0.43783907087264595
Ni 8.50246679443722 5.363871423894359 8.39491395641967 -0.8783047807348616 -0.7941464036183871 -0.3788811042811991
Ni 4.537615282299376 4.835143822632997 7.85024617943663 -1.07035873068375 -0.9951516492232927 -0.08358604955277217
Ni 1.7687494206827057 7.076447206623787 7.38806181648435 0.028052792372158138 -0.02130441790473105 -0.7053597837012819
Ni 5.297532770286626 5.316596761739658 10.12461430433015 -0.11734360561919145 -1.196876546603042 0.027326712839411002
Ni 1.3914236726212366 2.2752479308513376 8.602514217917847 2.50064902112939 -0.2334584810376044 0.7792113795751096
Ni 0.4652990044817818 0.6905467606667027 13.125511326982737 -0.45212463425738264 1.8947397648169626 1.5583227432372453
Ni 5.268496421418077 8.612933358963664 12.776399001883496 0.157611966220935 0.03880848822676542 -0.08677293192118604
Ni 8.066334412490317 6.187623008383147 12.683979009824451 -0.14098952717290558 -0.29489550529716313 0.2391439614581559
P 6.622590266694567 2.1245249685886547 5.072082264240727 -0.4434970404893717 -0.31927676235500496 -0.41017657196037105
Ni 6.175843333202351 6.413546903244722 8.171347831434623 0.48490568534314554 0.7684058043191734 1.9106649206876511
P 5.505447706908403 3.426096508249838 11.88862158007442 -0.11932824014938803 0.1080056160477172 -0.5368093161909723
Ni 5.636758058047595 7.5906153495425315 10.475256886298672 -1.0857053883431496 0.9141850395712385 -0.22086958862900025
P 2.9119925847440733 6.436427362669101 9.241334993690188 0.09440910831020514 0.015661874906973027 0.19936488178800504
P 7.575184342023764 8.651887020036606 9.541651573967302 -1.764291246384697 -2.0320945234507586 0.9048933298566674
P 7.918895814491437 1.8865094756832412 0.956159170169741 0.9003753873816558 3.4968298829481452 -0.4803332354811147
Ni 1.907536746333072 2.0611128853724114 11.61632851678115 -0.15133924583834582 2.223286639619984 -0.7003870130770389
Ni 5.990460236334494 4.337085578170231 4.060423759953992 0.02551717043449799 -0.7960582759291194 -1.0788192027462775
Ni 7.075199515171615 6.379134472089611 4.166272031267032 0.07155997162617353 0.5335023633049264 1.1439213345622492
Ni 7.652752218701041 8.85259103400098 5.541408743336504 -1.1542687392348445 -0.2672512612173333 -0.46983387861168757
Ni 6.300052852106391 7.593560268337731 2.556853726446806 -0.07258558467721048 0.8918146422958383 -2.3938963036521677
Ni 0.4882565272017366 7.152189417132078 9.4679487885312 1.3745701140652005 0.6432645570324341 0.31107700015303197
Ni 7.328398312145733 5.476328790223166 2.066298144260406 -0.3218830896296005 0.18548298159959023 0.23555804387911042
Ni 1.8711151649718905 7.120428330312832 2.3324417400508026 0.17388679212155858 -0.04841850051270371 -0.6819889701858255
Ni 2.641142623402471 0.34205828129354626 1.3617910006321647 0.6569104299506429 -0.39968492840042774 -0.16277731247195837
Ni 7.097960709971891 0.6696726991878371 3.3097795552009686 -0.46841128723254816 1.1029330650753457 0.6597532987160767
Ni 3.421353445891216 4.0798960033895355 3.68836492117702 1.18406833909478 0.36239570503166624 0.9312977879921251
Ni 3.9656221450935965 1.6152375010563458 12.851471495656428 1.4713842322724724 -0.9660565316295493 0.4504814422270048
Ni 2.302045774467461 0.17663274313931968 7.636723970641565 0.1242696433150634 1.0369613861702272 0.5737743234510957
Ni 1.5023672956440999 4.894354121400016 8.419525587733936 1.0496587791322374 -0.9953779063014856 -0.15021695930844453
Ni 2.1342312741504004 6.3896022364052545 4.5906706090424105 -0.08194362885334275 0.16565411979912117 0.19656597888662922
Ni 8.200085101322724 7.457993087538189 7.4658737269309485 0.37048362424612324 1.2950034700844666 -0.055327568927711165
Ni 4.129941274504207 8.065187637258541 8.521520694268212 0.6065983119596521 -1.2048672781180025 -0.6470358511494083
Ni 1.7362819203206854 8.895737305321292 4.118752417922821 0.9624289621792909 0.4654935993651209 0.3262413665982962
Ni 7.228674737990559 4.142564976255588 0.2986257748753837 -0.41455876018846666 -1.4414529919306787 -1.024942250222164
Ni 8.118159478764701 3.7631291617676528 5.0352909625448214 -0.7353270194873336 -0.1988303494407737 -0.18324483629769087
Ni 2.2841193840443506 1.5457153994052037 5.567673565824898 0.9032462811715476 0.3694284435087315 -0.1680143925011816
Ni 4.860051780667154 0.6680516177201996 10.794290673198729 -0.5711579688741711 -0.7127928429405596 1.1436778510928756
Ni 0.8119003505335289 3.158925401851771 6.529771196854863 -0.07708707209198983 0.6809433025301305 -0.14472739694878303
Ni 1.679181687980133 2.8530299894271174 0.6107101038708815 1.9018663485594147 -0.9564992269584172 2.2457902200391384
Ni 6.263319347882167 2.8657454331970413 2.1616593854339077 0.10965857827010791 -0.3597348703700514 0.266950699257779
P 2.046287375176021 7.6506971974857 0.18881057868058723 -0.3566953122127793 -0.3939205151128248 -0.40784149606929115
Ni 8.752904156653221 7.412112904065326 1.3048503994038751 1.752138155961931 -1.2701547864719027 -0.7689107689800501
P 6.715891899551799 4.262058955406568 8.665193282405939 -0.47149352570229763 -0.3561921473241156 0.9477806161384967
Ni 7.465433365241947 8.665538232395658 11.649802427086577 -0.781107568156558 0.45393186266945046 0.7923090932993323
P 2.1799921929991593 2.4904655321490594 3.0827364077131807 -0.7603837053456453 -1.3169421791390867 -0.5936720908162872
P 6.698616877460337 7.244876378465079 0.44546529749318275 -1.8565773948146282 -1.4861223098135954 -0.5074249494915841
P 3.0901831073582366 2.9683221841288727 7.354964048454947 0.4219074872440541 -0.39068966688035295 -0.3642538412863275
Ni 1.1231333135969568 3.995089681449293 4.363546728578306 1.0351181623139012 -0.5054706539786907 -0.6557675745954513
