# total energy = -340894.8202735314 ev
CRYSTAL
PRIMVEC
9.07421616868338 0.00000000000000 0.00000000000000

0.00000000000000 9.07421616868338 0.00000000000000

0.00000000000000 0.00000000000000 13.28103259870077

PRIMCOORD
 96 1
Ni 6.168815330126169 2.1212159401726396 11.476644551729521 0.8527899242932088 -0.07836465325283279 -0.1912851901036641
Ni 4.875794004343388 0.3567464476274227 6.138612709800151 -0.9397446332078977 -1.0784841880043619 -0.04343673102739616
Ni 3.003701588515917 1.5268184994096932 4.8151573711849505 -0.4288659208397582 -0.11468842738453151 0.9392481531874534
Ni 3.4253078093990386 4.444895786340376 5.056368179232713 0.1419323507021491 0.6188743011135277 -1.4292924453087448
Ni 5.29882487712868 4.502934471475937 2.710127109979838 -1.2798871832683183 1.6173694128877565 0.16108372681961936
Ni 7.334180586101713 6.208460579556635 2.322958446000714 0.3561186137737028 -0.34497648111395424 0.7301963831289876
Ni 5.0949363192314125 4.724744605849555 11.174328880980953 -1.125967064076674 -0.8992916673991739 1.0845656183117514
Ni 5.6705138361402065 7.853334628311802 12.44693049863982 -0.48291642282725866 0.15857741545799786 0.14120138607339555
Ni 1.8759308091689877 6.441722374443242 0.28783957406364663 0.39074648826021735 1.0936837785629356 0.2968063491666308
Ni 2.5277317399518773 1.6514256326619647 0.4404161630997422 1.6221393234725738 -1.5796150769571182 -0.21045816348768917
Ni 0.8339785196283529 -0.0314521398605955 4.776510285507597 -0.11150334478833054 -0.1376738325361113 -0.10602406684131419
Ni 8.38306920630489 2.243890265430246 1.4965732302687709 0.8953056861682324 0.185288606200597 0.33120359569957797
Ni 7.054404360320033 0.46405268077346173 4.919599781781149 -0.7588724109074414 0.48727649956816727 -1.2884499852366649
Ni 0.7552106956054127 7.5289404827659645 2.499383889363464 0.09472946776410138 -0.13108075269962585 0.2116629824290677
Ni 7.79665707556685 3.767342230727167 3.5707248420605318 0.28038162795170424 0.2598272008391203 0.6141912938155616
Ni 7.624991058463262 3.8438287968634466 12.661631892248083 0.4967900954855573 -0.8119260961993113 0.5728476978717684
Ni 8.105253011165686 8.841335259575077 6.8978360236930785 -0.9423293632159384 0.7380984115848837 0.9955905365329243
Ni 6.615520832292116 0.788389658758894 0.40551400633975015 0.6213546443332202 0.13998833960190085 -0.4362323885071584
Ni 1.9571268933767743 6.628959746095395 9.24853888492237 -0.9585730787683104 0.11824323461532539 -0.750297781864553
Ni 9.451794062547208 4.8258313713921055 1.3283817304476107 -1.5642203396686027 0.13767460386705965 0.6496804878611069
Ni 6.514706293227689 1.8392346799181734 6.97118744822299 -0.3923068907688018 1.1045348623448268 0.4739748973632547
Ni 3.2822074240663617 4.45319869392309 0.4777148202887996 0.48300126923158104 -0.015359256064889677 -0.30260007303027237
Ni 6.147663332776106 5.651575947478868 4.724262764983279 -0.39040144621597284 -0.21559368494204162 0.34316051095113803
Ni 5.276456934843008 2.9773863622974788 9.333723087034642 0.22761179244884025 0.09719361303387776 -0.4183310827467053
P 0.20451377137535423 5.52849328250408 12.416902103259803 0.21119915541877177 -0.3166377820702611 0.06261536083837603
P 3.9857586083402 6.291961514612519 12.426066153934974 0.2906066481138221 -0.5812845157852118 0.96553845434255
P 2.441163719909155 8.448430783701928 1.3361519815547998 0.128743619926017 0.5615045049448071 0.8347816606412461
P 6.378593054166804 7.53525613705839 5.937378360064571 -0.6357088561723633 1.1450693321237635 -0.6604603520854303
P 4.677059601098558 1.14725312096451 12.674221459439622 -1.1742770640359712 -0.7508341139839972 -0.5372374048673264
P 4.0009851426831435 6.0662494673858225 8.15808672603956 1.005587756954952 0.9600635472709078 -0.15167683168342266
P 5.007724029857134 0.9585457263304997 3.8295859075281156 -0.3491437251177664 -0.07273625132246182 1.2615143371880855
P 0.2074846696732565 5.642156911335855 3.4709048370628413 -0.1563384988251501 -0.16556670229163742 0.3762526655194165
Ni 1.6054919515868846 1.217932188900859 2.7164355048995135 -0.45621243117351107 -0.0669335285977557 -0.339709319177744
Ni 1.6977495050223523 6.520205268085748 4.847496969364223 1.1237880541474838 0.5438055450031474 -0.7038376906298007
Ni 6.1699314586864675 5.660241823699078 9.342382611303693 -0.024041357219919887 -0.16216718969178523 -1.4881701934815594
Ni 8.66194708470877 2.369187039093759 10.259889288635742 0.20174006688840093 -0.03982998751274431 0.25394091726167234
Ni 2.3796496100695728 5.331419460775793 6.893572957045692 -1.2318934289978591 -0.5087426398617432 1.1001953544292085
Ni 0.5444484191355701 9.070078094924863 9.122329245135555 -0.26220829947678714 0.3002835090819538 0.424654710971888
Ni 1.2770144088692204 0.8852405803018697 11.713339122505245 0.49348134282729855 1.2096896392073102 -1.3047281535713982
Ni 4.114866552697418 6.864644356637285 1.6757073270888325 0.13456562592443277 0.08337547620386287 -0.38916834513982007
Ni 5.824566800109316 7.704081924573574 8.00705456855601 -1.1044297042255302 0.5890114521158243 0.31170177822122447
Ni 5.0929581401570605 2.9753174410637535 4.9333190888568925 1.6953779683527512 -1.2311704347889054 -0.12615169082912467
Ni 0.8315611485026316 7.568095724535812 7.015001392455094 1.4108800042398282 -0.8494009532163178 -0.018469776669413355
Ni 5.212275005517832 4.505457103506533 6.9786246756052766 0.23251771439088986 0.15613666722698916 0.5239463441853751
Ni 8.116160218722433 7.239037431998154 8.9911396756423 0.3327388013971818 0.03516832037101685 0.7765150636898691
Ni 4.496201403250392 0.057041428804041824 10.44133549567665 0.5561725512089325 1.7349341333788186 0.34660167542220305
Ni 8.228417344083914 7.287221518625708 4.929228432312317 0.6779489957884969 -0.5306093580278475 -1.3285126575855057
Ni 7.4671995175279475 6.014943850475807 6.996806682079029 -0.7948413728028827 -0.6752462521453533 0.39405652647005684
Ni 2.407815976339238 5.068902393707034 2.7225315631662537 0.27134240056757136 0.9281936951455046 0.1283101319330242
Ni 2.4113821432026334 5.231231042611044 11.420319985984534 -1.1870276788334202 -0.432622559668713 -0.4380599286342004
Ni 1.2068707196731778 3.4314692020205277 4.030128802009267 -0.20739083741627512 -0.503751614405055 -0.47432533872413796
Ni 3.7778955438623543 2.650215506674799 2.7516307588342834 -1.599451137846439 0.6147849615355025 -0.3511052197195115
Ni 1.072218429378213 3.3870781376548043 8.154102237821451 -0.3985150764620427 -0.1657569639255726 -0.5228381987228609
Ni 3.759021174712578 2.5778123377103457 7.256636873808727 -0.37305292763519626 0.3086660767186942 -0.6294885862942643
Ni 4.092298977661123 6.7954897569784185 6.067771213398523 0.9266800867144556 0.8065558330263336 -0.44218140700174174
Ni 0.7909413282804886 7.431111360744938 11.44576590231617 -0.2618745702864522 -0.247541955713864 -0.10860545441524522
P 0.38512061344205467 5.57247600715262 7.749973864255341 -0.271903415277364 0.08588255889643273 1.8884652446621606
P 8.446216675013204 1.675608418135115 7.997333361022281 0.4745523671332794 -0.42477606704110066 1.0640993800375997
P 1.663902679575879 3.3101015638579057 10.306824763150312 0.43510984486694093 -0.32253306450877356 1.0039895592298966
P 3.934471139862058 6.31148015309385 3.8530137182352755 0.10603435125395931 -0.9646102861013258 -0.32508437017571756
P 7.121834858950796 4.009614722039604 10.522667693123498 -1.1522661069825186 -0.40399075486463326 -0.9188909296873401
P 6.379219175066483 7.6888009449350045 10.361595823126816 0.3647639481535266 0.30299782268932335 -0.7918617213492685
P 2.628546279016306 8.47584399004879 5.901984380800772 -0.327108856804914 0.7644720164824059 -0.18767304727237355
P 6.977954091047503 3.9740528697809636 1.4984851675667794 0.06602927161593145 1.303444401762968 -0.6324972912136011
Ni 5.116632769537716 2.9646552373373174 0.47098265948484824 0.14290397058679905 0.40435739417543265 -0.44803915133409933
Ni 1.455830908131473 0.9876648852735915 7.087290226298737 0.10984395480803663 0.9831006315960293 -0.6618747159344537
Ni 6.851023958515259 0.6920096890230689 9.384496954890727 -0.6889995971757037 0.14005210296030074 -1.0912013784607144
Ni 2.620343187808904 1.506337994038999 9.208483480931532 0.007934167245412143 0.7819737728115952 1.3258785623967682
Ni 6.065024448234275 2.3149323020040904 2.540157063834949 1.6555644359002393 -1.6720830023805524 0.606338373430046
Ni 4.1451199886326835 6.884217440414241 10.16121172742457 0.3030872970793361 -0.5601158521273966 0.7419136715659158
Ni 8.137212399697184 7.181706535705709 0.14578363098536368 -0.2975054321161844 0.3103110685212849 0.5588770946242891
Ni 7.603530537771329 3.7796377933223333 8.320593229575945 0.1166280676094056 0.02065315747397733 -0.4182133262219185
Ni 3.095323946835767 8.41585434848669 12.446160097706734 0.6398406189525497 -0.04626854404923644 0.3815974747710977
Ni 0.02571451312338234 5.117159074062085 10.108525922270477 0.6632525701185868 -0.6820095390111157 -0.296230936279135
Ni 8.692481821338093 2.1789098051025797 5.825870764939519 0.4251123673345969 1.354644064565235 -0.17828209297577682
Ni 3.3790293081183376 2.8164551426478264 11.699353940902535 0.21115467533408153 -0.08252624082969014 -0.6354095797643895
Ni 0.9685999575891304 3.2491954264861285 12.869359750908464 0.10697177546656415 0.38989288201067046 -1.5807692451662194
Ni 3.234186673325681 8.578745598778818 8.054508180800603 0.3442419169407749 -1.3159096241095145 0.09874038869570737
Ni 5.6555686024913205 7.805177764332062 3.727268678304455 -0.019645027924437137 0.36948115112353785 -0.4571190021481804
Ni 3.232371830138203 8.49452780066388 3.542357028197056 -0.428105645634966 -0.6389918977990091 0.3574352757025973
Ni 3.225802097799531 4.40221974878682 9.144748003030475 0.45316721658928405 -1.1635807606643895 0.5631564387259334
Ni 7.2597810896310335 5.992848134668256 11.526249660572871 0.22573103048635965 0.5553505695282693 -0.16483059545656129
Ni 0.5232211057932283 -0.059226500001765894 0.5273634853686479 -0.29672818763052766 0.1036195711648796 0.17944860248005223
Ni 4.559875176483074 0.4756758439676675 1.7156964893033266 -0.7026120457528157 -0.6424793421269774 -0.8220626704126809
Ni 5.858041582702356 5.5402171694951905 0.2761283909748481 -0.3429031435246933 0.3461054525120749 0.2851122006581541
Ni 8.034764501764023 8.989961842413626 11.241689508148998 -0.19315129677812543 -0.2992545535968072 0.872239034156756
Ni -0.028120995189978782 4.917589842951017 5.654133968951619 0.29735399413998465 -1.000097423264342 -0.4173376084851845
Ni 7.828952210088029 8.98932664729801 2.404796077275274 0.21937706324387382 -0.22770306661106587 0.5142422295237337
P 8.678135485941077 1.5057300215711935 3.749089445369102 -0.052058668368452285 0.3770877598262022 -1.0541877773508426
P 1.8146617031597148 3.218261424355558 1.6293571395022264 0.32053686001435117 -0.17955196082713595 1.21469583417265
P 4.779788799725777 1.0240161943187853 8.448954365961516 0.8280525694475287 0.32855381678155676 -0.8080236758211117
P 8.525507173874137 1.548923289433181 12.647832732072091 -1.0944391686717216 0.3719411826282562 -0.22693199277299628
P 6.170085720357402 7.897879954348461 1.3776147964375263 0.6302753438616178 -0.7931799259400597 0.1709811884389894
P 1.9307481476467747 3.1931712172886684 6.072552417775935 -0.08965256746182625 -0.9109927578861859 0.2313110956772984
P 7.012018697676474 3.940913833177607 5.794567442220297 -0.16054148116290415 -0.6963228703099943 0.6648499965126937
P 2.3088525773260375 8.578119477879138 10.3230013679019 0.4058252369702108 -0.2929309253716245 -0.7217544230092215
