# total energy = -381165.52778765355 ev
CRYSTAL
PRIMVEC
9.26919388345467 0.00000000000000 0.00000000000000
0.00000000000000 9.26919388345467 0.00000000000000
0.00000000000000 0.00000000000000 13.56640219291700
PRIMCOORD
 96 1
Ni 6.8664520146650965 4.491777222840982 2.44298318954014 -0.0908905536339854 -0.544778707549694 -1.3929661000738847
Ni 8.704097518016148 1.5383710390720986 2.571687801037217 -1.7712465946566078 0.5644489322851117 -0.552994410591267
Ni 2.2811671635016904 4.096307064001152 8.561959990681952 -1.6202343931403773 -0.656119044397599 0.49657386570969325
Ni 7.43858374053477 5.649925927081021 9.20449217133668 0.5058087540443998 2.9263244600563088 -1.6229080833177985
Ni 7.855428660567254 8.519557136149462 1.087451635249362 2.069881769501861 -0.3534107279242365 -0.17217957962246475
Ni 3.967344768912941 6.154781843437992 1.0766595127616738 -0.35855216291585995 0.4683580653971095 -0.20869515804999542
Ni 5.525746536058469 9.409251445913487 10.108625104478762 0.34925531099496626 -2.607935499622896 -1.5698101750515545
Ni 2.741336295942879 2.925125873101584 11.134597884096552 0.7862047801738073 1.888849881695089 -0.7776036687683575
Ni 5.654755177116309 2.1016414155488063 10.887946487572561 0.7193985211825352 0.6696659298440982 1.0477083402740859
Ni 1.6207278271019094 1.9576722954948926 6.867244530745743 0.37802029894280054 -0.33097168219443 2.163322600361526
Ni 2.821867052769328 4.398492055172775 13.005092483800881 1.5502530788552336 0.35355882346632655 1.553045553998706
Ni 6.1248145394762155 6.5504930013198885 4.619509495895253 0.39376984846757346 0.46674726926656385 0.8699993461929597
Ni 1.6235271236674698 6.696723804691672 9.513575296627806 -0.1671746702087056 0.40518297540052156 0.2904135582664095
Ni 1.9993651297726742 3.424893001993347 1.537398700629293 0.7618939713425846 0.48314730789114213 -0.447474537079881
Ni 0.6769116209251359 7.128825817925852 4.855402139029689 2.4433193341699857 -0.2417924548245965 2.6264405004056184
Ni 1.8963380392885607 5.568801941843328 3.2507406057591886 1.1846226689363535 -0.7074063818176656 3.3105385465146466
Ni 7.802751831487522 7.838901687797737 6.044564639225715 0.032823988508556376 0.6656298121015117 -1.1291734868291134
Ni 3.857300898627076 2.994135021878392 7.214789249312152 -0.8243352684969416 0.47340591223366213 0.08845469049898315
Ni 2.2694972483492393 7.80911049852055 7.493605675677702 -1.372051975629037 0.6910737060959131 -0.929529897458425
Ni 2.5951981845103527 8.487467186778701 3.3867576843442473 1.3707859644324198 -0.1063832499529458 1.1562202065342602
Ni 2.8020680545440406 5.561655393326616 6.39689782337414 -2.6642681127763534 0.6637547065659859 -2.37053885987315
Ni 2.8128852038553287 1.2044390587049665 5.052873973342114 0.12290850130147865 -0.9560598254281534 -0.342548588398752
Ni 9.225165254549161 9.09869637262696 11.722402889975186 0.8614997933623808 0.1786980974672729 0.025627984980749408
Ni 4.807384006817013 5.304926529166608 3.3479169810374025 -1.5950440099176788 -0.13313403568422877 -1.2448872701543656
P 5.499440563697344 1.8237231740746567 8.252781392693391 -1.6789375634085408 0.08272138755963172 -0.23782755663957753
Ni 2.6162114471399063 7.6764961410256145 11.601892245908424 -0.5255008331566885 -0.19567432031029527 1.3964779698818852
P 1.8082065434430412 5.871209393669167 1.3077154905056814 -0.34092390831113545 0.2555080046384761 -3.4504188997837737
Ni 8.418013116693459 6.377418612339289 3.6003606968455615 -2.2898982661019467 -1.431764303888005 -1.1507134177834182
P 0.4942834737653211 4.723442186625907 4.986466687300249 0.0028693511279950586 0.27171675318785465 0.43918915714263723
P 4.601218595521677 3.0031261399863176 12.714174197845942 -0.22896419271167665 -0.05428215838233232 0.5689254799992266
P 5.360458269975454 5.862996887851001 9.237471963324309 -0.6297932620188766 -0.6494670862987203 0.6903334854957788
Ni 0.7801148260938376 0.07347597332960136 9.434890036311964 -0.8139030174200242 -0.9154927026390685 -1.7340188206534008
Ni 7.5232670962399295 6.377743034126688 12.83544491581461 0.574260776169211 1.5985504804090405 0.34303735510971245
Ni 0.47734680262428897 2.490131871362586 8.786375517897591 -0.5269517066706021 0.39392899975325707 1.075718966554399
Ni 5.517951143966959 0.9477658097085127 13.303146195239819 -0.7643642872599481 3.1630289588350364 -1.7902532176660972
Ni 6.122515779382643 1.9531952748287813 1.9326556680088312 2.0060785590029706 -0.9293324367356383 0.5241211792003425
Ni 8.548069176664903 3.6020551054951784 6.703973241260959 0.2382250491883123 -2.3856726301907947 1.23127173625346
Ni 6.8003533927809565 6.559641695724551 1.485263192474822 -1.5536304799678984 0.6125308753940031 1.2509895263973616
Ni 2.542669662533432 3.546337980807819 5.211845283764767 0.8000447713806931 0.8019913535841027 -0.822182740930313
Ni 4.48982142292266 3.6761159649614914 9.536108707061173 -0.34134145546452827 0.49504405932872814 -0.7059719633639842
Ni 0.8175892502160349 7.535687816100363 2.461976694813284 -1.1212861136612366 0.6144106089152194 -1.8060400481867092
Ni 0.0485761376870036 -0.016117274398000585 4.239528160105262 0.11646865921340586 0.2801664266171046 -0.25088953202985825
Ni 5.475183083193796 2.0972014716583978 6.006212422438755 1.6077336895702055 -1.2901569406254427 -0.23474300417698282
Ni 5.2801777813849995 3.2116644649266313 3.9765296131739136 1.1419431277899559 0.7626498756720027 0.16959176429063053
Ni 7.6647149955460545 3.8848304045863933 4.410355696478273 -0.5393997026259678 -1.7151474376701943 0.7086425682176117
Ni 6.948790264307055 8.513309699443543 3.8349371144425484 0.34313248592668 1.3657129207848868 -1.0007399419443475
Ni 2.7371651586763157 8.521689050752371 0.3735633459158387 -2.115626579837144 -1.634352320598998 -0.08420285720116466
Ni 4.751073653718407 4.917001494182296 5.644057600406663 1.3974508753181158 -1.1549094581426367 0.818179790418507
Ni 7.402424615030628 1.5209171469100127 8.986289784809436 2.0426298757644434 0.8771588400558765 0.9402195159617872
Ni 3.088022687151769 8.716981697572866 9.718563520294579 -0.011822960776857058 -2.213079874290311 -3.0208135296748297
Ni 0.5025052487774136 2.4524711364424827 5.044015404707326 -0.8069193870133394 -0.11239397492339998 -2.3568541632972053
Ni 0.30551726638791016 5.452890671802497 7.525323930372042 1.2913226787987697 -0.07391304523938239 0.4818242182043444
Ni 6.779849935817316 9.016052239585454 7.9410389356649835 -1.2726649544882662 -2.0469231038231586 -1.855553067315172
Ni 8.26830636559954 2.1194753446618457 11.236928858116846 -0.01633936058997186 -0.8056456625072383 0.3436276803955437
Ni 8.813900389259945 5.47644369356769 1.039761632501655 1.020015759454824 -0.8745771953716293 0.010518897253452852
Ni 5.734349745356263 5.116335509554393 13.51398142643492 -0.34670863331371254 -0.227495321475634 0.5904859797788218
P 0.8173426896576114 9.287639621608353 6.255427678002594 0.47594281972290287 -1.06887906081443 0.20775259163106802
Ni 8.195997383785183 1.1439019531762447 6.204296023550276 -0.9874450246076542 -0.1332600197391318 0.3777138234459753
P 9.007849002961214 3.163872501045742 0.5276460834620795 0.05134544435151157 2.46209121546085 3.0397502186783325
Ni 3.696100347065293 0.8458195072361353 1.465212072174756 1.9702101272411359 1.6138660277201884 1.928729491498846
P 3.5905613050273155 6.8955294760100045 4.701151629073393 0.22115061020452884 -0.341994772777811 0.1507185815352114
P 1.4986154663247873 1.1488702411204177 11.018944297646856 -0.2536246715728342 1.4962534847103262 0.9696758735496913
P 4.690935123528491 8.289106436768803 13.326873477850816 0.2139003564000187 -1.5988441003900593 -0.9599668737920435
Ni 5.754779048768497 4.298838951277615 11.405911824898643 1.05786188376832 1.3164971211818681 -0.8042827207214408
Ni 6.961618828700218 3.000577111656751 13.389401606234777 -1.3544409474154933 1.1135712615154822 -0.3218391237655425
Ni 8.127553655837843 4.494354058752325 11.779354671293447 0.8195576446026402 0.29752008740420377 -0.4536225589591478
Ni 1.694176919769126 1.2561518916164258 2.524585465184399 0.9916726895357567 1.156641353232079 2.09522487625234
Ni 3.463035734997587 5.939523352901548 8.31328790988216 2.400630022831575 1.4987525969830964 2.3423060902797017
Ni 8.777092420181006 7.487738275922736 8.059324973189579 0.0687384430169784 0.9633558448689346 0.8854786727754815
Ni 4.832308869283209 7.488674464509232 2.876660965741689 -0.6580836243231376 1.4123157082450903 0.2714403595980164
Ni 2.877510023905282 1.7203716618031437 9.141814808930516 -0.17390067607862955 0.09082550472400487 -1.0669399348101882
Ni 8.72173679405675 6.914596207915162 10.685549930527413 1.1663531812032044 -0.26810898123193827 0.8406946836915715
Ni 4.828591922519005 8.663183296028125 5.397176327873314 -0.08557222674486555 -1.4931483634224412 1.0495873024643536
Ni 4.1106650453920555 9.246373170251154 7.711211126116132 1.1370932558968223 1.0816736414759371 -0.3499615930333715
Ni 4.694262764147815 3.5353817935876455 1.6046745101419961 -2.0639106395200906 1.171107408058738 -1.3209986085966474
Ni 3.5743216772694955 0.759289728100976 11.261633113767612 1.5885311484998255 0.28528369323901187 3.077571146180848
Ni 4.885782849040551 0.9625779816017751 3.841747191219757 0.37046614074462647 -1.396479512543782 -1.5642743328349897
Ni 7.002097398573734 8.971726954232775 12.136937926881386 -0.5619292511870516 -0.9175344156594456 -0.51233112854395
Ni 3.904008366818659 5.741032834176689 11.244363678564648 -0.10211907535995317 0.22661034776751943 -0.8574289657271169
Ni 0.5267460447318943 7.565859042328504 13.408014147637576 0.2678027628454291 -0.855781659931681 0.12197879039835767
Ni 6.375138390633567 6.946046582905049 10.902028246984479 -1.6240313982889643 0.19695627234651242 -0.1490764179460981
Ni 8.399419113678514 1.2928949763378854 13.614291716179412 -0.03880437446170736 -2.228072233934085 -0.732988601162144
Ni 7.722656726775582 3.6849124299969773 9.566810131181866 1.3369708156551878 -2.3494925807258116 0.9350300013410476
Ni 1.3365899565036174 5.568653634740517 11.7862592938487 -0.66962530641415 0.5343017192777701 -0.1531726995026588
Ni 6.1075923771622715 6.5114233489230795 7.19369349085666 -1.0591219814276664 0.7746139900124143 0.8493456744983502
Ni 7.650264322215894 5.430709490738305 5.967344838469526 0.3673286235569093 1.7154662544621941 0.2789821765010163
Ni 6.1836090365469065 4.030681171007223 7.837080291191338 -0.17672529001161824 -0.10212370334564348 -1.3936075903126257
Ni 2.5831667707947994 1.7334041484626728 13.213241502596313 -0.18706935225010365 0.2023008244878774 0.4509835786744039
P 0.6400600866347456 9.439561710050516 1.1982045988705434 -0.39707448736077416 -1.9176032996786971 -1.5319038869240842
Ni 0.830770043978375 3.2485558567509023 12.40659731656774 0.05304057266574736 -0.5374428360099132 -0.8955414563281221
P 0.5898775976404188 4.850819449552825 9.889635763387227 -1.2150645303659784 -0.9825956669351531 -0.5151613989038935
Ni 5.800503982403956 8.953160758799605 1.4678435963302612 -0.39064390124408205 -1.0892717655381694 1.9477438278178199
P 7.84266498053157 8.65537863474269 9.827908493358446 -0.5626221634890182 0.4898401465302854 0.25097592109607747
P 3.4337914281620154 2.533131661983891 3.3122509766501085 -1.6053729026475125 -0.07663970014192607 -0.94642358788997
P 7.045783109545541 1.651983549019357 4.036276056460774 -0.004885353116759328 -0.23863282614969228 0.8896145493207259
Ni 9.403133777922529 3.8256836781465258 2.8801610133680318 -0.11037643027273894 0.3703681817141815 -0.38074438274218303
