# total energy = -340887.1799909679 ev
CRYSTAL
PRIMVEC
9.05660807704390 0.00000000000000 0.00000000000000

0.00000000000000 9.05660807704390 0.00000000000000

0.00000000000000 0.00000000000000 13.25526137673156

PRIMCOORD
 96 1
Ni 6.316748674425219 2.3124780845351047 11.366174479994132 2.040927805471672 -0.46654646610966743 -1.3468965594093318
Ni 4.703857338793514 0.6914204053841738 5.682397579290636 0.5934638314602231 -0.45771189853717303 1.8511019735223537
Ni 2.983074630926533 2.003258314348832 4.616065296903386 -0.14242548828848375 -1.2977375811861778 1.2761058618490153
Ni 3.5745979320408527 4.5885576611365595 4.860147224688267 0.45146926006157084 1.2382602517561514 -1.5066811078015534
Ni 3.6844002485841663 3.0235123860705366 2.652642473260242 1.738158553853387 0.17230170702262584 -1.309898642028744
Ni 5.190894552316262 4.944953302889486 2.468593177893623 0.1822315645418281 -0.774219582787473 -0.5865431930809899
Ni 5.545515098882577 3.1166777135434063 0.10724201343486832 0.07623860804876546 0.45791732967975973 2.1817365840923393
Ni 5.808500884744071 7.743581053354032 11.991213570685478 -0.6120853032161523 1.2456634861987579 0.8191172146311119
Ni 1.8190016226568393 6.7900741832921945 0.3431141259816662 1.1450937576037958 0.02274346434410277 -0.051890775332020314
Ni 0.5074390345782677 0.03442779001218687 0.5938897928095328 0.8691115442713678 0.9320341519375175 -1.031932565497068
Ni 8.483985934941424 -0.07262856295673473 6.328392755452911 -1.5012717638605242 0.9216558940269868 1.7883369744799913
Ni 9.002205050135125 2.4664766485818315 1.3650264626455582 -0.16389060014079518 -0.0444065511398332 -0.40648703892392574
Ni 7.037482603230355 1.1195507228748631 4.730604219480364 0.356622807103631 -0.07205388054345656 -0.7726272985996887
Ni 1.1880186800727723 7.839780344538714 2.7104354064966203 0.30207273977189264 -0.9841301013018083 -0.7356077839525461
Ni 8.062047620405261 3.9285845160405204 3.3525869581833936 0.29298671831022444 0.4939407989622203 0.9619566505285627
Ni 8.060200072353888 3.7699489686491736 12.57490833976251 -0.4290821506156223 0.0860180560330325 -0.3429617646767706
Ni 8.479403291245374 7.7879584330193445 8.690931241232915 -1.9812028788072138 -0.06639951047115661 0.05523115255916295
Ni 7.03743732018988 0.708816338212976 13.18962108590398 0.058326503655035035 0.18166926428045485 0.6243849465191118
Ni 1.484758444304188 6.7914145612902495 9.211810282224105 1.268462229260828 -0.45735657208028324 0.9479899039358255
Ni 0.256688726253067 5.112989609483403 1.0292409439343349 -0.22769535330158203 -1.0063917409134862 1.464609375442484
Ni 6.336736608490798 2.3584132007927496 6.740366989762998 1.3915339956130486 0.2698563029403481 0.3588175007621046
Ni 3.567479438078213 4.657261090144937 0.2945308575170543 0.18435529575305024 0.14942428820382006 -0.10088520295285205
Ni 6.2489871326587165 6.059233079853081 4.60387057410352 -0.3156581917658112 -0.48998824207237546 0.08591726878911009
Ni 5.635872877846008 3.283799302719732 9.076169462785868 0.033193456032833156 -0.7356666622149395 0.04638784323592011
P 0.35880288818456807 5.775091057481757 12.224651266976348 0.01974607227867567 -0.6709273130550252 -1.0068326851056468
P 4.1261000819835365 6.315127541576221 12.20164023712867 -0.7211301591616612 0.22699241369728648 0.28437043739612317
P 2.6541929645660995 8.620043358352032 1.1350855227401506 -0.40609700257435866 1.0167931387524682 0.3537341727019263
P 6.645476378448038 7.920311703719112 5.7288045448300275 -0.4356484909792303 1.1924323947887594 -0.5640059312104222
P 4.869547983890836 1.2000096291905016 12.499340001818153 0.05913948647463362 -1.8738019862230308 0.5747464575563779
P 4.352252642722822 5.982632288585897 7.90050671313705 -0.15769038486735423 1.5331256751463271 0.3146842578883161
P 4.971824259107238 1.3705274464024377 3.564670983907965 0.3915404449164225 -0.6508223147750339 -0.5588776088449213
P 0.46556490139040346 5.725171033662329 3.579212273865236 0.031095435853223868 0.616019605273552 -0.8506903614517026
Ni 0.8520773877023159 0.3140007535996027 4.580766261192463 1.6585620850759824 0.17280307213907656 0.09347476942139385
Ni 1.8907842984175045 6.81465381766192 4.862626018323857 1.0977281238356384 -0.3820186214689163 -1.0644346518898313
Ni 6.25392298407047 5.623094003824018 9.025044004428999 -0.25417874430409126 1.0472565974486479 0.783604880657115
Ni 8.655300733665717 2.346811685823104 10.12867683291616 -0.6367853770659936 0.2387287282976082 -0.018230664075413763
Ni 2.5638442422107626 5.241022878121875 6.9696431746342355 -1.0339169429169484 1.1001097366939376 0.23955739484649063
Ni 0.7842171289075784 0.5157801706337273 9.254876265037268 -1.7589875747835966 -0.3789574660450893 0.22621851164573947
Ni 1.6942740159730285 1.357984044190916 11.26710514970416 1.5900812665957649 0.18178676369492563 0.6023649906045948
Ni 4.363709251962948 7.407327308004299 1.6494981455515385 -0.12611826648802796 -3.9036480799592455 -0.1992057305023214
Ni 5.913466972564676 8.176188052226061 7.723628440060023 -1.3675096076739932 -0.377897143101375 0.0058292050872673805
Ni 5.442731653612858 3.1399622529555526 4.535526692436512 0.9905015520457908 1.1387613876278646 0.48722302062241246
Ni 1.1704126339361671 7.551046621863245 6.8952675919759825 -1.5006600984184542 -0.8414508451313057 0.6164060420786933
Ni 5.592518894895428 4.768358501645831 6.65960197009375 -1.5075028323719006 -0.9756950831605776 0.26978765448594183
Ni 0.9761031072587669 7.768486725615177 11.436519872050129 -0.5191486656864156 0.5690378372073748 0.09821614076112117
Ni 4.997436346799788 0.6980398802407811 10.119716224867002 -0.5933453036044878 -1.2248882013246194 0.6844106922534405
Ni 8.407729294781848 7.585787770515518 4.454854955830641 -0.06001468999073535 -1.3780750418946655 -0.1817980765488353
Ni 7.273126489253158 6.171906341162498 6.931441496028878 1.1029814018147779 2.0263311386044203 0.1699514616228944
Ni 2.651249566935237 5.437035047121127 2.515385049277052 -1.0489422126811871 0.8030635036023589 -0.08537116647765297
Ni 2.2386757851692627 5.4585535479547564 11.231010943802499 1.898424412757401 1.071402341456916 1.255398968318967
Ni 1.5587962154804986 3.4809254345146656 3.499495103752574 -2.5856666609223664 0.368471736022417 0.6512833135718525
Ni 2.012686243375687 1.1774315052097626 2.433149236453182 -0.7127475915249208 0.20048973942106763 -0.0719957736120115
Ni 1.4421561598254886 3.4196393675360603 8.101854129965044 -0.24033463933214735 -0.6044218731336236 -0.6326384447771556
Ni 3.960563399223829 3.214570590441846 6.68706703980253 -1.2688882610546535 -1.790891879691361 1.3289366324968017
Ni 4.302414128376248 7.141696992579077 5.951758311590173 0.0524805863972193 -0.13273242937043592 -0.7348729626690506
Ni 8.243786575046855 7.188827581105257 0.1297884392872751 0.1872830109228065 0.18795072641379243 -0.4231233619290261
P 0.07491988480476 5.813056358615837 8.05568625887936 0.9483791689544441 0.24991225571825346 -0.29200455690261323
P 8.56518748312085 1.9338394133009518 7.797367343169199 -0.11847849055458304 -0.365558419030364 0.10606726137442378
P 2.3952464259149586 3.3307668723002024 10.335525233501032 -2.204431968807326 -0.5668598557194495 -0.2092895971008847
P 4.2512714624640005 6.382544932235114 3.7022209363326226 -0.6703940662593745 1.4857381870012993 0.5602719180892867
P 7.293902348223001 4.0755098691650815 10.472504619615707 0.0675145979122063 1.1702712853106878 -1.2514700655782058
P 6.376766816270528 7.90083093970685 9.846100698084452 0.896958905500939 0.29633455173653483 -0.11577446135985868
P 2.628526537224978 8.79377627143768 5.931040414912138 1.1370940272277708 0.1519002605481384 -1.4018829429475406
P 6.993856922036924 4.2476759890503 1.3479801148892216 1.2296606830125985 -0.6995771155812338 0.6065196362029167
Ni 2.980031610606626 1.9912492520149132 0.26072435082018186 1.13870790868211 -2.3963324238974857 0.5462300952842398
Ni 1.455252015130803 1.0245469039587163 7.212121177125498 0.9292357632567739 0.46434328781076156 -1.6469296430433764
Ni 6.953301430987687 0.9025607325452506 8.768660485868732 0.45751906580007656 0.8761085444144912 0.11200470990478129
Ni 2.9988331290117665 1.6026392552682076 9.09536313232152 -1.138848290914716 0.4708337806311117 0.05004883702727509
Ni 6.613742023683293 2.259669002733384 2.3547045197778633 -0.2018151431007105 -0.4369610391430668 -0.3199095108429974
Ni 4.341031505293165 7.045081097422027 9.92377650873251 -0.6092797154465571 0.28300878116190614 0.766141433765029
Ni 7.525670005981162 6.511375182385943 11.127752026607794 1.4547093427199527 -1.6294366284649358 -0.6049330084420873
Ni 7.9604143643636025 4.121626117584626 8.23707110014444 -0.4737293570113518 -1.9045788623945714 -0.3207741728361379
Ni 3.374329157236968 8.453745920512349 12.175501054844993 0.07984766555626248 0.24194183591826718 0.281322908819051
Ni 0.6239414297902341 4.509384793170405 10.017571270467979 -1.9843843618589887 0.8929024760433784 0.4233843288998967
Ni 9.064668476166075 2.4677536303232204 5.715165293039016 -0.7983604416997347 0.957898164188473 -0.40362180156098876
Ni 4.0198841822458276 2.9125327104748777 11.557978043211659 -0.9213633024872325 0.5162073236699045 -0.9233823897997904
Ni 1.491107126578756 3.4329344682194636 12.590086309268859 -1.3764511331379972 1.0612886500616818 -1.478063958285493
Ni 3.12409507557318 8.006412876877912 8.013918993667016 1.452187090518731 1.0670288949795688 -0.009664776783273677
Ni 5.95711982358239 8.223925433494603 3.6047944747510736 0.0868076418138634 0.04029715695714995 -0.7214967984724607
Ni 3.604448512321846 8.777103055934855 3.773706555347773 -1.445734135804536 -1.5731958036943356 -0.4046024203067032
Ni 3.7232168708791717 4.653258069366964 9.483158940000488 0.5976647569154481 0.32582073412110985 -0.722355032707698
Ni 5.45507581044629 4.772977371774261 11.391518492087075 -0.4519603407653765 -0.34625431938511336 -1.9719186252918104
Ni 8.134201617097819 9.011841281148165 2.4605608721742023 -0.38781877309046114 0.790972890986412 0.4496466050305353
Ni 4.858200053947849 0.4289997518678056 1.5217574053545344 0.7436077714388871 2.956568089432199 -0.858075083951548
Ni 6.025071554118886 5.648841940637993 0.06937905197226252 0.5522760443680037 1.8271236083298854 1.900690325973443
Ni 7.914071700741683 9.118736426492996 10.881203984438656 0.182771239095382 -0.02323994436454707 0.6763603111451384
Ni 0.06303127535850396 5.253584393549587 5.870635555901173 2.2913869348323312 -0.7889111233613768 -0.6535320003967132
Ni 7.461096390264086 6.155187842619199 2.5829736098289406 0.33869579031156505 0.7684166029524508 -1.4708381299610154
P -0.14049244439471018 1.8650816446440037 3.5203986608965554 -0.9659811983069234 -0.5434242504043286 -0.935700287935195
P 1.9318197896957754 3.477791848113809 1.4172522988859635 0.6891883161477421 0.660539799173114 -0.39920978853622213
P 4.718429421218308 1.5358014875273913 8.004706611912821 2.1638450485238994 -0.7866956037672967 -1.4039398254765691
P 8.962247295220156 1.6985668482100404 12.226255192269967 -1.7029706930983446 -0.7009459709043024 2.0484120296638597
P 6.672211485544365 7.927529820370796 1.225499452673771 -2.0483114995302527 0.27106806386026217 0.9157189597172617
P 1.8691118352462617 3.545933767420299 5.667101873879055 0.5941012079339059 0.5348105405933886 2.290929021359306
P 7.26248497474158 4.361680571749677 5.482773634983112 -0.26703271744862395 -1.9898754668805472 -0.3076993419300507
P 2.4637324963290577 8.716795102630506 10.090395456159564 1.979999602527732 -1.4336926312589695 0.17591616384676156
