# total energy = -340875.79711085913 ev
CRYSTAL
PRIMVEC
9.19510701051175 0.00000000000000 0.00000000000000

0.00000000000000 9.19510701051175 0.00000000000000

0.00000000000000 0.00000000000000 13.45796856554338

PRIMCOORD
 96 1
Ni 4.23375828656815 9.116810663714439 11.60997381466646 -0.361217625563165 0.7640148743403293 0.4844714260192043
Ni 5.887341963666399 4.5779495317853325 1.6130590015286528 1.6015519862395258 0.5018310003435744 -1.212572360071744
Ni 7.08751491460363 6.823219954107864 4.166896985529673 -2.1683318806506593 1.2794117862937966 1.4279143340142957
Ni 0.6232425134262565 3.895617421756846 5.245323961257214 -0.3733450049543183 0.767201242488111 -0.5853674276053338
Ni 4.250171552562824 4.001241615863754 11.353653770471636 -0.6962292821549235 -0.3505521754295189 -1.1151008107861313
Ni 0.30230661332231273 3.906964183794621 13.03443289603255 -0.3467785673196995 -0.35124380217990475 -0.06204097639214477
Ni 3.5945236430478094 6.89308437709248 12.040118161585843 -0.8661748302405469 -0.6814729497813554 0.15756465792276736
Ni 5.3630277674297835 8.611695850893444 3.122329152307561 0.8590035093030884 -0.6168467291605376 -0.6835899961243582
Ni 4.361708200470615 9.365492332524513 8.342136691640281 1.206398112940232 -2.1115722072621117 0.6121670642966811
Ni 1.1845780494655391 1.596344136024384 3.9576117526603185 -2.71297997615976 0.5921168305140254 -0.9275743163939509
Ni 9.019645968047362 5.017622768088624 7.420347444143938 1.6639606303837342 0.5026344700814763 -0.6387322163797193
Ni 7.629915886308887 4.0648993416234935 3.711990215459783 -0.5924528736972055 -2.636012974585402 0.4300265168067626
Ni 1.4434295066174125 5.444707902909165 3.022726833774834 0.7984306328160378 -0.18770750005473477 0.11925393526802687
Ni 5.851609777865107 4.967288752371621 4.953986191074984 -1.2965044801100252 0.9492839401569007 0.5904299297299057
Ni 1.855876031094244 1.369372114840879 8.956008471523024 -0.7018116613387074 -0.9058749770436464 -1.1952631793693351
Ni 0.6124750431294697 9.164625220113493 5.933954719580576 -1.0260442250370911 0.3335422711350836 -0.172293993713142
Ni 0.4622113630705458 7.23846179111264 4.403972590284578 -0.12372971165119336 -0.7042899476758709 -0.0031267185544397763
Ni 5.610753145111877 6.104806244212093 12.872896934302549 0.4423842670411672 -0.08667934376611523 -0.8990263295529292
Ni 6.567136224162936 1.5829560602326491 7.414263961352858 -0.5435584619893478 -0.788115624043275 0.19826830628971662
Ni 7.417665231432091 -0.43763652010283244 5.397695159840497 -0.9790593716471203 1.7538433115784957 1.0887971398945957
Ni 2.7483071409615687 4.226328640112296 6.6506186006142824 -0.3581307591077251 -0.08635667031937386 0.42877181846405515
Ni 0.519098731546319 3.0076091583564333 10.30885789859593 -0.0352577947610296 0.8849109731974696 -0.2641847064768676
Ni 5.5893929115513 2.923850928695092 9.837169138740672 -0.2246992467877356 -1.2713652618402362 -1.4004464676113302
Ni 7.370328820597028 3.4421791102748265 6.220003464216511 -0.02006720306352028 1.3463733399160103 -1.8138600584517597
P 3.546074624265769 5.960176406211957 10.055323052311351 -0.5592560752302627 -0.8597936093045516 1.2944293427485514
P 0.9936508477213205 3.3201232599592436 8.037811752331509 0.7315773226369142 0.40486492993947043 0.4361760813479262
P 3.7779568325871766 6.017130898968828 6.0743750375961945 -0.11988308421159354 -0.38744416335986176 -0.41115384827197576
P 3.859241578465567 1.3616298347470324 9.985072434832741 -0.06396981798374145 1.419855468265561 0.8173410965672956
P 2.348154474543494 6.262180500513976 0.7939368017280758 1.8198489290453432 -0.8731319782846705 0.4262660213230659
P 5.005062251926873 0.3964470382971482 6.267146777804577 0.2617591277545105 0.8403573549568107 -1.5704002432270694
P 6.587871190447525 6.7671941671579745 2.042166140378454 -0.6255260021020905 0.4650318292373539 -0.28182890192119203
P 5.3079122960728755 3.534599130729996 3.3153574360012383 -0.369011410575971 -0.3450587564151154 1.692312699163866
Ni 1.7235584413668643 6.629258367053706 6.595320146628077 -0.5903152585289123 0.027559654785823503 -0.13795022612594954
Ni 6.292836987251368 0.5335911396887321 0.168339421399166 0.17823092802286725 -3.0910236721413282 0.9100195953396393
Ni 8.062141085942326 8.119334651481193 12.591208509405929 0.11050215721732581 0.4385265838579738 1.0026746970732152
Ni 3.6652432109834088 5.090834210021174 2.3227373597745973 -0.3859400680105095 -0.4890593025002029 1.3362840740008084
Ni 3.6776566054331625 2.5981510436545427 2.0835625120916346 -0.7689264527093338 -0.2809886654080838 -0.17874900530986634
Ni 2.349064790136476 0.4990000666661171 2.3468947448845188 0.26302950982650186 -0.25973284135310104 -0.6624964086788526
Ni 8.538962554524883 0.3257909165998476 8.13871977605821 0.011861013103644088 -0.36343263093661277 0.5972135283106424
Ni 7.539242936183682 3.343157002993788 11.317384590421556 0.37281381504119665 1.6226846544530829 0.2019555253333167
Ni 4.505197845202773 3.0205926494401765 5.3488829343319635 -0.2541507192796333 -0.019865371465359338 -0.11228598859062597
Ni 3.9195614803843717 4.519293944233494 0.09141867330288943 -1.0120751644515087 0.3327771108342849 0.6545455292628921
Ni 4.5428885887950265 1.9858396734296697 12.92937971807033 -0.9435475518937556 1.0152772163285742 0.8579460145728515
Ni 9.133481392705109 2.099509586161419 6.652435553757447 0.523508228206692 -0.895225210639284 0.9859712682756053
Ni 5.138198206177236 7.597236476031535 9.859698070400924 0.6180158097679743 -0.37059700989553596 0.4823628643166338
Ni 5.4039551886859725 7.347736442698476 6.106902728608051 -0.05633518425661911 1.284831157537155 0.011568421563889755
Ni 2.213243864642166 1.7766325989698133 11.553127824172186 0.6117140359196627 -0.7730373895539138 -0.32436908927624786
Ni 2.709439423673339 3.5457436004137755 9.308957136646834 1.3894897114895102 0.6550767191760137 0.6732636744976856
Ni 5.9786401810675915 1.7635295714950727 2.175871271752106 -1.3752324302395478 0.3960763851135631 -1.5593393574272176
Ni 2.0680531251150414 4.8552647637928406 11.66205673973483 0.14587796561345842 -0.1756793652456071 0.5507845474241417
Ni 0.9752422435076851 7.5825426950458255 1.7459825488073202 -1.4291479493110806 0.643126488792673 1.083407079227276
Ni 6.746238518305389 5.787400345685378 7.3060219202831025 -0.18689426012482005 -0.6522942713348702 0.06181806174806127
Ni 3.684837984000021 6.971537030014927 3.8740778836097727 -0.46702649106987953 0.39753908570201857 1.093486317840149
Ni 8.430497072355031 5.8481983931681745 2.8023660945241984 1.5787424445441778 0.46226866466992006 -2.9259436796781224
Ni 4.59424326138901 5.123669937117524 8.322892252200363 -0.6129389094656993 -0.7665844348397185 -0.4320895699833784
Ni 7.4724864593650056 2.4101570810432658 0.07688120913617734 0.21463646323509486 1.5004492679592287 0.5914380592794459
P 2.292036736523605 3.559554651127502 3.902528464177909 1.0440257492161762 0.14802895051819023 -0.07702279451295767
P 8.07156607061714 1.6059162424111944 10.032242414231108 -0.3699195242125371 0.28405547725886565 -1.391031087834701
P 4.383638530665181 0.36161137542833816 1.2158175059867202 0.4151781389400204 0.4341595651385297 0.9394674682871109
P 9.058881489615587 5.307259443475888 11.131287578384342 -0.20666861453826987 -1.8959548681709866 0.3669596702532648
P 1.3042155866401695 8.362600402268376 8.06451250403758 -0.6212993656152526 -0.38142443952834315 0.8186325616852095
P 5.935184105386452 3.6546412526126186 7.693745560569523 -0.7922389021830292 -0.7324970062377063 0.3163665306867455
P 2.400336706767461 2.9782399865990152 -0.13787327337666938 0.3429555940291836 1.0779895077561303 0.3552737492749043
P 8.349607716077633 3.8431409461088855 1.5048831652292953 -0.025911577659439248 1.3981077921758245 0.033434882619677905
Ni 7.559435391155283 8.726662273712165 10.182944700893923 -0.9010994100318739 -0.32808921844031236 0.5678530728706542
Ni 8.492803117385797 7.3823928009807895 6.825733896361615 0.28000856088300163 -0.6287897604550268 0.8995472350534056
Ni 4.564018944680608 7.09757436166143 1.2777033346275946 -0.3412442677650317 0.5678322469350479 0.2484428702615786
Ni 6.329185245221648 1.2582676369620795 11.516939561063705 0.16477120297353556 -0.10358511838251837 -1.4052168924167798
Ni 2.324477074018963 8.447894214798687 10.190468137441174 0.7540590486791982 0.04143127056159316 -0.8429320576625225
Ni 2.3039076196603703 1.9868051596646505 5.769525057677733 0.6022441487560145 0.9447089191917084 2.0599750519111106
Ni 5.957997165853 5.2600609592458225 10.30432195231292 -0.7910281697043796 -0.24791245167940532 1.1350597704065613
Ni 0.9879039058464343 1.376608664049736 0.3953564986069698 0.6423585002783969 -0.609775167025737 0.04190126821947623
Ni 0.6738533018639541 6.480766584113646 12.931519419469188 0.5735436954975284 0.19091417991749055 0.7713705433744522
Ni 3.7833635555030694 0.9320896063575397 4.224738806112028 -0.33544077370937714 -0.9271657681016225 0.6786439649729925
Ni 8.875319568578222 1.1817919320445942 11.972800783240174 -0.17360654187697844 -0.47932433460062607 -0.4796287532149224
Ni 6.073386563593715 1.3364904122095305 4.325646829838729 0.7092274941868043 0.6076000137512891 2.2644448590258484
Ni 3.9382183524870022 2.241068258423615 7.6906909460241835 0.8838447367164842 1.4383753814466196 -0.6894839930112899
Ni 8.107141939599435 8.770789592204292 3.224677129790434 0.25711545833491206 0.2450672689211263 -1.3248334089617055
Ni 7.72215200462406 4.059134009534607 8.96125795810922 -0.48961491789335676 -1.2998104045548067 0.6084649328547457
Ni 2.7659985268292187 8.989789455618954 6.676579146206868 1.6137300163629562 0.15272172800816924 -1.29185464004284
Ni 1.38499460163357 5.547582760023129 9.47520375169284 -0.4694458991446496 0.3752949295918375 -1.291111591229228
Ni 8.208784652375423 1.9018423709863332 2.4767241386577474 1.3543203626772289 -0.30984004242213736 0.46847325081873514
Ni 7.684038286109815 5.901189794808125 13.786881374977447 0.7877422998642563 -0.43213302162680417 0.7615571568284563
Ni 0.2989412041603794 7.324196968778942 10.820179408641804 -0.042043450224295335 0.7405170483287052 -1.6504967915693445
Ni 2.753667888342463 8.480941429356033 0.39679921089524123 -1.021525511231131 -0.2802605289928077 -2.0333787894798205
Ni 1.1693325620598412 3.1323315897019635 2.0224095334786454 0.6377310288087146 0.1977666840629497 -0.44465686512542774
Ni 3.4410573072208486 7.0936940265075075 8.229332038477216 -1.0199522532067402 0.7678784710607935 -0.8675097470018865
Ni 7.667395142440145 6.428207352502687 9.605329227911463 1.3780359611266138 -0.41558848700456164 -0.9055561602516469
P 6.066343111631854 7.985978014662836 11.867667607847057 -0.1303356470034852 0.4716663038347361 -0.09249337934473104
P 6.655547177966184 7.823564839725052 8.25684012057787 0.44502478998780776 0.7553291736408734 -0.78311508550489
P 1.230581169785628 8.733062068184038 12.083573317756281 0.7091261927222497 0.9407195955266573 1.0296563678683817
P 8.570685673674255 0.12374223293934924 1.1150326966938164 -0.7089297604407275 -0.568386319666305 -0.11608016552573558
P 5.93981843931436 3.9481582631538052 12.690770369467856 0.43042863734118775 -0.5839754323538136 0.242661230582795
P 8.292414150538766 5.60304764544603 5.422982623600697 0.20202443089803915 -0.7714543613375101 0.24485900956506218
P 8.166763013386253 1.7242480743918507 4.7503531904784175 0.4664153398484419 -0.3142317437319298 -0.5577445236817427
P 1.9488845383974016 8.771359688838281 4.3165491909731095 1.5896074122831398 -0.6703925235974777 -0.3380427301085985
