# total energy = -340860.12426995987 ev
CRYSTAL
PRIMVEC
9.33726567422461 0.00000000000000 0.00000000000000

0.00000000000000 9.33726567422461 0.00000000000000

0.00000000000000 0.00000000000000 13.66603213950782

PRIMCOORD
 96 1
Ni 1.885763516875857 6.236938667660742 9.235230855920166 0.568800267275272 -0.4345976811172128 0.32297118048745665
Ni 8.59985513604402 0.012285974200490454 8.473582623427868 0.38537313976344595 0.273442991850342 -0.7461104832560828
Ni 3.546797723022573 7.552335309603509 13.286621886872412 -1.3229338779461473 1.5267498535269708 -0.1795668732254714
Ni 6.4479888841478115 2.84616665438904 3.231278443041988 0.1077544192688596 -0.41684498511948204 -1.953704159166313
Ni 6.2927288301838695 4.7917633698336335 13.31506133072395 -0.37181108480829517 1.645664403177708 -0.1627498016681326
Ni 4.393370254457189 5.629334777138995 4.702740944978111 0.36412297213541805 -1.3566132724764637 -0.5451582023762999
Ni 0.4490580527599996 5.364669981035559 11.161266933461881 0.5784712147061327 -0.851868955140836 0.08268513500505759
Ni 5.019172475817023 6.213278036391521 8.24855732137622 -0.8860096055782869 -0.30495031843000386 -0.26934748162472966
Ni 1.8653149050054558 4.219136876602536 7.979897109282214 0.2830432339442674 -0.1661490571576687 -1.8737572490280243
Ni 5.978735259417725 2.004851003540286 12.605042575161423 -0.6575935720605964 0.11395874830735858 0.45349477513203185
Ni 4.017339890418466 3.1555009295737557 8.834679898441781 0.48516048166642894 0.7818182210703374 0.28707138126705395
Ni 7.734113198139114 0.2941518811658693 13.093808284012777 -0.17280127236686368 1.9353146009155315 -0.002768563884072651
Ni 9.073487938384709 4.053344386935483 6.467190037321462 -1.182512821682202 1.5065286413840895 -0.08513745320029208
Ni 4.185681453620048 4.480561641510069 6.824392738814304 -0.1146776287512541 -1.0670070406026977 -0.930163931497998
Ni 3.3956273914327104 8.175196292269657 9.046803900483688 1.236680051753225 -0.5571799094275243 -1.3670843472111165
Ni 8.116726334492283 5.972638024919382 1.5921475947608377 0.0037661519106515777 -2.0956071992924232 0.3163606171494745
Ni 9.27181146173052 2.632660737024384 8.721811964456291 -0.7191180138276388 -0.5198102105298145 -0.6322545790751757
Ni 4.771417467885869 0.13845764434714447 4.587386497138242 -1.0031174410375885 -0.7005525921206257 2.8535905227266922
Ni 4.3814745779627176 8.368496366671963 2.248759058005411 0.013804252872943967 0.26915259200510416 -0.18548658114401603
Ni 3.0198304590363443 8.248988703051293 6.364544541818033 0.4769532632652882 2.311287016190368 -0.40365085502671133
Ni 6.123238783301894 3.730256319383142 8.082269022900801 1.5744751846273917 1.0877568715555397 -0.13390510952229845
Ni 6.712336213217644 3.968814120605463 5.090952705841549 -0.8018208894445095 0.9154970735144428 2.073027514219694
Ni 1.6577474886223407 8.250361281108347 1.8612998807569294 -0.4011399156793995 1.3119467828070244 -0.9722947992297772
Ni 2.519978614626209 6.091940268694779 11.649909390406071 1.2896632888184756 -0.1573054907241097 0.4572151614064126
P 9.202006063400328 4.644001140222172 13.324900941312547 -1.831419921712394 1.1294869043044742 0.5508321128326255
P 0.17595516964867178 5.437752759624431 4.358548789503633 1.433951284236995 0.7569836785251608 1.6355951918671638
P 1.298421492910626 7.526312350113643 13.143224828973011 0.979185098591707 -0.3639077708008184 0.5470829302028385
P 9.303530153293877 0.1247430684954342 0.8176690254780736 0.0024155514200280975 -0.6193304148143398 0.6446727502338704
P 2.9588954631156867 2.274287142413483 7.07922352668856 0.6889844276670521 0.4964347690286676 0.4199493350764187
P 7.347438351208949 5.640362087923901 7.120905080747679 -0.13687781899737717 -0.7445009726771178 -0.40976725233709427
P 6.383403017340704 7.257380423587935 2.1038997842982905 1.1817044668482939 1.1266725747841306 -0.3769520055792863
P 3.895908750064781 0.47128821492486334 0.6749844009511435 0.3902716055063279 0.5522822150155908 -0.4902720918613815
Ni 6.154920125802476 1.0554471650149255 1.4666108586813924 -0.003142659394039749 0.8444320392468166 0.5018040037603809
Ni 1.6764126827451409 3.893453049187194 12.64263814175274 0.028957563574614643 -0.4005236222516393 -0.9315991212826279
Ni 6.052705078247551 1.206944300904086 8.643547003407111 0.19330324897495743 -0.7874257970651019 1.2061291755495616
Ni 5.6321733059100465 6.572706742025872 10.41575816472209 -1.6583965060323953 0.32886672003628525 0.9507409843184013
Ni 2.6646315347614866 1.1613504325190773 5.079144799644604 1.2954660115431818 0.6429100019064927 -0.2908097652635637
Ni 2.3469497440461144 6.1806256182587385 2.4135851406731095 0.08549380809844631 0.7895806386245756 2.6562239023156384
Ni 8.209062554942692 6.889669563282786 13.185971765047846 1.1025358296369272 0.4537097193563153 -0.8996133124046507
Ni 9.067614798263028 5.0090788916015425 8.791030048774314 -1.2628302277860315 0.8604996342326406 0.18035183102061197
Ni 6.584910548288253 8.02687382671654 4.192957051049006 -0.15992724461767296 1.3729374635577838 -2.1571072155794337
Ni 3.5570126916920795 2.256695733845521 11.819997022292478 0.5103012425981147 0.4400833868221324 -0.7528007507920648
Ni 5.978333756992872 5.42475528577804 2.9665809665086216 0.3723399607285716 -1.7577940686961275 -0.30759007004569605
Ni 7.884209744174139 3.289061178064267 12.127442368627248 0.42459017628253976 2.2652946086206533 -0.37110146033578023
Ni 2.682661794817078 2.597328523637353 0.5602919652489969 0.573486874117664 -1.8234343324037565 1.8482740171552559
Ni 0.9930182065831888 2.215042191583484 6.261406972412517 -1.237817507791778 -0.6825178461061019 0.1051635186132318
Ni 1.940722662752196 3.0120338421816473 9.90049329583046 -0.912298364071487 1.0298661698863425 2.32015757920712
Ni 6.078681351408947 8.500254522883484 0.15655700016887325 -2.0902832159763483 -1.1701303888574495 0.5514152390296052
Ni 4.505949666932727 8.40698457586365 11.316772557513582 -0.1555859369298417 -0.15300429224559456 0.11135730612876951
Ni 4.744442107295189 6.432787815597577 0.9641361763377434 0.7776854298488864 -3.0510754138831646 0.5922595267394768
Ni 5.050611049409554 3.4697746183107276 1.6044466411333 -1.066049818895751 0.78403091245094 -1.5767863492590717
Ni 1.9804340537498295 6.768583901759789 4.867786453389624 -0.6200528948026611 -0.12911848676693247 -0.8430081623160965
Ni 7.4339854669289265 8.629108789464096 6.3703112371107995 -1.3494684339015661 0.717472764914732 0.8533105726833692
Ni 3.966237035273851 4.236709610639109 13.083367353513472 0.6127519902658738 0.9971388548566504 0.026714790287024958
Ni 8.623198300279638 1.230698304830251 2.580174099103882 -1.0840400848255847 1.2687764180671375 -0.8262851931344608
Ni 4.193795537508349 1.397312473878398 2.9016953734727284 -1.0015236141879074 1.0957961969202483 -1.4473917260126168
P 8.348794736057101 4.210985443651459 3.0949459603668545 -2.782959747783007 -0.6341206857496369 -1.4553978841465451
P 6.122463790249272 6.807100122748559 12.583682646159263 -0.8590672726614883 -0.334400762480637 -1.1422426613082457
P 0.2031116731938203 9.156169426107267 6.286374820878935 0.284278134792633 0.9520687019908893 0.31349692244843425
P 5.341532236645214 0.9335342217514176 10.882384282885814 0.2535940754452149 0.666826146402458 -1.171463505846576
P 6.5645459718091 0.7218733480879447 3.7817877550231227 1.0885081478992673 1.2365532963673738 -1.7258126306935244
P 7.835777347018078 2.1922125769610497 7.054597422146553 -0.2709389944815656 -0.2476509704879025 0.41300581387905
P 7.2988472205360875 3.754402488468465 9.873093089650693 1.2002907144909134 -0.01679933094552591 0.9434159114118978
P 2.85038709848284 4.851521870276816 1.098308949457798 1.19449313397253 -2.556337572940946 -1.4172465698878043
Ni 1.8534939266365387 0.5136177752231635 7.863256919956248 -0.6871689717248681 0.09089672428157249 -0.7581522449119652
Ni 7.528450583957626 9.028762435709265 10.53466544215862 -1.829926882106636 -4.675633631209877 -0.13151115536882513
Ni 0.6905048039881212 3.2954945541276035 4.021899277256967 -0.2981392090454414 -1.6363148436420076 -0.3433602856667699
Ni 1.9954110279234019 8.243199598320858 10.719198757800594 0.5168858377941679 -1.1089345340744192 0.6561771513290441
Ni 5.418788772999415 4.258549475097953 11.246310749405083 0.5422662255404854 -0.7577154144848628 -1.3517713710031298
Ni 8.007013462584878 1.6290634084096134 10.748757739808873 0.809959973611876 2.7987918297192573 -1.066707249974092
Ni 7.83389121934784 2.0145524225966085 4.841082807230647 2.3717897015611156 -1.053079374778012 1.7933765937864274
Ni 3.178713372089654 1.193265206662014 9.58033993088582 1.85594901720201 -1.7640259085384524 1.0802050273502106
Ni 9.293922106894495 2.307527808285003 0.2575759439883642 1.8466058854242133 -0.6737293012801945 -0.4394485814516109
Ni 0.6530483626556486 0.3626127132360897 4.17016198430964 -0.16479948510830972 -1.1633719870876933 1.1251427684031654
Ni 3.037608612918191 3.4678511415777127 3.0689668860257506 -0.2601151643931843 0.18614966864931168 -1.14129135313857
Ni 2.416475024405479 4.422595896080183 5.069632927081875 -0.7561850938832654 -0.380476473792777 1.7934187598782725
Ni 7.308996828345734 3.203970675792593 0.6574929011261104 -0.3019788945065057 -1.0056900868607712 3.13322010300372
Ni 7.172476666630145 7.0415775388624935 8.696420204127355 1.4227574724037044 1.0850230175641442 -0.08503640884605355
Ni 1.1457385242782958 7.5881717353380305 7.419043040638423 -1.6086639146939588 -1.18338031188882 0.7519443163290406
Ni 8.61357157934887 8.03986196329724 2.510764600839126 -0.15554968437526762 0.7460894002101602 0.34088328488118713
Ni 6.989989145901779 6.173445260939862 4.978002603917949 0.5178919104611791 -2.0873393028566762 2.331338021303972
Ni 5.660063718538763 2.0395576201258026 6.530832840293451 -1.0238215063541594 -0.19932194436521153 -2.1007062110818855
Ni 5.078986999854371 7.358092171366086 6.068196535760877 2.1509273120209667 -0.12801779750358597 0.4990218130295535
Ni 0.9129623579738522 0.7494117457999879 10.092692506607413 -0.4725186245327024 1.160973919169162 -0.9244537684870981
Ni 8.929105798954565 7.321387379922 5.22448307508184 1.1212058952426045 0.3898969957757285 -0.6509470132783564
Ni 7.678892608823337 5.811934345055693 10.948145711443829 -1.2044836695263386 -0.2088998178616338 -0.3167627376838996
Ni 0.19092280655655003 8.941468338733747 11.997109079160667 -0.5137542341437217 -0.5006274669537765 0.17322396172657908
Ni 2.501621550271319 0.33700619579618624 12.517224657580458 -0.12697187273757488 0.2813923286044057 1.0891138998040664
P 0.8231957530424986 1.8425226394457983 11.905137012072334 0.5282349442583999 0.7630118869971118 0.11092587501830573
P 4.551496848989265 3.392125916797368 4.701415986976098 0.40197655264808185 -0.6875623505085449 0.02040581734986163
P 2.8409471228659564 6.17502325884219 6.909135894802153 -0.313698239825963 -0.9179892438086771 0.7869897379689478
P 3.7745616451023447 5.13190128454367 10.09690174598238 -0.07332914771145436 -0.11749092983033313 -0.6897889258462185
P 4.773163536570693 8.913988765795578 7.564558724123849 1.2128613520670726 0.7296078576153693 0.15004546672758676
P 3.9055261337298557 7.554520229775964 4.1609927893978895 -1.0895047074845816 0.648656931692599 -0.17084594841270578
P 0.07748249818400205 7.3556084586914166 10.153902951866051 -1.212544592157602 -0.03080284431346953 -0.7907780013667866
P 1.6897743099536084 1.4893872508893697 2.6574689182474294 0.8674009893381642 1.0126523771112175 -0.055852845303561875
