# total energy = -381171.5800258276 ev
CRYSTAL
PRIMVEC
9.21608044882457 0.00000000000000 0.00000000000000

0.00000000000000 9.21608044882457 0.00000000000000

0.00000000000000 0.00000000000000 13.48866531254022

PRIMCOORD
 96 1
Ni 5.501327230478504 5.669603642671799 2.926743282715096 0.3852024185135366 -2.4056652712626376 0.14596923977568407
Ni 6.959191342183457 0.7689473553815896 1.8400964386402083 -0.6748790986139216 -0.4667529256935188 -1.5370126689055592
Ni 4.522330656840454 9.024745363916423 5.673791429609781 -0.04697611163922232 -0.23910565202105277 -0.44013043800998397
Ni 4.603985129266797 3.5093543947333385 4.334987095888371 -0.08065884860364818 1.248548778166353 -0.37627966210261005
Ni 9.043490871468927 1.0362192168993545 5.3110806041974925 -1.3851278349763887 1.3143469076080847 -1.2802476519315307
Ni 3.556522294268104 7.283643452992645 3.255246782472209 -1.415938135489026 0.24255221580875647 0.04659867369514555
Ni 5.712218798484373 7.773266156897195 2.38947620791862 0.9695840851668334 2.481348006807933 -0.6467442880509184
Ni 2.326553418924166 3.3002691784876905 8.141798780304034 -0.43939407406459163 1.1362249943592562 0.8514390666922691
Ni 9.024625554871104 2.565213037203238 11.67850005043587 0.40175569488652746 -0.9280047190631503 0.643430136076021
Ni 4.041693631334965 3.1166940728149677 10.167296951754087 -0.3740865111060332 0.2755469255672222 -1.7233302305913027
Ni 6.546430748892417 6.6761562967336365 9.591223727178198 -0.8723981854424395 1.0048269675295274 2.308917744627243
Ni 1.23007025222844 2.8442851680770627 4.1819992394860535 0.0032789278615879013 -0.2364553588823992 -0.33490804113435874
Ni 0.82658195743719 5.587875441602182 11.825297465627264 -0.6847359368033433 -1.521678095431018 0.07104420833201959
Ni 0.29644536405338445 1.219250573827929 9.031012298594744 1.302054463393977 1.2989549985330466 1.8488656279926672
Ni 1.3301753176341886 1.7682156194879217 6.734229584216719 1.5397002430400515 0.6761124568003904 0.47685864666895295
Ni 7.800886749883848 4.589912174481805 10.748806742163419 1.8066553131732046 2.036559501200647 -1.1796689244755036
Ni 3.2723444548475307 1.7049287953173013 4.923889104393997 -0.04184547528087632 0.21736543213048373 -0.03272011594084042
Ni 8.003474629440944 0.31651522236070345 10.84979655128846 0.06665739211823359 -0.46929806071287566 2.2978620010337134
Ni 2.565895027153526 1.1600741215198533 13.443532435750422 0.5775376471482698 1.2120900211186867 -0.12779179753570896
Ni 7.634536498496096 5.2162554312582285 8.329696227688716 -0.9538399349586991 -0.5664721333627277 -0.8369542428125327
Ni 7.436704116430195 0.05251783421236056 3.881363323670563 -0.3464366105992485 -0.8207352098505092 0.409492658519469
Ni 4.9108437425746425 2.3000203234258096 1.2095755326142523 -0.30999405150149834 0.8275668880603617 -0.6654593479619184
Ni 3.6042062943057895 4.796509049016944 1.5527878967045978 1.4308183950349682 -0.3995149784814668 0.6755470712152236
Ni 4.651125380560334 -0.01129154171746673 0.8699611263156949 -0.3183424234661937 -0.8159390740134465 -0.6949200764251968
P 3.8342027970001253 5.727102768345382 7.332573467101668 -0.14371618207544926 -0.38109559543401467 -0.9561323305373016
Ni 8.067489523963898 7.047776307077589 11.420677436161753 0.13365956917039562 0.24291062758943974 0.6869761389877718
P 5.701371471842634 7.551840608983503 4.57188828602535 0.48674428121378116 -0.3440048612293043 0.20568388202749738
Ni 1.6792988756990552 8.781579082317208 1.207241099446578 -1.5452965061809063 -1.3350887681411263 -1.4522182008669828
P 8.705269936528255 6.918216648683737 7.723785021179697 -0.6893603229492321 0.4475791809785453 -2.427646146409103
P -0.3491650304267085 3.6538164551490184 8.634121795768507 2.113898027181811 -2.348452312386756 0.847517620150676
P 5.968914286124432 8.326830026681424 11.063996692161266 1.7120839682535223 1.0889802024396793 0.308811601157623
Ni 2.905728776165824 2.6797136202083034 2.53284800602188 0.5629774899459079 0.6575838018685836 -0.011913206497818194
Ni 0.44858994909825156 1.0275837495558462 2.7348138001513482 -0.38903284800322036 -0.09294846460427862 1.2144433518422117
Ni 8.39057765487251 4.617846114202374 13.375400718108635 -0.16923078140678596 0.15937111500388682 -1.5596915985603137
Ni 5.119394426156551 1.3027298301753119 3.300325396578187 -0.3532834583177529 -0.9773465027210716 -0.1436202799275333
Ni 4.218964938007731 7.206246809715395 10.73529136024319 -0.35897870893031725 -0.7798706104256634 -1.347550648053563
Ni 0.3449127309258604 5.356736144937094 4.538558331225138 -0.24215420903938942 -0.9121957770553515 -0.5690848883952264
Ni 9.133375303700769 8.029703594285793 5.242854882535532 -0.7638135569628007 -2.292648060932942 -0.3605707360077855
Ni 1.9727757402526063 6.534440628279927 5.595516493869527 0.8676182475552928 0.7379364320857227 -0.19837397862964545
Ni 6.969458055759411 8.888881906522617 6.1659384179384364 -0.40915455845375986 -0.37014526707009804 0.7471229836809972
Ni 7.337585171628241 2.303734403830755 9.747961606699057 -0.5094394088184517 0.6797618806275196 -0.48648819933891707
Ni 7.132389141315316 6.225600557684082 0.9509686298973052 -0.09635594762393083 0.9097054065333301 0.5909310377360404
Ni 7.594133201981752 2.7383739720134583 0.9223508570103663 -0.6337705014990699 0.5213212478577022 0.1658009297896306
Ni 2.856081751000959 8.14199231799263 12.45917026009808 2.488110008122115 -0.28015074288782077 2.172320175874446
Ni 8.745111052137633 4.485420254801232 2.1713647625201093 -0.9169348344022338 -0.3863110781966831 1.3245850403963253
Ni 7.271413714289512 8.621256147517133 13.25732153108064 -0.13752985075907928 -1.6881343994164604 -0.35686731901426927
Ni 5.45857383345979 4.48088594323986 11.132356968597204 -0.4162397474353154 0.39014690700300547 -0.38908581272834286
Ni 5.919940034829445 1.8971485844139415 5.322600704709111 1.2528587183956164 -0.336500325322143 1.9246774329166594
Ni 7.248751372563059 9.14275727355743 8.817365122546494 -0.7893813781295761 -0.7418550504138384 -1.3955086639900807
Ni 7.644600458303045 2.352284715426914 3.5809845364984927 1.927497675974274 -2.1329401314149266 -0.7170374771495265
Ni 5.853049723218791 4.553895732242285 6.30373909543428 -0.3302533159711667 -0.27557057971630605 0.44357417358421025
Ni 5.680884125092774 4.368219360236243 0.10786592671841524 0.3078572076641537 0.002317078168950848 0.44212638539409016
Ni 4.275035571217874 2.661438132756674 6.955915947205994 0.546202327370098 -0.0686206864921915 0.1361147155791075
Ni 9.007981313651918 0.9523436690943718 0.28017160926665347 -0.5478403771941532 -0.5605277428538347 -0.7370144344920855
Ni 3.263976253835892 5.412106356036131 12.542017293329387 0.7156763351359416 0.3759395051543719 -0.9066730474649094
Ni 0.30127735501197717 8.88909387637203 7.361560804813019 0.2066223346813667 -0.8663848893688241 0.6426541771419448
P 4.773266094224705 6.659355382147494 0.6145853813902463 0.1771934878972884 -0.4238643538601087 0.42084356475591395
Ni 0.9047140439311008 -0.29735406958174077 12.15792792619166 -2.3418805727065086 0.8826977675962345 -1.064412026182012
P 1.0895987546299841 8.211610589404435 3.48294848114463 0.6659951658607304 -0.1865733864502916 -1.0076181571214196
Ni 2.4799550773368613 5.409710175129714 9.565082315097236 2.085543387298518 0.20024702728264224 0.6215863007280521
P 6.040080859044998 3.3985955403744454 2.7365537961326227 -0.5199734755805561 0.48751844037564424 -1.758807083341674
P 6.931174457739204 3.1018746155168233 11.79296469072734 -1.0076163573492067 -1.4975578053440468 2.4244978305881086
P 2.6422871176661618 8.91607855981044 7.471964840076153 0.6501697687926996 1.009036891845817 0.12388680605434794
Ni 7.955652388197119 1.7456638707263799 7.426103780743426 -0.6810381762367819 1.225472870183496 -1.3712693318267417
Ni 0.29920742335204975 7.276021754494159 9.515888721088508 -0.8486113674354868 0.28746373160946626 2.094511909345715
Ni 1.4586843428613812 4.7438207173170115 0.728254673942394 -0.2684586512618731 -0.37927294040297904 -2.0844779221484813
Ni 7.7465395237102435 6.164986396832157 5.903314225771079 -0.437697145978143 0.10319405359168679 0.1649807478811804
Ni 2.024385790544651 8.988701273435677 5.334929055472623 0.953979545860357 0.3152468152600055 0.051080620725899126
Ni 4.992332325553618 4.728733993686998 8.808368384850942 0.5330717035254109 0.424168772474405 -0.7549653625435514
Ni 0.732271041784764 5.120269953795433 7.085649789519582 -0.8767906580831802 -1.3810192121246538 0.015964236638740248
Ni 4.200809259601423 5.859252145334246 5.045624310520359 0.9273778841124286 0.3633637253718904 0.7981935771045672
Ni 9.359113977246011 6.978360789434789 13.488543772469413 -0.09816111915346966 0.3062466686439242 0.5226623352666288
Ni 7.2110115232870005 4.306858696871165 4.329415975280953 0.14973436324507117 2.806071394099806 1.3443761069803233
Ni 0.89864433337354 2.643853851335742 1.21480934467869 0.310247305162885 0.3585498489230147 -0.21389701396590904
Ni 6.057471602777336 6.7468252013121015 7.446835353624132 -1.5675350058641326 0.22857029970736764 -1.6213263406529757
Ni 6.188809964690181 1.3351520010552074 12.917770715736907 0.7892530800818279 1.6139760709354913 -0.27015660778958633
Ni 5.903406386575172 6.342976557776847 12.213379238798298 0.47510464009232367 1.558018067512633 1.0665817801398212
Ni 2.3537685043728107 1.9009732577837986 10.95968909408888 -0.9911602686757125 -2.377178219566538 0.2783399149313271
Ni 2.7676995398758315 4.046126566011836 5.794986573424159 -1.0430587573172165 0.7601376507731102 0.22109713125877406
Ni 7.7366138051094335 6.931441724071074 3.537888301288553 -0.18687909061616848 -1.2972642410941853 0.09029045815614127
Ni 2.9497724244418393 0.4491392274906455 2.6050928603503336 1.1069799814512098 0.11526641137518857 2.1451225324137315
Ni 2.119753790620023 8.736530881276579 9.87393252338153 0.6929570391615549 1.685392575005265 -0.8246016347844508
Ni 3.4404549775934576 1.3295301920055382 8.920755720618157 0.19034005258157544 -0.9889997706892838 -1.1039234540130731
Ni 3.9769875307813134 3.131200183379196 12.412863142473544 0.04529538150268974 -1.0752857356717223 1.3735923235329635
Ni 2.0683464940969825 6.89351755318683 7.9888505530474765 0.42622411234153684 1.2941694042189453 -1.1460512364210584
Ni 8.699316348583851 8.379813272954454 1.7869648134725888 -1.3909056180004304 -1.414144791034029 0.5760160682974209
Ni 4.858441109367398 8.71041250939664 8.037666287759423 -0.04765745397696308 0.6689959003602672 0.553174387812557
Ni 2.5392329065294383 6.743461331962709 0.8952666399035337 2.0975458110760328 1.1409501677490674 -1.0241554926548104
P 8.970600891511824 3.4265294800950152 5.514368905865695 -1.2470259137639232 -0.13345465224844114 0.9249109106291749
Ni 4.38431985271128 0.5992839230866959 11.838934499808897 -0.27956376003609923 -0.3917407338526866 -1.3291083821879754
P 1.9859915995595334 7.0264779452517105 11.00238074336885 0.39261285204499474 -1.0456756261147735 -0.7651227626925274
Ni 0.9393489957172677 6.291053160750887 2.292898136485507 -1.2137843781019741 1.901846551065073 2.1124119295545882
P 2.0485503533778195 4.658691782576364 3.2011161341882213 0.3779740190858974 -0.1792395717930397 0.0620304348691835
P 5.808139763384302 1.772740714968885 8.151321756190956 -0.10449323201908454 -1.2955338886666399 0.08192588824152988
P 1.811024312989091 3.0744291280579468 12.61909137379231 -0.813673160797405 1.3752455428656702 1.0257158951633947
Ni 1.2167253677957823 3.826876013074737 10.274667053346482 -1.500265691193513 -1.1902258740557439 -0.4916214068004244
