# total energy = -340891.721864818 ev
CRYSTAL
PRIMVEC
9.03321332899546 0.00000000000000 0.00000000000000

0.00000000000000 9.03321332899546 0.00000000000000

0.00000000000000 0.00000000000000 13.22102079818110

PRIMCOORD
 96 1
Ni 6.458295756306347 2.000847684070354 11.457706809173692 -0.6044169880376171 -0.2516225535411408 0.08828808301413182
Ni 4.667208315270037 0.2888189247029622 6.00805511888775 -0.3719332122084562 0.31004135979966607 -0.6628355371858262
Ni 3.0010140795301696 1.9786982453760913 4.8791780822456055 -0.7539271510870241 -1.5226967665035196 0.27056309919938565
Ni 3.285244131942477 4.363258758506353 4.894646556478907 0.8484313902141968 0.17638950393875427 -0.09851027496277229
Ni 5.294339139637571 4.596189193322935 2.7481744428856283 -0.22704049332640253 -0.30935796057939624 -0.49608124234399087
Ni 7.278050818323335 5.855139079693533 2.5233901597062753 1.029956929827936 1.2064616191883157 0.38091767509525365
Ni 4.814214826408061 4.171348144697376 11.577303841588224 0.35620166040581236 1.1197722481198715 0.17900791539820785
Ni 5.730670435416108 7.783992054794363 12.50683412333937 -0.8506014012823223 0.22189211635624365 -0.9168296762829372
Ni 2.0648660658102562 6.437447100308648 0.34482574968187685 -1.5516484165408633 0.6530913133148688 -0.4396959215757266
Ni 2.8304489484432733 1.618842132299686 0.730242242745756 -0.5692833775592777 -0.8125675864380523 -1.0648696825447208
Ni 0.30407602174807224 0.03671278496787223 4.739537253126874 0.8718682810808984 1.2012677336922022 1.0301703313903225
Ni 8.783580324611261 2.2892781806069813 1.48713969091526 -0.633914740386418 0.8774745715240823 -0.1339904701472531
Ni 6.918221804886441 0.7574177612481295 5.126767615395405 -0.19185417523325668 -0.00779609900565109 -1.0752227436442707
Ni 0.5264059809089786 7.0491220969413195 2.1610155867979124 0.7229510144204839 0.1936644889691181 1.4922813874364556
Ni 7.561269150860537 3.8888344027874786 3.8230428013021913 1.0694668149971 -0.8004672036300924 0.05934208940374296
Ni 7.846610288492825 3.5723377129298584 12.52433868382132 -0.663296793092961 1.3447525164831358 -0.39133372822225504
Ni 7.986607026210478 8.83864679209912 7.112327489495868 -0.5566942280403574 0.18181556005033203 0.055264576900259654
Ni 6.956332931253119 0.5119058671275631 0.4372364237382298 -0.5647482086930854 1.0209467559095258 -0.51610602220535
Ni 1.7839512026315518 6.528312191591516 9.196211178994147 0.11222428211475512 0.3171196068026861 -0.5663165816214698
Ni 0.10347003694109438 4.840167247847138 0.9769934937133259 0.01519084880782545 0.08196239790642014 1.2323760250612323
Ni 6.153894538884134 2.0958499869853466 7.189379894519601 0.71577737949018 0.2642181308179643 -1.2352456332995436
Ni 3.2156341912499857 4.253225188875515 0.3467543406937957 1.7278656565678114 0.14335982717729503 -1.1904305338673822
Ni 5.889998249318803 5.485518063179732 4.929669227262564 -0.009885634544828137 1.4888271103392683 -1.6764263669509127
Ni 5.26505346253855 2.9436441426838145 9.405302060932252 -0.6546897681502402 -0.18092647257715938 -0.3366718179030009
P 0.14528658735034444 5.797380714680844 12.213698226062187 1.0987617073064755 -1.8493358827608666 -0.6444066410566773
P 3.951813965012764 6.173397246119417 12.658307558390245 1.5029164985527987 -0.7770174572475844 -0.42072632245175934
P 2.32490517335175 8.456885137084056 1.5240530132155192 0.6452584475340113 -0.3829452470482437 -0.8244057167235609
P 6.1905693843566905 7.617275072518134 5.769362397389655 1.4754342339721298 0.378276895038297 -0.006176818234673233
P 4.84209132225247 0.9360576815882075 12.565429867212973 0.5984278603337178 0.3899908410411154 0.8771953497207666
P 3.966203873593498 6.352056136207152 8.359730219470514 -0.1410895430858796 -0.7731821426618942 -1.0787343563419551
P 4.533074132900091 1.0207711547019092 3.8888307895022103 1.6972962684213866 0.18364335728769018 -0.9883485102585301
P 0.29303291864703795 5.387670298116006 3.579445948373788 -0.534971234540969 0.6590876401076198 -1.0194184921904572
Ni 1.2300436042247418 0.8410300856763374 2.6881379015113183 1.1820914178740674 0.8910150292126784 0.38113133376795655
Ni 1.9264140075447729 6.525719659411559 4.572423712792456 -0.5550955160946698 -1.0716229421081545 -0.1676564949411306
Ni 5.97371806898374 5.768067937942311 9.30775690850974 -0.8288069311150501 0.4477056792540806 -1.3496062450310111
Ni 8.672995728977018 2.4110820269990856 10.217548716161852 -0.16224020902156572 -0.15004932338232868 0.3822453927677417
Ni 2.47731354596578 5.277618662058827 7.061677359927108 -1.3369934413630071 -0.21803751849684383 0.04354111781574437
Ni 0.6934662252856897 -0.08389777396439815 9.003211159676798 0.3754103721237793 0.8604374135361375 -0.1656168388032825
Ni 1.289084685507654 0.7785879996347014 11.31361079931923 -0.0042927138380829295 2.676146095160862 0.6405898384137484
Ni 4.115269957334414 7.087422920784579 1.4690407450066856 0.6585628779524013 -0.9162241814884543 0.726796099198187
Ni 5.50932057988421 7.911251961941498 7.834922213971412 0.7719896650156898 0.29582598753123246 1.1697344389706112
Ni 5.583989119952227 2.99074331615522 4.87280515035376 -2.070983230096156 -1.1001015091638215 -0.726034281331498
Ni 0.6765822465485581 7.314599198811503 6.55975499999567 0.27448865950603696 0.01751126941088597 0.8258810157175068
Ni 4.890148016319959 4.735716203955718 7.014134655689028 0.19494207012996106 -0.4931470994163313 1.017549043081886
Ni 8.295570016283834 7.202162794477289 9.113712649749873 -1.31735638385837 -0.6324569248939689 0.2666938460519665
Ni 4.691814787946697 0.44637713214554 10.36837356650708 -0.7301583308022005 -1.1447392024778542 0.327176733928372
Ni 8.208363376335052 7.230003157469017 4.577421789639738 -1.624825097834853 -1.7444055632043636 -0.06346485332286489
Ni 7.107955414321308 5.962462685373198 6.946905869988301 1.2016474856291242 1.0761455125688564 0.9256313337349671
Ni 2.5726771774075954 5.224367870418256 2.46004836563285 -1.1951310246668452 0.004545710389153462 0.5389456458076847
Ni 2.284165381952433 5.153348748471155 11.239692015944373 -1.1416279105423823 -0.17525256212083368 2.046920275609681
Ni 1.2790307192487982 3.3154963628507503 3.7429371702268033 -1.2988837789754792 0.2142094030000053 -0.1327576261814165
Ni 3.759036162739411 2.858903569930601 2.7018611589600634 -0.5201735074065043 -0.6517016320561937 0.35133970432782075
Ni 1.044618837472241 3.5936831956519395 8.46987489762335 -0.09413580004416046 -0.5190921014168673 -2.417102823675618
Ni 3.57998884448534 2.7367925942906974 7.201437427459692 0.11631207903088354 0.39011862486823135 -0.1810326591377205
Ni 4.059381467448033 6.751143494083388 5.914066342490497 -0.10202780119772752 0.8955877361850253 -0.413563743265049
Ni 1.0766867442278008 7.586806044493767 11.442568950542436 -1.0014385106732688 -1.5007390312855058 0.10788297442692389
P 0.21074305662700304 5.625966461555913 7.908775054890125 -0.3832560934204432 -0.12980779952447322 0.38839444308827303
P 8.535582490226151 1.7059223072640795 8.104697318668157 -0.014320787498046305 -0.41672928547722426 -0.5228847356900802
P 1.7660925401933145 3.2313429489536247 10.404004172537118 -0.43634474571530657 -0.09298137472474309 1.497260585818602
P 4.019544997365775 6.115042689037469 3.7440076059875165 0.47867153150797564 0.5452008826887771 -0.12987799064077632
P 6.766156694372893 4.097411294896176 10.400686273339561 0.9185258330384375 -1.4652385243860506 0.7137086698866096
P 6.287649326300916 7.816565821487476 10.116843745772274 0.6635775575581733 -0.17230273546389033 0.5749940547908097
P 2.252142641262726 8.443263051622822 5.474190413863823 -0.015853164982172697 1.0820001715774203 1.9104818581425678
P 6.905394642184217 3.905798777121828 1.2675531185942592 0.8101867449107014 -0.6306633233286557 1.508163348774035
Ni 5.155471553566241 2.804912054810043 0.5984774721904531 0.17542405470169142 -0.42292821519908447 -0.8136615908331793
Ni 1.6394288251154385 0.9695709024510601 7.003479077433011 -1.2029703182056055 1.5500371061896854 -1.0269168574500314
Ni 6.720773831403897 0.8566954839567577 9.151656661672895 0.41049538875237046 -0.5474130598487476 -0.204079513654855
Ni 2.71877133401539 1.7031220111811998 9.227809358664837 -0.25295489919931924 -1.3007953941758952 -0.022227443939632687
Ni 6.102423290238168 1.8693511999462173 2.6665476187123143 1.9144606402846578 0.4667691236434348 0.491674885746179
Ni 3.8120520908375464 6.644027652306648 10.540009133354689 1.5846626666833548 1.5515890240578376 -0.10435927754438155
Ni 8.277684254206084 7.140005254650527 0.19776413594351333 -2.3945946152707727 0.43912822199771473 0.3113037714518574
Ni 7.519355041749045 3.7890896629579314 8.27252448284305 0.6556413334302322 0.20653825960799269 0.03268412049658242
Ni 3.169230575192715 8.49227726628639 12.418769328139383 0.4450674703002851 0.022419505345780744 0.36577516302686036
Ni -0.0022393335449868434 4.896814527639846 10.223590129130336 -0.5118192219045379 0.08005489647106212 0.08882492935420831
Ni 8.788656990413127 2.419293217771143 5.831990567622604 -0.5358217554667224 0.09653926727933052 0.839991744087276
Ni 3.3438606522063723 2.242314505333135 11.5451636691273 0.3483603099845226 0.31198202846580464 0.6277862588911769
Ni 1.1822398401260308 3.2844763088229776 12.673736286485596 0.1781360543162158 -1.0475931548524602 -1.1211819839832045
Ni 3.108997109771286 8.361539572068581 7.581303011030249 -0.4631852629469184 -0.7541829758515721 1.4239692333236187
Ni 5.719089856131425 8.059414724365356 3.6302017665366444 -0.4208214532687269 -0.30295668503874273 0.14571238656987162
Ni 3.131444644500178 8.301956497995434 3.571737907575332 1.1843223640871152 0.35924276122498133 -0.6334105470564898
Ni 3.3155053960639207 4.328372489241572 9.292724738472579 0.8701207022621724 0.164372167762904 -0.8110519211244741
Ni 7.084694890407064 5.9349565512687805 11.403962804094009 0.20834214558595085 1.007813046741045 0.7612092865707342
Ni 0.5249913797264657 8.91667568746659 0.49125865178356787 0.7253256853002475 1.3872844763080754 -0.887325239065917
Ni 4.639277620146603 0.33327678664328997 1.5823840839432242 0.012229709296972485 0.1669065041489835 0.04725353367032507
Ni 6.163514910910802 5.701032463003434 0.46538662594170904 -1.5473279347886384 0.1884135249828239 -0.9861425037461468
Ni 8.005143179636509 9.060403142223693 11.003379546116726 -0.12417682649094099 -1.2326794152342642 0.45875473797939054
Ni 0.1832278893094156 4.989892756149505 5.699119228453906 -0.21533297508148722 -0.7005487354658838 0.6525493247684697
Ni 8.007247918305254 8.885908563407595 2.5177453047959797 -0.3714506161450829 0.10044425876069153 0.8127223668483616
P 8.46035389094156 1.7774201895092223 3.729835397844193 -0.828966596621366 -0.3054146596609321 -0.6734953308925175
P 1.8780863170821687 3.301720712765615 1.6154104146161825 -1.4754411759506654 -0.6950584017752739 0.5659787386660768
P 4.581248258738796 1.0974812009464765 8.22445333563449 0.3333247558076388 -0.9071906105312764 -0.45094166969287497
P 8.519449171503496 1.5044545539206284 12.523638609800601 0.5924772991772377 0.2549341344128771 -0.45749361187877985
P 6.340222626953693 7.768500094206818 1.5351855451269423 0.5983633256443694 -1.2133326352765361 -0.35564501657139397
P 1.765324717073815 3.2620197408809153 6.108137700889877 -0.33075545241856585 0.5782593558056428 0.4916003237545017
P 6.84535990745254 4.009987857831301 6.133099178844142 1.4972988952557051 -0.6527215886802759 0.6101248370556718
P 2.531738655318526 8.499467703970172 10.099365381608518 0.521071079520109 0.23279153687756685 -0.13807029664358156
