# total energy = -340858.2502510692 ev
CRYSTAL
PRIMVEC
9.33895152428143 0.00000000000000 0.00000000000000
0.00000000000000 9.33895152428143 0.00000000000000
0.00000000000000 0.00000000000000 13.66849955147522
PRIMCOORD
 96 1
Ni 0.7511514932358296 7.423747464724971 3.792311990738667 -0.21709340941601968 0.32930072224991025 2.3990935315823907
Ni 1.7966088410687078 0.33040277052557887 9.799466565576184 -1.120415281020509 1.334065983303567 -1.2933767331143209
Ni 8.880913430068157 3.1427626881146686 5.618149882690411 -1.5779824264497015 1.350001423586901 0.7357738772167651
Ni 6.81682767471066 5.262480578468093 3.6581411401327455 -2.2418816290133523 -1.691156474072236 1.0716026303931803
Ni 6.410508566199201 1.0830569010823494 1.6905473010426486 0.4034485092079181 0.13056833183958158 -0.5651104771285107
Ni 8.072804604596865 5.524204698538738 1.6617478419356422 -0.6329246085590068 0.5388404876883881 -0.21915671970295159
Ni 0.6503711303694475 1.8111682666954745 4.056551090489419 0.26341029020468826 -0.3722301746235847 1.0106399746668788
Ni 5.266720462518479 9.344555023824704 9.039306719576032 1.0469609205851003 -0.9935097427444955 0.6510028062169562
Ni 6.224598055646255 1.48839541967026 11.379381843653876 -2.40347083471448 0.6253755925671551 2.331996480823577
Ni 6.4845010801445975 2.402604074869389 5.2930170825825265 -0.0028348983456338277 1.6596725445313416 -1.5745677443411978
Ni 4.517073474393921 6.059485390424167 5.0781072593572025 -0.9259506647475987 -0.08720153481817239 -0.6987785309393385
Ni 2.2362306511741687 5.313984896833467 11.70880589204624 1.4502248245860379 -2.2783866659179215 1.6759070041123332
Ni -0.13957903750807682 0.9201360878131816 8.201359943573937 -0.4215225931008095 -0.887355320972904 0.6976780987863082
Ni 4.468258774104562 4.43788850332955 3.090666280214505 -1.0369320755941884 0.02643582559402544 0.29053851388004803
Ni 0.678416002182905 3.886871677909097 10.120854446071283 -1.9452462582069465 -0.6908621043057392 0.5480074988996367
Ni 7.567100372595958 3.8355447996251266 9.0809817913268 0.322857794838044 -0.32519852715607867 2.0410234505092717
Ni 3.5877637343721616 8.94642617591278 11.301006559697807 1.3447478884974453 0.49203201197528174 0.994107010008862
Ni 8.057610130257705 3.4227071028599907 11.545645067719594 -0.38505380875081424 0.9516732663246836 -0.9284896291193686
Ni 3.7337502266092466 6.724474781815794 2.2249996279164717 0.060714801381553496 -0.6256895242631483 0.5332843337568494
Ni 1.798887545271999 5.4790041725390255 2.8562931478495117 0.5804746182894067 -0.17244646013060622 0.11112950638867958
Ni 5.414490694521256 0.713494038486111 6.5260939691208195 0.6342158165666044 -1.7125804482739668 0.10767831461528551
Ni 5.130521191613562 1.6548528939303557 3.581611233023275 -1.6400534847488337 0.4779878751773897 0.0940607238318509
Ni 1.7478034797310027 7.744465742386562 13.433346977105199 -2.3157563648156314 -1.4754828278218781 -0.10949531321936626
Ni 1.0489136938395918 2.7952602971127525 13.378249030143817 -0.02362355295621093 -0.8823984911882609 -0.7236614102239473
P 6.235281816337096 2.2596807587744325 13.518064343128708 -0.010429165753123974 -0.08601779892271637 -1.7155104774365681
P 2.0641137722124565 7.30760826197034 11.339551214854545 1.2514065593301222 1.9065760953302584 -0.018809419397019217
P 2.3865504169781686 3.025194625757154 10.935606067853236 1.347362443302157 0.3594350797414455 0.6713811127629922
P 2.9474385142956665 2.554754275197344 3.6682290757081355 -0.3542908165363447 -0.2359938458649484 0.04572526995125673
P 7.264004696703262 9.106822670550189 7.671814301898514 0.18961808681388634 1.0426689780779654 0.2595533783524433
P 9.24771943413648 0.3479571979474091 0.7070137399342102 0.013113654563822576 -0.09369125630757413 -0.35443094165863476
P 3.2671388462270983 7.814395812362975 4.496416647233019 -0.31018739845922705 -1.3190846794033861 -1.3516402447419045
P 5.96448957421155 8.417057040423595 10.99376532316642 -0.24275867539260773 0.34907379111177944 0.2748833238412943
Ni 1.1364476876815957 1.7242506436625575 2.0059619880605957 -0.306742120223104 -1.1470207994231794 -2.805701412354897
Ni 8.283855572999238 6.99239996578392 8.12200033411366 -0.028976075517375903 0.5867761350274023 0.7473474409869775
Ni 5.294531860540616 3.4735763725129725 7.795350888257353 -0.2474478533381609 1.0333335596096527 -0.6975531431726696
Ni 0.7768205357488063 4.716814972344713 0.8646552438340314 -1.814643987805636 0.19171173611812145 -0.35335133544121083
Ni 8.144714532323679 1.732674378053413 12.91759309923068 1.184854068220869 -3.125282593324198 1.6762916411452615
Ni 8.327468477217968 0.97832989724748 5.543601701121672 -1.5616206972622269 -2.412288690116426 -0.9835878556450932
Ni 3.10571506690788 0.5439864626162003 5.204295174090282 -0.38354765651893297 0.1656510344753276 -0.87975334025593
Ni 3.6487564276168136 4.946674589375892 9.540107068064037 1.1765684311733091 0.3830496338365919 0.7561799516769429
Ni 5.863694269022523 7.860530233527971 5.190257795860909 -0.2750928687489391 -0.5809790687296511 -0.21193474803321566
Ni 3.6186009527298157 8.421969328992985 0.45628623543477614 1.2204293942223174 0.9917647350289307 -0.7216618632954153
Ni 9.093225156943664 5.074422109034995 3.923174050773989 0.936691962424503 -0.5114016747511451 0.34939286501409506
Ni 0.18750747128558107 7.845485182415256 1.8047206544743586 -0.2982556800186476 -0.6653349065689123 -2.6412973629127925
Ni 9.294236752319241 6.212102538334764 12.338869472046602 -0.005025992459681666 -0.6115939654020306 -0.24802249489470837
Ni 3.314319229977211 4.788696883216569 6.769201822966707 1.5778021921180956 -0.627868534192338 -0.446080999166464
Ni 3.924722448958029 2.507741992576983 6.1117601723009 -0.3798403828706749 1.010924338676517 -0.5197706155411306
Ni 7.816823939792712 7.387008028922726 -0.012912968450372196 -0.5780634377447529 -0.1873298050003419 1.1798740985077745
Ni 2.6404391566120866 3.380298923404476 1.5840701776680386 0.5568587786426797 1.8451311006508995 0.5263089308802806
Ni 5.246977918724389 3.2302966819566725 1.258610514252304 -1.0099020680595898 1.2360375330732196 1.0902305299070127
Ni 7.395385068555317 2.0652811411690606 7.273364194049732 -0.6762569527980546 0.7745669388245628 3.139422889380322
Ni 1.7682277669957485 6.0418067549453545 5.367455998416927 1.3986976032410234 -0.20681568163909542 -0.370393121414846
Ni 3.4820654795653976 3.3958762947614014 12.994164097727422 -0.2315016144215497 -0.0626403005390405 -0.5006958582978668
Ni 3.743388024714971 1.8898582733222453 9.499210864881116 0.46322511504591835 1.620563751455338 2.8240480331828848
Ni 3.6712819790034468 1.3375059778154375 1.5642781374301895 -0.04687738127782895 -0.46183003447060456 0.5572608991771048
Ni 3.0773713486415315 7.9461310643778384 9.109358195923932 1.274568342158566 -0.26907288780710437 -0.5117405461478026
P 6.427187933851161 -0.03798151637207183 3.9696054506015446 0.7256455305335117 3.4751017472424346 -1.2174638838360903
P 0.3223731398944731 8.038110399206591 9.830152492917064 -0.2627934825562958 3.107372802923313 -1.240165182088348
P 2.570686526717077 5.610291154874552 0.5869932688726616 0.3203612536684354 0.36548257148710606 0.17021422836597783
P 6.148709734515334 6.897506878039484 1.2872530789715428 -0.6288697217633428 -0.2620668888029164 -0.2382121936725059
P 7.561581052169133 5.359316168156318 11.013256649161049 -0.5597363573007909 -0.6735745208698851 1.0644629340246055
P 7.8040482539316365 3.3080621323698125 3.2357982583753566 0.48323035452325164 -0.04828814558242651 0.15322180757303935
P 9.318051079033966 1.7385765954980035 11.153427776203914 0.84240292463193 -0.7505024416761914 -1.6478405848934203
P 0.02250033621717056 3.2615634920903576 8.078329528394681 0.8477271650583207 -1.2021604207098007 -1.433035971511577
Ni 7.514456702128938 4.674490843454074 7.04746522641452 0.5135755424740123 1.3830915212726502 -1.8165064949356715
Ni 8.309453639479653 0.1885244831205746 2.8597233447915977 1.1261128456259186 0.9410682371153276 0.3883417354734667
Ni 6.0249032524537265 7.349717594972964 7.2712862773069755 1.5477483101555085 0.06561429556569989 1.2715424108480486
Ni 1.637902696680464 3.496223330271092 5.355687051544028 2.5709126425416433 1.21051316354987 -0.42023627018921816
Ni 1.4837352827954964 0.3947210644538051 12.054291069491144 -0.29691922059541126 0.7125974391003018 1.7743874542784346
Ni 5.860164145297752 8.970137774159324 13.079141086606882 -0.15512750923618446 0.3127649293784162 0.4856515623702346
Ni 2.0567826951649826 6.149606273874006 8.00460130678106 -0.48750995573521205 -0.35653256138266987 -0.6019983512937954
Ni 7.095586042596072 7.453800211143787 3.184883227859276 0.9669687590311734 -0.03200072127631263 -0.9322915193639622
Ni 8.083310925206302 3.1227306368193415 0.978511072909545 0.5830282379491959 0.6283069072813372 2.2013080784663637
Ni 4.437178743003934 6.760270983501104 10.746953641095018 -0.1654851983214247 1.1555123818339585 0.5280500819411036
Ni 7.792804156141625 7.347336162301492 10.519017848104323 -0.5677535711783126 0.42909140658700295 -0.2023198506512709
Ni 1.537499627460856 1.582709492412221 6.915454475325899 2.556798057517132 2.167719958098273 1.586538800660145
Ni 2.363006919861377 3.5464762291149867 8.596420011972741 -2.1356572732357733 -1.389770990175355 -2.193782973733912
Ni 6.149914459278548 5.721172527848639 9.38487407979548 0.1516323515987324 0.08450007672660932 -0.37128760820465734
Ni 7.384841392139269 0.8117267353416003 9.747977189533456 1.7649507343455668 -0.7553296878615057 -1.5208196040854647
Ni 5.016156389672969 4.747820291832118 11.64657298602209 0.6793934415445073 -0.9693778826932983 -0.43095031417261265
Ni 2.513167923487279 8.840083533441971 2.8448519981796263 -1.0195488471207343 0.6445081996315482 -0.5324245568597152
Ni 8.510511929613495 8.885125297263585 12.13824264147912 0.20331641023658534 0.6207074976675245 -0.2838384761520531
Ni 0.9023183019547416 6.1225793477907064 9.964500783604388 -0.4902517801464073 -0.7565064817784262 -0.3715742862071407
Ni 3.600035116843984 7.876200994401424 6.539037756111647 0.7971401961393885 -0.07915089659955402 1.6782922165150582
Ni 1.3615631172731353 8.330186112148942 7.346380787547407 -0.7357839045190941 0.2767167775056073 0.09367737235050319
Ni 6.728257057235191 4.5675878638840945 13.336546875433255 0.026844630996669894 0.7254190163450023 -0.3041918429974245
Ni 4.815107438490781 8.748477756679332 2.285428248481293 2.718097499891983 -0.38181678987075535 1.4505163876845277
Ni 4.544800821851182 5.952274225449645 0.057093680929594576 1.1878339767847994 -0.15945930384231893 -0.6703567852635358
P 7.957505907490988 6.410368481924409 5.233531696134641 -1.0470887044122161 0.35457003833966033 -0.5806800494319935
P 0.2581501032731058 6.124839374090692 6.761287061440931 0.004425382761205281 -0.1417649718863494 0.2777855850897538
P 5.836564614471044 2.688189216413022 9.59378362658386 0.33146199156728723 -1.0606222201222766 1.3300890009336899
P 0.8903074762340331 9.600255520079271 5.578360345278351 0.4397974801505974 -2.722087594887983 -1.5182821823755914
P 3.6486070043903682 1.1330576482316173 13.12966014557288 -0.5470366503459353 -0.7959384625218034 -1.2935356272896883
P 3.7442845640736424 0.7667708898751927 7.889718193023735 -2.8202728824111682 -1.4227685281472982 -3.882131803154024
P 4.502719505703516 6.315914324907656 8.079299845471411 -2.4855797855010935 -0.6482242150305546 0.4724512616298767
P 5.217915101180773 4.107971358289919 5.078544322294555 -0.030039998005516003 -0.6671889290585155 0.8305447397417631
