# total energy = -340870.09646784666 ev
CRYSTAL
PRIMVEC
9.24505116989314 0.00000000000000 0.00000000000000
0.00000000000000 9.24505116989314 0.00000000000000
0.00000000000000 0.00000000000000 13.53106689123256
PRIMCOORD
 96 1
Ni 5.200017764785134 8.218508515617303 8.724371835182613 -0.27093102406176567 -0.24333691649358088 -0.11079654852929306
Ni 0.5430201051403182 3.8736210134646285 8.547669321173935 2.2710919320287206 -0.6457718968353201 -0.11737163064364947
Ni 5.371642896634175 8.11506563691342 3.1416838325725296 -0.01784705548374991 1.904259788492256 0.5742507488668819
Ni 3.277416901860834 7.419384773602251 3.1564056522211192 -2.1681768431300337 -0.7055785845803074 0.19887251553261878
Ni 4.268745259860674 5.721383186326551 10.713547236835534 2.4128250222358703 -0.08526677968930477 0.631989241228931
Ni 6.33543024688901 4.8916675696460965 0.3330871788326636 2.7940903104785297 -0.5476904818798504 1.5373363707935652
Ni 4.48238914974968 1.8300024293647223 11.991596992519078 -0.7997622071432677 -0.8983323888096981 0.8405342468543072
Ni 0.6312964772293386 3.500666400023442 2.3187244993630567 -0.773707419037745 -0.6777433075355941 -0.34663278577045464
Ni 2.218488728946094 5.920928373022829 9.913753228603122 -2.9333538560992642 1.6992631623397703 -0.7201233151637018
Ni 4.1438168819962 4.321488277378386 8.304299817923894 -0.4390251207609472 0.3061595082467566 0.19394011122800792
Ni 1.7397245036748985 2.4632791965769343 12.313095499579882 -0.6250228372134268 -0.8488851899221638 -1.7404424647915577
Ni 4.193906569798296 8.095882155520036 0.9766194814230346 0.8060485543726117 0.06693969924534278 0.45295330080626506
Ni 6.639869785339179 0.09527302689312267 1.811985673442108 0.24949727966802193 0.8372491483451322 -0.7357013721076169
Ni 8.735981770572401 3.7642613019454347 6.530525790407151 -0.6883835608582596 0.7496169537474445 -1.7760964665497412
Ni 8.54813157373763 6.086507241338727 13.044002781760067 -0.12450052837894689 0.531318211169414 1.278966214115946
Ni 2.742877282254082 7.094744798118567 6.080076383672588 0.6541647488847057 -0.273365087424555 -0.3983721231262752
Ni 8.41573319444383 8.886944212824233 10.075083995858654 -0.3598027474935094 0.6413534560526504 -1.27274440157595
Ni 8.589068660778546 0.5792819697520126 3.090603999778997 -0.3136738143459308 -0.7001666695361167 -0.05596880205613587
Ni 4.861001734570506 1.829346030724274 6.987957059863777 0.5543676367897097 2.1948936902995877 0.17320442134255332
Ni 3.013803509836293 0.6189034859966495 0.24005422786321168 -1.4121496149808712 1.2066896760387216 -1.3413969697473416
Ni 2.666041661116537 2.110377099348879 5.657230851031695 -0.3907979103234431 0.7568386683068643 1.3382833638190241
Ni 0.12170370398013113 1.5107245836199121 6.151317824284285 0.1620034104204113 -0.4945234109385678 0.09016627387345116
Ni 3.152451543791264 7.954941348849133 12.20215395978772 1.783115835290368 0.264079548357571 -0.9145159405480959
Ni 4.477285881446477 5.961662068935718 13.462829490612187 -1.0019321624802355 1.0638594961126517 -1.7713980326328074
P 5.181407476570733 6.09927465714801 1.8989363051784485 -1.4304977784707558 0.6143954394065676 0.600759850901004
P 8.809951425815031 2.502052941619753 4.227565027971255 0.6825651544042697 1.0363705466637636 -0.27801235638857924
P 5.258464978938854 2.220171328277947 3.2965199513081336 0.355265264634472 -1.402219500351353 -1.2630595701880183
P 6.142143959905176 1.5075073057765884 8.637110569723468 0.47105515261329844 -0.8565661035061892 -0.396034219021718
P 3.2262178079058677 6.539376077991674 8.19200572713036 0.8268474933958341 0.5998442810652701 -1.095909068349029
P 0.4935470622581927 2.6966705159870323 10.389234536166947 -1.692255877784002 -0.7083926569903348 0.6994400757827374
P 2.690263695454206 0.8946963085694518 10.912237256288975 -0.2470490752378455 -0.4340744616238912 1.3209083628756866
P 0.16117914841464004 5.876394961036359 7.520999905669282 -0.7377140316622715 -0.8791391037106988 -0.7148612954338139
Ni 2.880351194697265 4.772147546776865 2.1180042666498626 1.9248833782798784 0.2608227319831702 0.5565286489967706
Ni 3.3546593052544313 3.0237419399557566 3.6106159458139118 0.16037564500900123 0.551860811207456 -0.16067440719634263
Ni 7.382543244275681 2.6291816416874196 10.977484205654662 1.043771467113525 -1.2917448539378529 0.10666298597689372
Ni 7.66657895456431 7.993826034507238 4.4640210818786565 0.48027178611556004 0.654887228873027 0.764683875382896
Ni 7.017188062981655 4.875109682814507 11.32880447460975 -1.0398615905361577 1.4237874563301156 0.6725591922314933
Ni 6.942164471893799 0.2144056821139768 6.211016818380493 -0.33969003590403435 -0.043938353254163044 0.982859976340133
Ni 0.45124633015437404 1.298652352447473 0.7792025055300124 -0.9053088201275311 0.20851209550491187 0.6462202972266483
Ni 6.6973370240578625 7.362120926011593 10.678312497420373 -0.4638712332703495 -1.2741453956885347 -0.713519693804255
Ni 1.8110685643557352 4.697503002791239 6.611238786048978 1.637767516928134 -0.46641456851749347 1.1289860534086558
Ni 0.5360003377080311 6.10496036368147 5.235548345841062 -0.4869507407976324 -0.1362072752929138 -1.0027729132139762
Ni 3.650436230660938 0.9453157378095431 2.3938618045815825 0.8973692535654803 -0.06177820964906135 0.7977030106213939
Ni 5.566565557693495 4.286514248409148 3.160681488435307 0.6084225096525844 0.6889204071983361 0.4451962825686655
Ni 0.9264465881594734 7.627509367880726 8.397636931080259 -0.15232577812133122 0.14679404966982462 0.4034127708739762
Ni 1.3869148569595824 1.565196425725846 3.584028102855247 1.4031911202360028 -0.7925438350179577 0.3740510298824074
Ni 6.747472937116329 4.245456975701671 7.767928753659779 -1.2253180897731866 -0.1702949610052422 -0.344890092047735
Ni 4.208615446375102 4.273672872189674 5.773381977216711 0.29628647210741876 -0.6142198330606519 -0.6835347174063906
Ni 0.4048657569233746 4.759047309121721 11.509336288856087 -0.20352158426885594 -0.5533417666283567 -2.114601481006739
Ni 7.467246404047332 2.5782968794757672 2.117003027596897 -0.12978568803728618 0.5905595133292345 0.01814530345045907
Ni 6.661706596448178 7.363785035240898 0.37874016652840553 -1.5999661298096444 -2.3966669244187693 2.758165571557463
Ni 8.223713479484521 5.149216208034946 9.431303001389015 -0.5149760223659646 1.8741187461325015 -0.17865978803016974
Ni 6.858284121685527 1.9746042763400973 4.619614370313594 -0.2157762332664929 0.38591127165510314 0.7927451523954863
Ni 1.3497127706333303 4.542149161184296 0.4079822637078129 -1.8713015883986805 -0.6259461203586445 -2.56954275877731
Ni 2.5067586727181776 3.6930004467260633 10.176499434818169 0.7940795549361938 -1.8985095162720398 -0.12076548681654684
Ni 0.6242859548483254 8.188647000002543 6.070321005568349 -0.6444922587919482 1.473047478907508 -0.37603797840544917
P 5.734945676545391 3.550728352671716 12.442668591204376 -0.4135112927605588 -1.3102611675744855 -1.3077841667889027
P 2.3934975495613897 5.065298877621578 11.883673037462724 1.6870169979825655 1.2633922709370886 1.3671002880507166
P 2.451232894767017 2.534512316642484 7.759444570105703 0.6509580690219499 1.277649037966419 -0.27973550972727307
P 2.7175550868148166 5.567406857359421 4.419273184702632 0.29439773972513816 -0.567916579118738 -0.14597592464390344
P 8.760860203550518 0.003520515525108547 7.6739010351732535 -0.49439922665587754 0.5662723586470957 0.49060864926519376
P 5.328052479877645 7.896124332644456 12.270932518740045 -1.7191017943322524 -0.48794395794883705 0.018575963229974457
P 2.294048533007838 0.0781567389645881 5.105771863088544 0.11420377443862911 -0.7805429539023396 -0.24116973363893301
P 6.00759148366455 5.965267638932547 9.103404145331274 -0.17514097624363384 -0.7183960480599498 -0.47416541610750595
Ni 8.22920503994123 2.148050683290101 8.688961439793246 -0.2599878947867006 -0.994436625434139 -0.5968926546361139
Ni 1.694303566766132 8.864451003074786 2.1385985428676455 -0.205843033313181 -0.7264222607985361 -0.4687018218897734
Ni 1.2024206137372446 8.19960238576214 11.014491221399036 -1.1508905667912308 0.3747416281915288 0.3314380803078873
Ni 8.819436848422072 8.279350198050969 0.9297415244334984 -0.667821934656824 -0.567674638311261 0.5479607048221015
Ni 2.880083088210321 8.358737453340115 9.529795155135714 1.2160780592321572 -1.0726884072581913 -0.38561199524712947
Ni 3.610682510183084 3.836243271164172 13.064123711352625 -0.04014417631905344 -0.5842325426699423 0.5120822457579374
Ni 5.2680613421611815 6.257965962264839 6.869709156049837 0.12905549473948097 0.37229136687882336 0.7711653693421815
Ni 3.681425642531116 9.167910566089919 7.012516538572944 -0.5478846001685274 -1.0616493758352104 -0.703464366450782
Ni 4.55803215927289 0.888662988108092 4.853038971908278 -0.05220033615263913 -1.481520806485842 -0.4949013631032767
Ni 4.928832675767254 6.2704560265359035 4.409057403044951 -0.3538843251265454 -2.0854382291792213 0.8154654768111375
Ni 6.904620318670412 6.482907304810574 3.0374671430770177 1.772083488735606 -1.150325181206064 -1.6969355426478583
Ni 7.189987316342485 8.821572455266347 12.494465839976762 -0.09992463881179564 1.870980714724152 -0.7708036151273887
Ni 8.526590604269398 3.416749069610075 12.909449381014314 -0.9889979709170708 -1.1973758548369637 2.196420925577392
Ni 5.246113590436897 2.710205271052051 10.042094879397927 -0.6944619058418555 2.8051866775020073 -0.34643121128260984
Ni 2.2480174227149927 6.51802000954892 0.32838699476500294 0.8551090593446887 0.16273103261505523 0.7186158773802398
Ni 5.1174687019603065 2.8460612995222974 1.1606024733099245 0.2316589659350204 -1.05534220267026 -0.4487420909383949
Ni 1.312991426973322 0.9426346729401065 8.787210448691443 -0.9146180133435989 0.07351246736685403 0.34433884752995536
Ni 8.914679366645991 0.7240261905170059 12.198487372452485 2.1294714561400356 1.9339812268160887 -0.5508493392238061
Ni 7.361963760139935 7.58109921048565 7.995453163531448 0.9244864214972465 -0.8013799452523489 -0.1714730404737434
Ni 0.8782854180531173 6.019600805269372 2.2208674806388733 -0.7119369226981674 0.27890041542048744 0.7205094948585269
Ni 3.7044735553569974 1.1989906997146205 9.0888043603595 1.0354557481589781 1.0850860095915957 -0.2659322852955936
Ni 5.9747438164883135 0.4984266003205674 10.575746974082383 0.14264043251276726 -0.673994382016123 -0.3947962328495588
Ni 8.25444402991903 4.783121422639008 3.8328642049235544 -0.5723658731393433 -1.1923735165263658 0.4200246683990444
Ni 1.319185611326848 3.8771618681025397 4.478864011698935 -0.2610731574310794 0.09753659819559331 0.5929609236818756
P 8.822173383599152 6.733670075564366 10.971624692157253 -0.05327711415658567 0.532242008535264 -0.5477557879001469
P 5.298810382698237 8.055777123093774 5.424144618313637 0.9132283320849239 1.513818233066967 1.0477780171697568
P 6.475918046047491 4.6514534023958465 5.455293045065726 -0.3430216713804286 0.06292337899709809 0.23438510661693182
P 7.068988085269426 1.4692882638102052 0.22948713425712167 0.9999400717508714 0.38407524688762884 -0.7412004475489751
P 1.3021932070853839 8.20955930598415 13.280187955665143 -0.9550308699430068 2.350966851278493 -0.5521824562129328
P 0.21727996855503837 7.712536104446964 3.263964427752154 -1.126221603289641 0.6143332187100646 0.9806678537848208
P 8.269652139264627 4.978044083698327 1.4518696627050134 0.5104285122045984 -0.7691840772460946 0.598120613505944
P 2.065344454593617 2.6082323555007183 0.8598942375539093 2.1459002911200202 -0.34707090174913774 1.8121978402579886
