# total energy = -381174.2494482989 ev
CRYSTAL
PRIMVEC
9.22139715684076 0.00000000000000 0.00000000000000

0.00000000000000 9.22139715684076 0.00000000000000

0.00000000000000 0.00000000000000 13.49644685214026

PRIMCOORD
 96 1
Ni 1.9474852863551066 4.752090207362193 8.879933330542919 0.45806233989805634 -0.15159687037510666 0.8167849669535093
Ni 7.395735642814294 5.176366685757201 1.0321435949917517 0.7318100074730106 -1.1845221388027471 1.9687849647588354
Ni 2.291609381567993 0.8659140810211452 8.621678884684833 0.5140375697120955 1.4115716309902142 0.24394395394996052
Ni 1.358708305936875 4.168735408410952 11.358420778361937 -1.9478315024356194 0.7627997709863057 -0.8401431820634758
Ni 2.794212406528686 6.044588882460638 10.843463847769735 -0.8285917297804504 0.5440855381374113 -0.36987607256911137
Ni 6.763636539042449 1.295449522155311 10.041559172250246 -0.09022283814299946 -0.5095162848029741 -0.41575843692352266
Ni 5.554056666241936 2.46096033844094 3.3769733475097325 0.0095678461940932 -1.022526955912452 -1.2386621151802604
Ni 4.724555115762812 1.668455032937273 0.6899043533364385 0.7926435938206156 -0.7159794681986573 -0.0868724336135278
Ni 2.3482656450598194 1.4038654873039766 6.058784301083574 -2.0299342825746463 -2.958846343943414 0.6164474368395899
Ni 6.607582836719503 6.880914266758765 13.315189245130005 -0.21688360739805876 0.8778905760155785 -1.2312141435426474
Ni 5.483411543421155 7.701738482611294 7.085769446564042 -1.2037169665636431 0.2649501238879824 0.9740570333365226
Ni 4.2666297595224805 0.6754885433239431 10.024796516687836 0.11842963959451862 -1.087611604226927 0.4598163464746855
Ni 4.68436826740712 9.221673694617682 5.617734101449694 -0.6158046610492685 0.3037681251964446 -1.5173933520127352
Ni 7.726165963403912 1.462439801382766 1.1934747028479606 -0.6339905879296759 -0.04388873096315022 0.32302748764668887
Ni 9.28760668354453 7.007643926454104 0.5276501836352536 -0.18332685448853586 -1.1022334679051597 0.9397883419616395
Ni 3.3338393406559947 0.542743766331123 12.377429415391816 0.4146942573250665 -0.29742161415312646 0.26009793800200365
Ni 2.6053213093010545 4.910615244095263 1.873846898051017 0.25568361098439196 0.16800385097822032 2.8662524344650766
Ni 2.917050636667784 2.7420930703867916 10.378160451747533 -0.6710065030323928 -1.014123048119473 -1.7888591655320483
Ni 8.466247626662945 0.8682526273137114 11.85359135729815 -1.8258036039668812 1.470745570247209 -1.5509159092502127
Ni 2.9713001155288543 7.578909473869248 13.127089343769494 -0.5869831088318859 -1.2998484568815936 -0.8546598876224121
Ni 8.872809801319704 0.2565346553077574 5.818830639816287 -0.8617692449736835 -0.8858381129974292 -1.4874716247526383
Ni 3.066907560171311 8.840092284576704 1.5893686432544443 -0.8604091314013634 1.4245369329016304 -0.46195704696677214
Ni 0.5387020280029219 2.8971416404309918 9.118590463384596 0.860196501169925 0.5164790892740525 2.0747097870181235
Ni 8.128827487107376 3.4053604961967827 10.7693275040248 -0.6055631858269184 -1.9321508584755689 1.0241413515874234
P 3.103322857132447 7.6077171182619026 5.86627103909364 -0.22522863692864437 1.0884688100208997 -0.03751239512316121
Ni 3.312556356258349 2.6972401951224287 2.248440333405455 -0.6791072777626562 0.45687629000975505 0.12058422404367619
P 0.3993187672718586 7.267263139075992 9.80977105807313 0.2052246830028917 0.32527514603028496 -1.2402122332761996
Ni 9.29894900191936 2.8832542164696164 13.176391543111789 0.006817537142465678 0.4044761791414841 -0.24399563312350236
P 6.76837633712754 4.909720768581151 8.424886894462443 -1.9842977156824537 -0.9167877673014082 0.7769902035540748
P 8.068021594941833 8.766422543522634 0.06700267098496253 -1.6940733906087146 -0.107551302119118 0.443785518264068
P 3.1713952101755236 2.801875387479485 7.387536898694733 1.0850795818336925 0.5183665361047524 2.495463106053076
Ni 1.9702160300900273 8.6071690164224 10.677214046725613 0.6712718408786376 0.18140006977946824 0.2036503965372364
Ni 1.4857699359261123 7.084633370447149 2.4278619779996626 0.15290633321514957 -0.1912563937482577 -1.0543021914415196
Ni 0.8441423625797061 2.2095666119900668 4.483924603951857 -0.6383360093825652 0.37451717088554853 -0.29051845927539
Ni 4.083649577805633 2.437353561986013 5.49007123637262 2.882501292223771 2.1707461465191065 -1.5415270118361453
Ni 3.3348905799200033 8.034704687390404 8.625173794167809 0.13502662472125132 -0.7300660281987105 -0.28018596700113035
Ni 8.519851607730326 5.382658559223288 9.851852903523154 0.94076124739787 0.7804313680251398 0.3722366023814879
Ni 4.2848143545104165 6.598158568931638 1.4551060243067488 0.09032619649008315 0.20308963893775991 -0.6124162041930098
Ni 7.630383312217454 7.789876595641058 2.1394839943895003 -1.249172527793281 -0.18492196688979765 0.036412220080446964
Ni 0.5646989905739109 6.972040112433606 11.874767373489986 1.6249145722248661 -1.1328501643497522 -0.433620404805608
Ni 4.362172654385568 5.956100356342871 4.9490527934300585 0.4429223989328243 -0.1602306347907047 0.4872693004793157
Ni 4.217258399702292 4.306318652437327 11.398788366099867 -0.7152546742174907 0.7460559758690636 0.009113018044861724
Ni 5.949221194141551 0.26548033258858755 12.119620363011375 1.261241543142673 -0.6177157620290523 -0.25764304870360794
Ni 0.3116684661461819 -0.05164904489220687 2.1202647586522505 0.716754912912101 1.0483434027549237 -0.1491952029121495
Ni 3.4606243287336507 0.954018074881815 3.6964744683124833 0.7660154497101259 0.6438363703755041 0.23162271338044627
Ni 3.4591950121904813 7.850341296115652 3.552952644584165 1.4461935919394577 -1.2289867968740253 1.0389239092132365
Ni 4.681214549615094 6.0827654662588415 8.878340795271917 0.3949088471680231 -0.469008811607231 0.6229883232819012
Ni 0.8696579682245438 9.150632051723635 12.975780972369872 2.7883917174318555 -0.2568598906806802 1.2246722286590717
Ni 6.691912512766501 1.6218777564240545 5.782606225774142 -0.25144694719522503 0.7091938127353916 -0.3624219302839113
Ni 4.964320660530224 4.370342812174266 7.128134388903584 -0.9662467932634844 -0.3652899958603257 0.45411801053832757
Ni 9.100126460065962 7.541562815805788 4.158970871071841 -0.8549321674471921 -0.003725271370387133 0.32057542656177046
Ni 2.592872423279901 2.7218152182678907 12.665591618310943 -0.2005262490859579 -1.1968883736775837 1.4711644029521826
Ni 8.178724466559569 5.210633397205056 12.357656895831404 0.571861422699099 -0.33263981392547226 -0.27617864561395017
Ni 0.7324426579405718 4.50254076032186 3.255963720406186 -0.6550654063221041 0.9874936184574025 0.24782092040686352
Ni 4.890623255284997 4.860192645011066 2.8570488503252363 1.0330301694366208 -1.0469272391336872 -0.010449220357782004
Ni 7.953501064944275 3.1659453645173747 3.3880666881641384 -0.9207079282914209 0.7857242409929629 0.23838265781209914
P 6.246131736444582 3.3371682649920213 1.3788911776661328 -0.024981866756318267 -0.5398457890244509 0.8755326173063632
Ni 7.258299941140763 6.999713524988778 8.52515206675622 0.8208110573937671 0.77770445601228 -0.08821789189782872
P 4.578515850639106 5.9664652066301125 12.713139907933813 0.23089123453106042 1.1010849561230132 -0.09912939660400992
Ni 9.273313518112836 0.1891751162568551 9.404095059673134 -1.542997939954717 -0.389082213183917 -0.2833368539252862
P 3.0486307512128477 4.198760277214563 4.070420561593821 0.04954670057987596 -0.015036839728464426 0.00471180365337253
P 1.0605252108405705 1.621951527600476 10.69309974742831 0.12937019776642236 -0.5835380877060788 1.6324180796907628
P 8.705266238269088 3.0957336473580703 6.073238840963691 -2.0518241406692015 -2.0114465081831034 -2.2926794283915095
Ni 1.3910200812095572 3.7637316498561004 6.6264046302437825 2.1107854496947582 0.594625455868492 -0.3658736362779376
Ni 1.6238326925992281 9.091725767350948 4.286457607465208 -1.0946487135793663 -0.6372024099987542 0.49485842568048316
Ni 7.495280623998257 5.75399499713871 3.6667548277513164 -0.9876358004622219 -0.1600110625807309 -0.41388975914590015
Ni 1.2478302277751367 8.412145690154718 7.147637643670057 1.3620979497401187 0.728473744010926 -0.4644566734601743
Ni 5.106523824480004 8.59122522091827 0.48671271355947016 0.10117625183070962 -0.47720780247825556 -0.11324706695231464
Ni 6.6779144320404935 8.011457545420532 4.883419499907423 0.3849450510870918 0.6452854441172048 -0.11972444714654219
Ni 4.388776384882625 3.8961785757241176 0.20953135025070382 1.3657861972249832 0.8559906906186936 1.2298486306536884
Ni 4.699924764235035 0.8355719961589211 7.778016034751867 0.49632626847526146 0.9558657071394763 -0.3369003889740391
Ni 5.588304934895687 0.0612051786579262 2.6202406075926277 -0.17241149312761275 0.007732078536935069 0.7660468171686936
Ni 6.628543072220304 2.750115685822646 12.766747577560016 1.8555576953008623 0.7973499981573494 0.8247211910814507
Ni 5.038589792392719 3.2603079205577163 9.410788871793693 -0.08102574502476369 0.49916965146132736 -0.42282948483769117
Ni 5.890222695798338 3.9193335037234633 5.035079206534754 1.1811552792130433 0.6395994494760211 -0.1675114847228341
Ni 9.052322737744735 5.291569599136658 5.521530954557632 -0.25920370832250844 -0.021631976447478874 -0.5861683262400744
Ni 0.6677951317628703 2.6033479303317755 2.0831228156033608 -0.6510773682086335 -0.6799840239406547 -0.3396591826660989
Ni 7.2853739628875065 0.27565337781713295 7.640379306622586 -0.1474440245489977 -0.598974219755491 0.7122814505217797
Ni 1.8193908598959663 6.15438805716721 4.464449013376542 1.5018469196377038 -0.21157685047316466 1.7292082866386347
Ni 8.6802670308592 4.259639940556529 7.777030267406933 -1.4256201386634804 0.8923825989841664 0.1665277806533261
Ni 6.682515909169793 2.6262354378165917 7.999964918273745 1.0223400367126263 0.08301089377559252 -0.814474573652778
Ni 2.4454960555835523 4.988489942205367 13.276440934714532 -0.38738914175221023 1.9956067129373696 -3.2773661735277364
Ni 7.69821590893716 7.614817593992485 11.007216494491985 -1.154758020166437 0.48641363734723975 -0.4728166153890953
Ni 0.41146150291086203 1.5337580861883948 7.485723568092832 -1.5327983737138957 -0.14499247768471157 -1.6999658448337498
Ni 6.610718111717423 5.888904036019801 6.207637014448061 0.5673977305007906 -0.7890854441557119 0.2124875352128921
Ni 2.900968520207865 5.88137015462774 7.086025801402108 0.2978628154556031 0.08990813511605807 -0.3370392285447486
Ni 4.978908910667605 2.2032960619942266 11.512253046134887 -1.2486243685992948 0.29744861073632 0.2143518421151405
Ni 0.5508014230757775 6.358245481811383 7.717619572615464 -0.1938750623180274 -0.6229746964351464 0.933326902607012
P 1.865958915012132 1.330343288602751 0.9854298418021531 0.9446824368291472 -0.16195944455635333 -1.0094099589145196
Ni 6.187216230674843 5.328694943670852 10.806631743661816 0.7835035791925604 0.2975817938800746 -0.09171330664559688
P 0.600373809351715 4.77535579212617 0.8319286221833968 -1.3682475142812822 -0.17250970926837386 0.5718722213323765
Ni 7.6345421622882235 0.9071245044496887 3.7181631941804483 0.7196396906590637 -0.990701583871739 -0.6255897654604903
P 5.846965122224093 8.285609679797485 9.591668419261934 0.26559778477431034 0.9205369499311952 -0.6381087238631075
P 8.293042125821966 7.2536431356291455 6.351819090205352 0.534627220937989 1.3295518974832974 -0.3673412219623996
P 5.650429486839768 7.106368203300376 3.187509601525128 0.03251159947446013 -0.7994909557597522 -0.2237700501052469
Ni 4.473115282326675 7.632190706039784 11.081176709553214 0.39106196261810716 -0.009386326310906416 0.553362335453647
