# total energy = -340865.1086844505 ev
CRYSTAL
PRIMVEC
9.26166099795072 0.00000000000000 0.00000000000000
0.00000000000000 9.26166099795072 0.00000000000000
0.00000000000000 0.00000000000000 13.55537705354136
PRIMCOORD
 96 1
Ni 6.880636208953128 4.643120768331607 2.1746621038129983 -0.054121721545068086 0.5830997146170797 -1.3608604777885918
Ni 7.581401271864708 2.5273035544081854 9.732381308275347 -0.22857338503116117 1.1584665793662758 -0.6134091642338984
Ni 4.283018123563819 0.8009299275797648 4.367583572461256 -0.36257773913548524 -0.27187616158385436 -0.5878122896014005
Ni 0.4549281618186621 3.8747177944933737 7.831741192578679 -0.17004016468195876 -0.16426186743728485 -1.3449641182733096
Ni 4.078779973248259 2.6901420796597804 0.11624681298162146 -1.082557072522155 -2.0825061431340908 0.09663311254471744
Ni 4.320703822531441 0.37689033165614283 6.6714004663144095 -0.7106243745343309 0.5517661946111208 1.2382108865754546
Ni 2.602165560983583 6.5070300623188375 2.143701296961471 0.3495173064071013 0.4456415976362002 0.02052383098496465
Ni 1.70606280406214 8.492971002803339 3.3884101987420006 -0.5524655346709906 1.981721470314845 -0.5753252128779833
Ni 0.30890973926922966 7.01800516621235 9.038657886289073 3.106528709755463 1.568841126270066 0.17032298602970022
Ni 7.252047341909529 6.5058075230552035 0.4305172016886638 -0.20473591629193127 -1.4999766991981844 1.350743701069564
Ni 2.9611660680818837 3.412060776496663 8.419501950055595 0.00042397491129604403 1.642835932589977 0.11358902367276565
Ni 6.764105989142209 3.048688765364762 12.160935179829615 -0.6197759869921906 -2.175962914833356 -1.8342278234748346
Ni 7.931177164519227 7.666154732482235 7.745610522957348 -1.1996304551990953 0.26648815779906365 -1.3287684823500534
Ni 8.697579619562424 1.9680288879400467 13.247981898740708 1.6335588781634254 0.2542293950363686 -0.562834022389508
Ni 5.709582519308212 7.317693995702232 12.386646491378016 -0.6342937209923915 0.021661801244149792 -1.0576024594593465
Ni 6.061664565573675 6.679658163340591 9.120749545509868 1.8296234919336039 -0.39306716597359403 1.688735523335569
Ni 8.717751517412381 0.4346868015105423 3.7108790098442603 0.9124274334501834 1.1281962105175087 -2.72433319638905
Ni 2.88588728675752 4.532203115140099 0.980609857354025 0.12296763667418822 0.04848354942268424 -1.6345639223891721
Ni 6.586282096250011 1.2005057719051861 7.13267657064288 1.3619094878783964 -1.1328367946133135 1.7831590298234772
Ni 1.9967863456187072 3.028757670703095 6.267518875749115 0.36685451213396825 0.00170978360225512 -1.9211390807460977
Ni 0.12543993777770457 4.195041604887622 5.156750264292979 1.6537178696098036 -0.7522543913702915 -0.5437839477365926
Ni 7.328002224493327 3.7108790098442603 6.6295016377177935 0.24356214513050958 0.0784520707603165 0.2491928610537257
Ni 3.1323771349571525 7.515124825118012 13.502647015182838 1.1875498698854774 -0.1185597374144797 -0.7510863392041194
Ni 1.6646909639814396 3.7509727406947984 12.465131659771092 -0.08573600601623944 0.7004060392404324 -0.495213752137373
P 2.8389584500239384 2.490608853176993 2.156226767417065 0.23157977595765275 -0.17639310348318007 -0.7806851359071587
P 3.447671863380543 4.655559179172973 6.14715988524436 0.3175680071940144 -1.530572055486538 1.7878834318823404
P 4.6565131302650515 9.483385254585263 13.156089549756446 -0.6759432782123778 -0.38613187230634144 0.018523512725484227
P 7.9762258840519165 7.315211870530613 10.640835416423926 -0.5538899258223429 -0.37650283385700967 -0.24886710228319073
P 8.89929859806201 4.072278287164388 11.089504547679226 -0.5921183731759222 -2.192763274220146 -0.17660624793525068
P 3.017319519259248 5.678287366491402 12.118642730636752 -0.8437514682400242 -0.40594196505373314 -0.16617399685833317
P 0.6619883402677766 0.25003613823028 12.071632391285595 -0.7759872162108571 0.5882519482419805 1.243683993874884
P 2.8446451099320536 1.6997926595054722 9.575491547940661 0.8106063489466233 -0.7817356886588602 2.5363642151428127
Ni 0.5819990781139872 3.4250456253422286 1.15988783103706 -0.3385075855601589 -0.797465183578975 -0.373806260861453
Ni 2.985635376676737 0.05395102817060577 11.7460599975527 0.6227605235418113 0.3903695645367729 -0.8460623757613881
Ni 3.6215502886491953 6.044484184255183 4.623875036590462 0.2606000744494028 -0.6655994730842085 -1.3252473565706724
Ni 3.9495242311022425 5.009956640710471 10.2348384624661 0.015240985319470527 0.38010263539312605 0.19785667267359475
Ni 3.9256754538002943 7.550874836918214 10.57572871747266 -0.4122943896343222 -1.9973316660482763 0.7641395728436517
Ni 4.665858146302979 4.811905280001785 2.6821344474829787 -0.7262559104240008 0.4914936229733084 -0.1824246543892407
Ni 0.805051366763985 0.955645976057065 1.4515643975195962 -1.20904943452015 -1.6701148229105882 1.9102789981031423
Ni 5.757585708728017 8.075214517761907 1.0438457007654864 -2.5171063953544652 0.4831334239340711 0.04625980229848808
Ni 9.143602694244843 5.773487980816345 12.227817339211475 -0.5266465167253576 0.39433729093526926 -0.1184149843064993
Ni 7.247249801465875 3.6847426022535426 4.157610601599923 -1.2934217274196433 -1.9282792913353046 1.1565518788420661
Ni 6.3758108480221365 0.34462085209286175 2.9280834146750645 -1.7781507779756085 -0.566854713513127 1.7111087488244467
Ni 2.093107620935314 1.201774619474261 7.704307219168699 -2.089694176242098 0.033190627819355736 -1.117201916289534
Ni 0.48774037472170784 5.789232804666176 0.9050263673798615 -0.21870497687751367 -2.480849727015276 0.19652741233920992
Ni 4.411431054550815 2.7140279036060813 11.04775483182613 -0.6861253609517022 -0.5750102527407258 0.17329595261509512
Ni 1.1983848515160034 7.447051616120218 11.293363896056281 0.9576629082492153 -0.3473074432399761 0.6657218575946857
Ni 0.8071111601899863 2.688123037542567 9.65595593330827 0.30698740346469067 -1.5327837184258761 1.267424017804301
Ni 1.0944504907849488 0.151290160040799 10.086407377203209 1.2818458496565859 1.0702612858739373 -1.8609914647219241
Ni 2.6653856595711947 7.824103100679294 5.686453373072811 -0.5945740338052664 2.4785169651170413 0.1291233718629389
Ni 6.316026825698223 6.264383803470781 6.832168084146697 1.3408662940548521 -2.1653190619662643 -3.1047651900971367
Ni 3.7767479435030786 0.10250528642515509 1.6895149941959686 -0.7343733973248127 1.6737843013423754 -0.7302105241963746
Ni 5.900280121112917 8.613131793760806 10.162140906086998 0.7929354140294215 0.542197319975763 0.8616553451036386
Ni 5.016560205066311 2.1883638052267855 2.4899735032263473 -0.09378381602138042 0.6581633285211375 -0.24000605234813505
Ni 5.055097976854042 1.3089042532807218 9.318969468450357 -0.19113349501714824 0.11425519650185484 -1.3942092284523666
Ni 6.6701279140809 5.193902491581925 11.170769140564852 1.299129062217066 1.6752714274108633 0.34226191039626863
P 6.00088954551333 2.0189402389415267 5.298186943102111 -0.21369261126458683 0.6173900032585173 -0.918678813676534
P 2.55554235906591 6.741090761338192 8.83347041571198 -0.6385530104893776 -1.7357774552157204 0.3677747099553924
P 1.127394219275446 7.693069119604356 0.6654466445180863 0.5636045820069455 2.086515264293484 0.09930397450866123
P 7.636091380590147 -0.33329106208374587 1.357490001182971 1.4164096758088058 0.628258313431589 0.3892817307892328
P 5.685039117424652 8.152540126186748 7.4215144380019025 0.2554732947457988 1.4020703763679983 0.8620214701938057
P 9.204118387794718 7.859371506102914 4.509128612705119 -0.8009685687465431 -0.8464963779750132 1.5059833104035807
P 8.737812275329283 1.5616642460370223 7.987980784304978 0.7812842029437382 0.5231755274576216 -0.2677341143910228
P 6.074371564586596 2.8493315104426498 0.7165858323823342 1.9178244145505683 0.7610311091216572 0.1397980779679657
Ni 5.09797020603102 2.9312231177839423 7.4016694767883555 -0.7399768595545192 1.5324039664889544 -0.28255549567457144
Ni 7.704377607792969 4.354777473674691 -0.05061683017887706 1.740943315687376 0.19188991356719853 1.5333017957128754
Ni 2.0018709975560935 1.4123847926184574 13.294788481547927 0.6465658534915251 1.4758129574677874 -0.2477563857175152
Ni 7.402873492729812 9.146983200542012 5.300247662694222 -2.585788274101895 -1.1925905176331784 1.0123443589524952
Ni 8.173499265229198 9.272960314662829 9.425866634563507 -0.9711576003015405 0.5927444367956952 0.1571684509256132
Ni 0.1404604997304424 9.011735163671972 6.436581237251937 2.0381016488767867 -0.4660762113414683 0.635882148525434
Ni 8.796466375000444 1.8821547663308564 5.744619383204627 0.03209405232106731 0.8209401267724635 0.09082113384863068
Ni 8.288668020860161 8.034741058806755 12.828429577614287 1.711502898939072 1.000468947671148 -0.9382227972467325
Ni 8.848766975165145 7.398455680390772 2.2692106971973365 0.6375150561431666 0.6328202217706586 0.7692491261560751
Ni 3.054375425272877 8.729773153504782 8.81160548621511 1.2522323976655272 0.5611026415206982 -0.398775529212281
Ni 5.056311254456587 7.834439114453653 5.308149711934619 0.9454352558347717 -0.4245503241835398 -1.3819162700176266
Ni 6.7055630294041055 7.386961958980396 3.1310480865910058 -0.8246635983706379 -1.4371952450955894 0.9633532737657732
Ni 1.2311526084458257 1.993961538986826 3.563166629481808 0.4597582395432404 -0.32729706155632016 1.4920409892908755
Ni 7.9571283388881815 5.91233880384967 4.629229202865513 -0.04032415354034346 1.326360130018877 0.1523268065625957
Ni 1.3614549182948015 4.954423720826012 10.129688971800283 1.5094728116140776 1.4129492280640312 0.0175385231043956
Ni 4.463259310000019 5.775618162866616 8.037294498768755 -3.326001675147253 -1.889581874765107 -1.652900515914831
Ni 1.7541030401262978 4.22246538336959 2.9732228984864184 0.9451290374482627 0.8308417021568916 1.8670471839977008
Ni 8.34922076105439 5.269375767789141 9.201336184803843 -2.622584874104954 -1.526962226648093 0.2550791446311736
Ni 4.076001474921818 3.2695608589946126 4.377262008298357 -0.5265205326704545 0.20944334906992962 1.3636706935438774
Ni 6.90253077576548 0.6793604379707919 13.088896198562026 -1.8426055060155688 -0.3134920373524278 0.3904281856888501
Ni 7.585958009120072 1.985477857430094 2.188339724907957 1.4022264423298882 1.89489068857253 -1.6921190950958214
Ni 1.3182122226742978 6.290270146212118 4.098942609437129 -1.2251239714845097 -1.0183378575317688 0.6905039496353722
Ni 1.7634573178253143 6.0211633216352585 6.706929124414605 -0.3525797473825089 -1.0417816903770056 1.0708909490381364
Ni 4.931454801327436 4.492600252327232 12.540065907302978 -0.9226509109504045 1.5482193362546564 0.8620901186482121
P 3.7324864651628795 8.018329395358581 3.2511218179342447 1.9655782848960792 -0.7455965197341418 1.744344885169757
P 5.946273530076597 4.299902131727489 9.46797014587017 -0.7204292764398947 -0.7855689463620213 -2.1857955846530617
P 4.765430264661522 5.906003827665385 0.7272719369458247 0.6694931517116598 0.6268159245581076 0.15985782483231825
P 6.486043138293123 1.2374875846301105 11.057364731371178 -0.5409919868137522 -0.6310052800491068 -1.3239993430961843
P 2.2900012740079827 0.8274349492817904 5.543729323372428 -0.2460409456883053 0.06059755907739887 -0.489147491338635
P 8.915432411677541 4.716426815844198 2.7575706770458406 0.6236508965665647 0.06241172946800219 1.0560250876698976
P 8.811905564034365 5.502584393988387 6.777945689306209 -1.1828259820472469 1.2232532368243578 0.7787514092195557
P 5.786861819427612 5.716686213362811 4.441595358548763 0.5594046849929849 0.1228316253169562 -0.36545351802138354
