# total energy = -340861.7082473358 ev
CRYSTAL
PRIMVEC
9.37914583927582 0.00000000000000 0.00000000000000
0.00000000000000 9.37914583927582 0.00000000000000
0.00000000000000 0.00000000000000 13.72732799437397
PRIMCOORD
 96 1
Ni 5.419645630377371 4.363778908645814 1.9976286310409122 0.07473348425814871 -0.9077307993054625 -0.12889582923316512
Ni 0.511258177482406 8.631965562922241 0.8378831795930938 -0.16413254094827218 -0.2917518174618588 -0.9950927709608991
Ni 4.460674864286525 5.200483129607212 3.831022790990716 -1.1512818886923786 0.21713249018407121 1.266784327337773
Ni 6.760281978007996 3.562152693114311 0.3141788755851603 1.3348583972978751 -0.14335082831623053 -0.3204766962003771
Ni 4.8259832154868025 0.2329920513066237 6.429139041347688 -0.4230382584143876 0.32775883168408715 0.45638623774721393
Ni 3.4464046543414897 5.250849142751208 6.003125106632848 -0.10599064250021747 -0.5749171788062873 0.9987825611076606
Ni 9.028994185342816 4.756558778002285 1.142485947278809 -0.4690095829381793 -1.5171364988069227 -0.08994104523652251
Ni 5.009204829410071 7.522112477753657 5.0128908337239615 1.5525740136789261 -0.3775680418967304 -0.833493537957442
Ni 6.070577109747871 6.759634816945252 2.688222642326372 -1.3741466533745366 0.6416823001469788 -1.0220585009164656
Ni 5.0938797580253405 1.808993374140601 0.9457743078983686 0.08832382134807369 -1.1014389970283225 0.996958106304412
Ni 8.472989040987283 -0.0739714473862319 2.4146779781648706 -1.0149532573302522 1.1202373606817482 0.7566787456902324
Ni 2.4179437967452686 3.5478119791297353 4.694361910299661 0.885265785433727 -0.7517219159055892 -0.33481830963402986
Ni 6.104304518177258 9.2574232821998 13.155831484370099 -0.2821405196243399 0.19188245736803083 -1.5265212824559322
Ni 9.3412916042731 8.211057635200994 8.241462012260378 1.1790873409404212 -4.922759068211612 1.010296218174215
Ni 0.9398935834586506 0.7091928574799744 12.388543259661963 -0.4107527561788151 -0.9881006559137823 0.9837824881544025
Ni 7.750250821089699 2.1518855667907575 5.5556826374245105 -0.057472383184855855 -1.1511821298897205 -0.414779360839705
Ni 2.5529284636295118 1.9159906698476221 0.7039002054842283 -0.44433239190647345 2.186238328617435 -4.581264117888355
Ni 6.961595964250589 4.3286352491950595 4.674374950521289 -1.5734526569001481 0.09335109935933601 0.7674802071811104
Ni 4.688278596309866 1.592672754559015 10.598855919311976 -0.12867008637560418 -0.19127979078702542 -0.47147192843574287
Ni 9.428011186680806 2.651090603958201 13.57592905389104 1.0381317523292444 1.317228342920938 0.5758142366992599
Ni 1.6233144240080717 3.8249376011717544 1.9188334889507777 1.2784617636757012 0.21360390820552244 0.12998957651797613
Ni 2.667260251380966 5.78584500043215 1.6223502478160414 1.0758315808728633 1.1943902898460785 -0.32762204899590675
Ni 0.6663517330409001 2.1797228716345898 6.610092777807602 -0.9430371879162404 0.25249518595408127 -1.06227698211688
Ni 7.651797927240067 0.6490050028156077 10.495269818945825 0.12048137991722477 -0.4318265461299789 0.2559913720327978
P 6.638596939920435 2.1386140754315854 11.593263912118271 -0.08700201721285662 1.4803339852665924 0.764120289569942
P 0.42953674189116786 6.639684920837512 2.087171336345517 1.0920593555856355 0.44624297866562507 0.3399204067472855
P 4.004717068572893 4.152860677066265 9.280798927369034 -1.649263433382876 0.7134469315847906 -1.235940088263407
P 0.7094892384884195 4.510365578930266 12.651242817492292 -0.40219843885090084 -0.5221494001859524 -1.0772881108137318
P 4.1101011511959715 2.9745867230177088 3.2536510145042086 -0.9884223009192591 0.5155915444627766 0.4469916839061915
P 1.136170968386844 5.261016136838376 6.275503005052244 1.0288523839098476 0.07123601262785151 -0.2927236944568249
P 8.990033213536453 3.006006861571225 8.593390074009776 0.4014181090414506 0.3580037466115576 -0.33982244771684056
P 5.960784828581462 0.27718283483162376 4.59525060041228 -0.10868850104735475 -0.4867795053270907 0.01594881001977253
Ni 2.0304068699116082 2.7930627344909125 12.276788861186482 1.1881013715135733 1.3668989706731878 -0.5874474500628142
Ni 6.876752211010256 2.8307293841717853 7.670624686678418 1.9237076128042225 -1.0421511579012828 1.0962798214248861
Ni 6.97954764938236 5.920707738420514 7.901903168040645 -0.7096296147212294 0.9666391436058965 1.7259990356727177
Ni 4.803191891103206 7.19177896137907 7.498991945351187 0.7492117478892258 0.11735337581120434 -1.1552534717456169
Ni 4.919305716563666 2.6845647754499926 5.491563044825328 -0.5355754437838711 -0.5655833029998711 -0.6460207796213326
Ni 6.148302091298019 6.952742050580583 12.408406414715287 0.3182614337166132 0.9506196282491887 1.8670692954848878
Ni 8.392966168707101 4.820252557380474 6.631699516072001 0.6656974321146535 -1.280870116006878 -1.3219851408796328
Ni 5.98929743192555 6.396971384870972 10.291981522504573 1.0795604517876762 -1.071358118482542 -1.2387739581677761
Ni 8.094155961490237 5.682589983914041 3.101812960465692 0.7432899830881521 0.4129577342499339 0.846012239249743
Ni 2.7968331511173345 7.383938901284877 5.609685883324045 -1.7240892202445146 -0.02595965728855529 -0.2976815526827325
Ni 4.40041385228463 2.208113546082797 8.125232823306124 -0.0014979247017651623 0.1723922098539031 -0.56775639939179
Ni 0.21006191556464218 2.3226422958968254 10.558236714521657 0.19371051171570508 -0.3801010927312292 -0.006203814817866735
Ni 3.0712950957416822 9.053436239393701 9.563170305677616 0.8175293013187017 -1.2108893159423662 0.4586629495965327
Ni -0.04497863177529717 5.428293202838965 8.735055506473621 0.23355361185457196 -0.1314324796120898 0.876322203087194
Ni 7.4375688571801035 7.9465188268720555 6.72492166028841 -0.003105635508517232 1.7859561329526406 -0.06749145798375475
Ni 7.502219309433653 7.894098780789785 4.101835309969937 0.47778835757207394 1.5322515000714902 0.6273833670258033
Ni 0.8193556149069393 6.363187701566564 13.550877355360758 1.897937445818654 1.4775767342364294 0.018945687864567372
Ni 3.493366037546701 4.92546781537849 11.897515899749688 -0.9675076622537788 1.1856991898299838 1.0277231554014106
Ni 1.455493367548944 1.2326073458815487 4.351919916649674 -1.15635570367086 0.16922075410445694 0.5984096055012725
Ni 5.520218211186134 8.746888236861418 10.878070277131867 -1.0553517157519565 -0.23626766835162535 -0.3487511176650381
Ni 4.050543575131843 7.391207739308452 13.672816568300497 -0.5369898076328945 0.4656116130002239 -0.6022701168979434
Ni 3.507763026406298 0.3739793715264642 12.527916428883278 0.33806124205135973 -0.14466029115627344 -0.8185433444055129
Ni 5.842316837515949 3.687720697578336 9.865171298308182 2.0639186099398907 0.04549464199768939 0.7732101676863522
Ni 5.652679887840261 4.351586019057882 6.810882469797913 -1.3570768423764434 2.425179172925849 -0.10837688334420689
P 2.4689757292436822 9.15102625182634 0.5636332036646595 1.4907888620513294 -0.7653495339913529 0.20579701056659394
P 8.22650508839432 6.620326363830212 10.481474033334372 0.38267245300283126 -0.884668003948728 -0.6511976958365817
P 9.004130069729271 0.14277498541634806 4.8766606162725825 -0.7741625042972925 -0.4788767055402462 -0.39567015081407986
P 3.5035424107797057 7.577852741462179 11.305991930109926 0.19645850677448748 -0.016267626811771983 1.6680134602968693
P 3.8550165218705987 4.148236758168688 0.4403874757098436 -1.1560528277184605 0.16414976733945277 -0.2706988534463015
P 8.322782020409798 8.6670341892063 12.516069629776727 0.3496142369962818 0.6924109368500978 0.3887708525910853
P 6.303329992835655 9.178600940586739 1.4573344938767219 0.839860103605418 0.42777345910652786 1.7800762771330958
P 6.8837584329503985 6.426084253548619 5.486758108413099 -0.3497394497202364 -2.973886011885356 -0.0024443477754345
Ni 0.028025825675153365 3.6484126973760107 4.5038949062174085 0.6808962513422789 0.22795606316213646 0.5679592594312154
Ni 1.5014230447121 5.6464333767129045 3.940868533288395 -0.06380629582268366 0.6434928709931562 -0.1080027878342398
Ni 5.908336645061682 1.9383693118143956 3.279665013397353 1.843298161207219 0.033685050957271014 -0.3028322436457365
Ni 1.4769716115153781 8.147720263364606 3.4860690620856154 -0.9808596580806527 0.3492136591237534 -0.3764444698152485
Ni 8.109969201371202 5.651620044360694 12.78594892374518 -0.556397522735545 -0.694358804605088 -1.6326898452949108
Ni 5.668211753346118 4.703923011565767 12.310050126067775 2.127536443900852 1.10450940842353 -0.7150207038298136
Ni 4.620307926430065 2.8051899700579868 12.683707792892037 -0.6288000448676719 -1.5240157424252592 -0.6490269134375081
Ni 0.15910407831833995 7.246834547441501 5.610029160061674 -0.15650073543462725 -0.8453134134105054 0.04966240022213383
Ni 1.096056361642548 9.200463729532485 6.516527356853563 0.8821082136413517 0.5953823886391747 -0.12035488164168949
Ni 1.6661208456075496 1.375048433706104 8.729715958748692 -0.435163838033328 -0.13286329852134537 -1.0572551034222566
Ni 2.1294506499489625 4.448913415407089 10.128639946097133 -1.4314015212319477 -0.2313830865658144 -0.2698215930476708
Ni 4.239664671786503 8.655141432285149 2.1437416544606025 0.30780038628428924 0.14662564241276038 -0.7641467719325034
Ni 0.555170400376051 9.056381291186478 10.316169401703277 -0.2412913468184619 -0.14529715340932395 0.168900908871193
Ni 1.4270182807882046 6.763705366238454 10.93698819544992 0.04967936950299831 -0.1486976944504407 -0.41389592979348716
Ni 8.089466388571802 7.043213291323037 0.818268571904446 -1.2051979219845437 2.0743135800209695 0.8783636589972549
Ni 6.78973249593577 8.336269232123218 8.90705872406141 0.09773457313901232 -0.8218587819319911 0.8051075306155812
Ni 1.9384818615644381 3.6021266126710536 7.817960750715237 0.857859368396316 1.5489143054391519 0.23088943475884754
Ni 2.103076491855682 6.8215278003227615 7.9147103916808925 -1.475982393166116 -1.6325736314320207 0.16310538523533846
Ni 7.764507122761743 1.381651352375261 0.2690483016473058 -1.052399060881536 -1.889465403791901 0.3965006171351752
Ni 2.8536613957429346 1.2305251755057633 2.558389940250322 1.1589574029597653 -0.6421479269294876 2.813319848132103
Ni 8.15498910138818 4.147561459668434 11.02335981154708 -0.5522431342475392 -0.04694371573939012 -0.4775911539596033
Ni 3.4393327783804892 9.255406765844874 4.367171345695009 0.9596796815689279 0.9264443165545658 0.754974618514932
Ni 8.611031309414345 0.6920487168047584 8.040370311774119 -2.2205227037216018 4.301928671812979 -0.2888387575801219
Ni 3.8755943678366935 6.640378977629441 9.449069244913748 -0.7987713039849083 -1.4458508638880583 0.8473970354124116
P 0.6276993351325721 2.199559765079571 2.5126909900747534 -1.4174334890876297 -2.019070086166632 0.0724670568214752
P 3.0564666661735895 8.568956461190144 7.38531575989373 0.5350941332720784 1.2429016071829044 0.6062872084771365
P 6.36221227039953 0.7406392576418345 7.875820701382892 -0.18116455672989445 0.5009694236742275 0.29639497266082504
P 7.952727821416064 3.4573782549706285 3.0005331920608276 -1.0518910108968658 -0.5436651627705411 -1.9031398159551995
P 2.436758363294031 1.409291695156519 10.701673867634089 -0.3852011329619559 -0.12948846851184148 0.6070307715113804
P 3.3830016284842435 7.087070177256245 3.327901960436379 0.5623141453302961 -0.5581137340957034 0.8085528088517042
P 2.9000881676354444 1.8281080733561437 5.9829458743648205 -0.033082898596897864 -0.23450594846551226 0.9475258198152132
P 6.337526358556885 5.827460270510346 0.7074530259272349 -0.1895304121960865 -0.14175031659833007 -1.5189259866071776
