# total energy = -381168.8202212891 ev
CRYSTAL
PRIMVEC
9.27967590562512 0.00000000000000 0.00000000000000

0.00000000000000 9.27967590562512 0.00000000000000

0.00000000000000 0.00000000000000 13.58174369189569

PRIMCOORD
 96 1
Ni 6.725046059154204 5.501214566675956 4.011164021030787 0.44337337042731384 -0.17637639131263172 0.3141489542101364
Ni 4.593068367545732 3.9337288377840154 12.981118643202306 -1.1892581108258358 1.2382394258205447 0.5380581009964087
Ni 1.7214169921876585 5.800057248323852 9.803900533062501 0.14053752723715152 -1.0562816837653939 -0.5414771539802868
Ni 2.2133233302659514 8.031698658752918 9.7732868823745 0.08026161316522952 1.7973178378223629 -0.9692536984106082
Ni 2.48187714988122 7.613714218637833 4.188542241341775 -0.40549999242030815 0.7769323537329458 0.7026452129835964
Ni 5.986690089377836 5.779688359793944 6.810103568158819 -0.2729256858942913 1.3818046841404268 0.08499964207084716
Ni 2.138157955736453 4.744726110253829 12.479068691432879 0.5673769045651842 -0.7086626228222699 -1.4562440341969245
Ni 1.7329145105879113 2.5619329135930693 11.61430590495239 1.2366162883948253 0.16908320008532818 1.2314586554532856
Ni 7.603098269445025 7.7098145419251765 4.455993635463944 -1.3078229904466379 1.4718629716811038 -0.65071432844226
Ni 9.005108818261656 8.746809040480349 13.198086744668258 0.5464566094727492 0.358524395001718 -0.12820445959309532
Ni 2.1104581232709525 3.1269166991305966 3.273037259248354 0.46352053479915006 -0.08436277981779663 -2.831006466778589
Ni 8.62457714994917 0.2053675786635644 1.8886228318123206 0.22330390910210574 -1.611637652610302 0.3189126941473669
Ni 0.34509629804355446 6.730641703702512 5.0083357185667134 0.37762640593849156 1.3590097977330982 1.8045143555708019
Ni 4.175306639651475 1.5073719886200776 13.304784457796673 -0.4011478860991995 1.3498831528414819 0.9431001799436919
Ni 4.39341614124917 5.250013740933547 3.432608709536545 -0.21189952391990602 -2.581517414640683 -0.39731617105793515
Ni 3.6835394967112003 8.65090359038623 2.3944616752385874 0.559592375523759 0.5201025449592527 1.1124695438108714
Ni 6.740552397529363 3.5160784660001725 9.493719943439277 0.4113255979631497 -0.5845588156611095 0.28725341537087307
Ni 4.834562652330382 -0.10508119359223848 8.242338949244589 -0.7862775423932716 0.7798163601489603 0.03462144672861134
Ni 2.7870671298227188 6.460612415624256 2.2810807395501533 0.17247345671379977 -0.36614977275745975 -0.4112947447252142
Ni 8.397058057021486 0.6995687805839736 5.731318977300419 -0.8229430161351052 0.5502857534108523 0.6677124056621533
Ni 7.211403151063529 0.6930080497454113 8.210394593037138 0.5128054970772072 -1.0633959262126718 -0.12086190318509506
Ni 0.8999745165610044 2.2328848869953566 0.6188903506213922 -1.4722519795894065 1.1061220043262885 0.5434219364114835
Ni 2.5837772705859634 1.3595467520453979 1.7200732951219955 1.6889193572116012 -0.40834491806827095 0.3395295990667701
Ni 9.210644359058428 7.242295192027566 9.300628447981278 0.25599959956291396 0.1831103676023556 1.7802205160204438
P 4.252866170554876 2.0698224226456845 6.488786439526603 -0.767497176461975 0.726064363238485 -0.12046106820225061
Ni 3.450406199883474 0.12782103930637864 11.338989985532226 1.110387721581178 0.49606273040122945 -0.33262618707871744
P 2.6562144204103166 5.197676369038933 7.81124139916066 -1.250204568602221 0.5102616476094309 -0.0058505452435060525
Ni 4.428112849319021 4.164106070878994 7.55504903576894 0.04346989825817675 -0.870421778442359 0.7770781352821906
P 7.04575165714673 8.501686402431375 0.5808882220074167 -0.3216118382460848 0.272583214953208 -0.23728453965191393
P 8.172527019723248 3.3296033794359423 1.3391194015575234 0.5108126350168944 0.7259676897596208 -0.016850238788119365
P 7.323826424202402 7.8460773023685295 9.011418997851786 -2.0090677235382817 1.8897399976095262 -0.3513312196873885
Ni 4.243660732093979 1.7246927177690057 3.9028228773061766 1.909580686484537 0.6144149797905935 -0.9211475869320007
Ni 8.668776246107688 5.23634477838022 8.301107136515615 0.7040410648898584 -1.0841490995996232 0.7581471027056427
Ni 1.6568026091198937 1.2346794335677524 9.623304121160546 0.8584964877596828 0.8291781984115396 -0.3793698709921595
Ni 6.520967427468682 5.90360915133307 9.285050656101937 -0.6118824431767268 0.013869816003556757 -0.16635885917562962
Ni 7.824956760093326 4.60634758371261 6.331089483763715 0.47535480842991684 -0.7614026335284629 -1.3217054048556849
Ni 6.3383805250930765 2.684879339166072 7.260541818686498 -0.15060571010643095 0.8186986390364546 0.49125913836499907
Ni 9.001174235693691 1.7423519409455042 12.167259518694852 -0.5793227640731506 0.11645271837380589 1.925670135847232
Ni 6.666881050814588 4.817849956092402 0.14493461754184786 0.8073022242740548 -0.4495787279070773 0.435865749196359
Ni 0.7497068692979094 4.791087370889554 2.0694911382172028 -0.8495390214560788 -0.42512830817419683 -1.3763740000431586
Ni 4.073926180795332 4.832827352943095 10.17913629035721 1.5046712764603765 0.6561774084393602 0.6416005390664499
Ni 8.995829142393816 6.7623781951705215 2.932732985822952 1.025591967991021 0.19918490456671503 -2.297005566570689
Ni 1.9058876687644357 0.49111014188883195 13.02586988007496 -0.3779264536774136 -0.5432059637459354 0.11317764716695992
Ni 9.044575279727576 4.561545308622683 4.195278358054239 -2.108715711649923 0.010604514988723671 -1.3907541800242307
Ni 5.878980891579825 0.6860984030942182 6.295762685702438 0.6469782584385955 -1.6506567141859767 -1.8187862921087838
Ni 3.1594976411025804 3.512041806997663 5.175880266360552 0.5857024423472493 -0.013964946820524335 1.5511892175162576
Ni 1.9027975367004453 5.3272020848022335 4.0023362653777115 1.4353445650400956 0.00998539334748603 -0.9061498279715879
Ni 7.164401592792923 6.75542771794551 12.368527336560003 2.0398939648905188 -0.3160232884147138 -0.6794955143400104
Ni 3.6405838771189725 9.299719967713816 5.700937318509113 0.4743510497557508 -0.712086046681522 0.8374615214662545
Ni 6.28936527715915 3.41194194341128 2.7812561967942777 0.3309115183804559 -0.3087108139137006 -0.1936909713316793
Ni 5.082738303739875 6.649695091107349 12.506843689272907 -3.1886399745349214 -0.8413351454890478 -1.588758176908967
Ni 0.6885538053288484 6.631878113441098 11.946474686544459 -0.04756875091789872 0.9081555455477069 -0.4674916036317561
Ni 1.1162986085217266 8.940234604269591 6.01284207190858 1.5357008920726714 -0.6405024209062646 -0.1676845199655886
Ni 8.814921861350289 6.567755553194328 0.35326148483966624 0.15800714477682465 -0.2640006154905195 2.191405731750987
Ni 3.6304226320436883 5.775688819494906 5.776030311566842 0.015370568918799333 0.6963295551782137 0.41457547235901504
Ni 5.292208427104611 7.966406859346801 10.31651632377505 0.29961425092907107 -0.9920467850457237 0.5424258910468013
P 0.015118447923883761 3.114352018005542 9.379036141259 -0.25696016370397035 -0.2681228651890092 -0.8797116883847171
Ni 9.191407590984397 4.530746064417324 10.999432726014186 -0.5654503769664327 -0.22049960688409123 -0.5474881360610571
P 0.1529002913068011 9.057743139784039 4.036901202050239 0.21823857876405642 -0.30015598236515406 -1.1447651706197832
Ni 1.5579462220998017 8.229856857234758 1.4663799484414846 -1.059679396593033 0.6208203690963049 -0.3848599475724533
P 6.416060691782759 4.924148643158502 11.214228455359475 -0.2724250921087889 -0.18390509558950907 1.416929809978334
P 5.888344084530475 7.7318073737319555 5.832462804421934 -0.0016123387924423846 0.3741587591048653 0.8037828982668866
P 4.125660373758535 2.5191628875181986 11.336437146700986 -2.1164027958815357 -0.28972887349455906 -0.26282973511086993
Ni 6.883895550659877 1.0389896288667575 3.9720353397664563 -0.6216186966278843 -0.020574995937874242 1.74107521327955
Ni 6.128919681404208 2.6379334589506733 11.854960379071 2.5473284274638 0.8609128105106594 -0.2845239322548519
Ni 1.949511425019148 1.9250594791073916 7.12897550219986 0.7610676187865473 -0.15350591447236145 0.07478747742453572
Ni 4.943283334797986 7.262896072454169 4.003924945886285 0.2793488158118157 1.7256771335569245 -0.16639948260557794
Ni 7.819611666793451 8.539334047427198 11.184660624141777 0.21461692285106912 0.2993759096660199 -1.6183749713341353
Ni 8.051139579696041 1.4173034546468295 10.262555936571152 0.693059111957058 1.0489810363389225 -1.6006153333578692
Ni 4.40170289179915 6.944538232456207 8.316278478591945 -1.2343984548079 -1.6292625647809167 -0.3385888324200556
Ni 1.1199548008136555 4.879086537144274 5.952878662385777 0.7921147179003389 -0.8223334075755644 4.576281062851467
Ni 5.537665133484828 3.857208630577812 5.368781528463261 0.10451894305069742 -0.11910481128467228 -1.1425622494311936
Ni 7.099360344635237 1.6214192050358225 0.5830587381929042 0.4005403344221876 0.8036967663109836 -0.311544940928386
Ni 6.815355864700016 7.096697077661168 2.208921052034248 -0.22014016666214345 0.46839971726832236 -0.5537060919463109
Ni 5.829418142769695 0.8950210255827518 10.176515709892133 0.8921357730806829 -0.44354871966291354 0.5578782210461295
Ni 0.36159184986622556 9.337766638771958 8.165942161727429 -0.6580026345735571 0.04191000997022459 -0.4899720441224593
Ni 8.6904999673143 2.4820256246951056 7.294985191605157 1.0744760952862336 0.4015209531679021 0.625541171610742
Ni 8.031067640793905 7.413644406927218 6.68716178242375 -0.24256532843487905 0.15389080861560592 1.9926969954897424
Ni 2.9054943532480837 4.353049551224069 1.1734419245482943 0.43709576494871816 -0.5806612803789161 0.155382562669784
Ni 1.2368230386932235 6.941977041916683 7.447263744628813 0.44428251250514456 -0.8537340333740329 -0.4778161254862158
Ni 5.827775640141088 0.5130760626355944 2.209043543755704 -1.438890373409825 -0.8638338408121963 -1.8044835023328663
Ni 4.889349858654105 6.505526046824598 1.116808062726871 -0.12554439626242894 -0.8028421316201722 1.4963956667151455
Ni 6.017387257148648 0.41559770748187663 12.480943185958184 0.21981106545749884 -2.730281700663001 0.03953636753172546
Ni 2.7373559061987036 6.596012166211899 0.02924675443266907 -0.6024891748872849 0.45482043592199084 -1.0277313829315269
Ni 4.021625927604189 8.516413248033636 0.15896455948643406 0.401186966867251 0.4091347609594179 -0.5879297890158713
Ni 2.2236330501551205 3.575923095671868 9.636587049197772 -0.5208311955951611 -0.6595393829330577 -1.584679635964219
Ni 4.320895474342006 2.125621113639002 9.2673942168282 -1.515391491091358 1.3896447490101358 -1.5149811430268165
Ni 2.2529661055733605 0.8559053358646356 4.150703435023074 -2.562230798496929 -0.6934365499011348 -0.7360299590916292
P 0.7037826813955596 9.313639481515576 11.028185801690686 -0.7776808018631962 -0.8866973756739308 1.2206191416356205
Ni 0.02879297828273173 4.352650525161752 13.345136200340386 -0.46488476213652835 -0.20270268791198637 0.08367603816341718
P 2.9105053782167167 6.755112208966003 11.315493846234858 1.4511043989775136 -0.6707563346947997 1.4621200333617272
Ni -0.513682953437351 2.001672483072273 3.224373711029818 1.3034827112000713 1.8052877434017167 -0.6136115100526915
P 2.790862517252665 8.435169685810703 7.599664789373924 -0.03410491210350901 0.6736603957154721 -0.0348585024400819
P 7.581717896245523 2.9636036835324933 4.852892796072124 -0.1861715230261826 -0.16036073261066577 0.6175229292919557
P 4.456842725805851 2.820696675167768 1.68842774447749 -0.6113337697621085 -0.3410601767786836 -0.22689162645336408
Ni 0.8904359377364525 2.7405295553455042 5.004152440685492 -1.1647647536701615 -1.6565671661331407 2.333355565954633
