# total energy = -381163.22095510364 ev
CRYSTAL
PRIMVEC
9.31655667767396 0.00000000000000 0.00000000000000
0.00000000000000 9.31655667767396 0.00000000000000
0.00000000000000 0.00000000000000 13.63572242975633
PRIMCOORD
 96 1
Ni 6.545002318785632 4.777045903709532 12.314489785153052 -0.08393777646523609 -1.880052338008117 -0.41909907126098145
Ni 2.7390490876586453 4.850385839416744 7.170617497733981 -0.38325660764107544 -0.945971845064532 -1.213617770617123
Ni 5.131531576184597 7.976957110223443 8.646602336955366 0.6907101521089072 0.24698479765881334 1.6225280742705606
Ni 4.7265594820127115 2.549699385764162 2.0843699778881137 -0.3438572799078465 1.3523151593217422 -0.6597921223738121
Ni 0.6816188656255845 6.972501847477339 6.037120469046128 1.0178622034469307 -0.7744805497583437 0.061384059534436215
Ni 5.635715684501057 2.220377733404086 5.920344881883865 -0.6511015365783496 -1.907143023577322 -1.344166819182995
Ni 8.25248496319665 6.238953425495247 1.0257240304323334 -0.39602367749875667 -1.0723050557768434 0.049584238686030735
Ni 8.389578097588371 5.0505520638412165 10.938194899443847 -1.234814459299396 0.059316378372130094 0.1506334780205728
Ni 1.2662411943310823 0.5958208300672949 6.635019822951873 0.22041270359723977 -0.09692570408447178 -0.21255772632919523
Ni 6.792720249491812 3.0807244944328183 7.460908366728739 1.2583068859943811 0.04303923847866136 -0.5236072156784015
Ni 3.6570373860629526 6.151862251842933 5.543711890409413 -0.5033178693017462 0.8481987053781005 -0.47069314128818934
Ni 1.1869479787817834 2.2452343071422516 12.587831042228077 -1.238527646484925 -0.4270108699088904 0.6737850942187945
Ni 2.544556646370059 7.062835182921587 3.0716510996938378 -0.23536932490707207 -1.471561895500917 -0.8715798033062022
Ni 8.033443394546719 6.329910970250012 3.3969312296822443 0.19131861444476084 0.9766602752873244 0.48999312716838195
Ni 0.64465449457478 9.143548412236902 9.254183456763924 0.5985690138972724 -0.9162987434801316 -0.15646036911499506
Ni 1.9338470267634227 6.686110889189777 0.3639578158482247 -1.2422858279757767 -1.1496582370460264 0.9502946408096021
Ni 5.9869219289566935 5.454536602984525 10.135636877389288 -0.793894178398265 -0.11076955194609954 -1.1965844692839198
Ni 5.286288902408237 4.391610629301115 6.268409583361799 -0.18484457668464294 1.238737448502886 -0.6501533137324674
Ni 2.8330810961816244 1.8625381004546069 0.7745422038806317 -0.37915569809882443 0.3179935247672072 -0.23454888588830575
Ni 3.837918337759537 7.560693349121026 12.833546844862168 0.8697802882036183 -0.7805542667562493 -0.0124348833292431
Ni 2.959283175588369 1.2641915518189397 4.919346061737783 -0.4475123322963519 -0.8265122215436024 0.166091721557172
Ni 4.268669344800053 0.7392445648544739 9.951922760747507 -0.10351235616305399 -1.3365856644016272 2.82375081365744
Ni 2.0263697530729146 8.813583917452561 13.063976972634116 -0.629044042557678 2.8117162510904095 0.433500334287976
Ni 5.808426015819692 6.8882522236714046 6.7957304290176 -0.8553890524789527 -0.6447051461337026 -1.4090941159839991
P 4.962314953693478 1.5688522781351912 3.9133433188950106 0.36500486051973907 -1.561803502696994 0.18987545424033106
Ni 6.493155679785297 0.3787487815403956 11.049176519886558 0.21472748028700436 0.9398585330779426 -0.27424774713982447
P 0.032293049434494105 4.852249150791419 6.938442378859653 -0.12902129906743584 0.6112262976499667 -1.4629168182314096
Ni 8.11042610399142 2.958314253673538 12.013222148850081 -0.40686987618464127 -0.46851438846931565 -0.9153080974320881
P 9.31869968145636 1.8061729313706851 3.468723685292788 1.0694974111247193 0.5536852660107044 0.49470030283606414
P 3.5187051496070727 5.154692536571808 3.2526792529890223 -1.053477124437063 -1.6246885722569893 0.09810584043550201
P 4.49123257194812 3.4875598999793787 13.367971565133919 0.17139102228289835 -0.6887067485256333 0.2653370749137559
Ni 8.385832841725273 0.3727647570606265 7.594620522631111 -0.7455540965319805 0.15773255095919933 -0.31358382573528576
Ni 1.0067471357369548 0.548438685120682 1.5156379685858452 0.8668898540297006 1.0442792599878787 0.6361505716954722
Ni 4.820284044158869 9.168777648250002 5.814490162688573 -1.183970380064335 0.1551874159398424 -0.6751873738829598
Ni 7.743922073149703 4.992109302574532 8.420931106434342 0.6072675701125348 1.1387158791019099 -0.25876790633667046
Ni 8.285009063241604 3.9750207887081306 4.871416103247015 0.5327863110745081 1.492619487502165 0.2522938685765526
Ni 4.595661857941786 3.1531048247820723 9.008521690159697 0.05572557569707822 0.9448984094946951 0.34165075917483095
Ni 7.573904226767473 6.1225150976918 5.7791599157133575 1.3710559302643548 -2.156310687820067 -0.3506712175058864
Ni 6.630425828757612 8.690102272652844 13.368162554549823 -0.3535464821711524 0.12015099316099953 -0.8321347099367025
Ni 1.6066681824842224 8.735837250344243 4.146609406579211 -1.743836835185087 0.8989137152344648 0.8172865891802763
Ni 0.8484243631978738 3.9255032889261403 1.523205807734088 0.7162656319805083 -0.46810661150793575 0.2994522714299101
Ni 3.3451749612835813 7.536945445650793 10.056536514567266 -0.26045069335573207 0.31292922287042235 2.5868647949955257
Ni 7.194096152710575 1.3335812674118401 4.2964252310372135 -0.30512592477591965 -1.2443486240420762 -1.1932150385910547
Ni 8.374867254285311 7.334440765451102 7.88626136071682 0.02442496581158374 -0.21945162523555112 0.13547502511257958
Ni 2.329511880618806 1.5652840368526884 9.287999763247214 -1.3395583738767058 0.5782567847024815 -2.6105546824132975
Ni 1.3090414566073691 3.142586432072031 5.513072529819943 0.4527375852510332 0.04595332680166279 0.3937119986464445
Ni 8.881250070023889 0.22052290119279772 11.35259814413865 0.2545862641551551 0.8098154776142118 0.3522691581206256
Ni 7.423525682274319 7.551311576349537 10.087666857703963 1.1229694149009306 -0.3716074534379213 0.4674082998893305
Ni 8.043598441538698 2.0300591095947715 1.7292684810037198 0.8132206466410188 0.23975768378275483 2.0918312771897587
Ni 9.195087604860415 2.6539982399616004 7.813705879098347 0.8784418205333581 0.9260108285615729 0.4209065567833654
Ni 0.5020301203673366 5.9978688832829095 9.658931953570846 0.6240278202900091 1.906121524291343 -1.4003382241682398
Ni 8.839428046219306 8.408267110676361 0.5603918275892227 0.2075664437621909 -0.3025900457279434 -1.3006511552885471
Ni 3.9745176946369685 8.856915223470631 3.497699108824673 0.9251407672517938 0.4001564687202076 -1.0702216908852535
Ni 9.22665209954741 4.647843892989561 13.222560608765649 -0.09097437159704332 -0.04066585315047835 -0.8296132290664293
Ni 5.817621457453714 4.887987462957688 1.8070198063904748 1.387749588869952 -0.5062841510189215 1.3838332845346812
Ni 4.2118010816449685 6.2662043543498696 1.40501130896001 -3.511237059512411 1.5236264774066406 0.7698492216339192
P 3.9787474114574812 8.943456720267415 0.9150815326598135 -0.04145029672498668 0.2756487412524091 0.6769066705669117
Ni 0.3529521672137062 2.803109732719975 10.059277445599415 -1.6901995094756053 -1.815445143550693 0.771656192935671
P 2.2449361773223035 6.305305943547427 11.745756844195096 0.10104435423853567 -0.16236542174552038 -0.03863648142527539
Ni 2.368091742631454 4.214474933467628 13.23880029905163 -0.011831188306973172 0.1469125775255599 0.6731772854314665
P 7.643443007270348 6.727504351378184 12.445747028319289 0.21735926148289664 0.5836722992910981 -0.5532466358113892
P 0.5148739256729721 7.390507804715077 2.2865877081361035 -0.34711923848856996 0.09412757251404434 0.19209945847484333
P 6.435756372888431 8.902594301820791 7.0248785985637685 2.0172255767587255 -0.11812856341433205 1.0860373177612714
Ni 6.6444472468520415 3.2338048404192508 0.5272770578384969 -0.5169128343773614 -0.1808331415324047 -1.2654535243414917
Ni 8.032250875266927 8.291446804041106 5.580610113906416 0.4797997315751479 1.6408273868003806 -0.20013544140544243
Ni 1.4596808646929775 4.3357858205158495 10.91300945124805 1.043647282830835 2.1914386418714518 2.7625675572799007
Ni 5.75559182179078 6.312274728088712 13.598442685756108 1.0072060092846655 1.4166230773711925 -1.1555110962823778
Ni 5.233398809038084 2.615027082560271 11.371592740292089 1.6301704213071664 0.2949335576239501 0.32822471557691213
Ni 6.370139862829247 8.306530309619102 4.006693355454858 0.4402379101221257 0.7332467399195373 0.5985613005877884
Ni 1.071338824540067 5.111174899416271 4.061182169984482 0.26458425590813145 0.2738623387759477 -0.48200753785974404
Ni 7.075906312214934 3.0564641803345487 9.593344324837972 -0.376315657546868 0.11487123281929894 2.6898511034517805
Ni 2.9899160145880272 2.576782616595065 11.11750507965158 0.9218070748928704 1.05245125427571 0.9820030276564765
Ni 8.352964029076006 1.2724926039931173 13.450958795483512 0.14287954510676687 -1.090928841525618 -1.004539775306412
Ni 8.401708254637505 9.239490314918923 2.677169448561373 -0.11351420457077224 -1.8195627652634923 1.9820600846011864
Ni 8.104165377772512 4.153852097892574 2.5254586364353266 0.11387467323398452 0.6796235552774424 -0.41861056166033717
Ni 0.395122630245353 7.542554012888565 12.159069120080026 -0.5687007655829303 -1.9411728594685214 -1.137518002139067
Ni 3.0478090989991826 5.096398840215098 9.419079991832858 1.2500297335872537 0.5482365841913074 1.1225438973277375
Ni 5.411261196307695 7.621297551582335 11.219076977652183 0.4911274978831412 -0.10012055687268563 0.1067383192995194
Ni 5.0381424100858805 6.526536903062602 3.6901950119752955 1.0439563294308214 -0.4221483996102665 0.011026175907174559
Ni 5.439872342465832 1.0910247092135095 8.230386090293003 1.5040135882717194 0.11024916066625529 -2.061804391810365
Ni 2.2051917457004837 2.788165975495081 3.1403066706051166 -1.765585282605772 -0.512945107978865 -0.9700720805468455
Ni 3.518285904547771 2.2611190366113565 6.950060125280753 -1.0919405706195837 0.34660604629757724 0.9174230868925618
Ni 4.977603423522687 1.275911780365646 13.506851615133954 0.9614629987215957 -0.24440983784278555 -0.5532432933772795
Ni 2.188729389705229 6.969231736014785 8.332244938245305 -1.530023639182236 0.041903582212321384 -2.6247057771026987
Ni 4.029140667585569 4.811274933662315 11.671046442971809 0.8010919816982849 1.0781157489213498 -0.34178137121542423
Ni 6.271989936168236 7.641318832303218 1.833459263141427 0.27904105476340973 -1.0380895862373993 0.12569480579736417
Ni 3.861805989582872 3.353271049206545 4.512374634460871 0.5560283123215843 2.1474288119494047 0.8691290277728645
Ni 6.207975873891273 0.6070165364620302 2.081479050290305 -1.476200422714193 0.3953513340220804 -0.40071979742284536
P 1.781008911255698 3.55339069084665 8.591446456953609 0.6241867144653767 -0.40319448421558307 0.10180231545048272
Ni 8.533919513227577 2.0460370046326104 5.833921705359372 0.17930102115859445 -1.6787691561514764 -0.44275630566860524
P 4.866475533137064 5.415285948876994 8.030963327107028 -0.4424066356386704 -0.04340973444420266 1.8942479127822085
Ni 3.0093410356690153 9.070031461949096 8.14381291720285 0.8325933947406757 -0.07386496561026633 -1.48443180948505
P 2.839304556173039 8.182331289940132 5.97942769060775 -1.4499396892454512 0.23057267484937707 0.17172063770817522
P 8.228308498110241 1.2976938903355977 9.52532973303958 -0.7323964761041 -1.3655689390078547 0.595471091698239
P 1.9727436517097652 0.6900093567457465 11.233449629940738 -0.6780693234164451 -0.9831885633241455 0.08697810595345665
Ni 6.2692974512318305 3.441666540821131 3.8234972393752393 -0.7490322848885681 0.8961986302961468 -0.1674916872284922
