# total energy = -340893.1749410156 ev
CRYSTAL
PRIMVEC
9.03989480489057 0.00000000000000 0.00000000000000
0.00000000000000 9.03989480489057 0.00000000000000
0.00000000000000 0.00000000000000 13.23079981353058
PRIMCOORD
 96 1
Ni 6.3596110238489 2.1477795090940877 11.32901734253136 0.28053589414138136 -0.7472389404335712 -0.25097797797860644
Ni 4.615173530322704 0.4389293684901687 5.903887339241423 0.3050847871253391 -0.6477228499141038 0.7159031064347671
Ni 2.7198782763456375 1.621061012543843 4.8516942356326656 -0.09320377514819432 1.5449002991837522 0.36629478297575624
Ni 3.315706766822471 4.604705332419893 4.859699062267329 -0.04350923613654442 0.29718584399323655 0.004530026659869618
Ni 5.109303206976892 4.5845011680737935 2.745960180135957 1.0158071206901151 -0.10423869280611725 -0.6359893635272594
Ni 7.266484206415473 6.0442723818422035 2.5188527170334187 -0.15507685850390712 0.14217583417152288 0.6822892750350636
Ni 5.1858982336008275 4.381103540428503 11.41594406465022 -0.10242915040120423 0.3078235262127408 -0.5236249562902142
Ni 5.545414840332082 7.8614719866980405 12.410873956155907 0.4842883634741208 -0.07645509493494575 0.3861352147404511
Ni 1.8089100215424714 6.516010239666285 0.3121810068361856 1.3738265510309566 -0.026577236267896164 1.2149436885173979
Ni 2.9511820585038615 1.6207265364450485 0.38789373975086855 -0.6647463810552938 0.4287160255254552 0.3733959127969118
Ni 0.6226399137583077 9.237868252921004 4.719862741266463 -0.5802658447127103 0.10746285617036977 0.312508590393236
Ni 8.80511042044832 2.227836815335274 1.2001508658841347 0.0452357319093479 0.9277836041912796 0.6265022499724306
Ni 7.1698296537584305 0.45302346810180305 4.89096353761005 -0.690361767630553 -0.04023185093685329 -0.7492459435612708
Ni 0.6942675183204171 7.480702587851493 2.5939642969597276 0.3111495052621802 0.3999921752282014 -0.4983733808122772
Ni 7.64227262335835 3.8597276215644087 3.8815463110792825 -0.3701730349842399 0.7638652361363425 -0.14765074124316507
Ni 7.532365585273397 3.922491609508464 12.608105471720448 1.2098696164286 -0.7770673366489134 0.19051385915527835
Ni 8.024750562277118 8.509623386899804 7.102848555001197 -0.3690350647250548 1.1839629238651674 -0.7413030345651105
Ni 6.869307398938874 0.9043239323000865 0.3178571566316735 -0.9172708775854138 -0.6354715433505767 -0.0052005703643329786
Ni 1.6769637205153307 6.416806436742755 9.448695769906813 0.574212953650411 0.43258450734192594 -1.328899094390647
Ni 0.0095153930159748 4.8112488433727645 1.4449484986550758 0.3195246166997529 -0.3449831659821736 -0.1413037159792147
Ni 6.571397673647739 1.7937772380456616 6.770940690251786 -0.7847446506885131 -0.2679439164089837 0.7256735555579695
Ni 3.282403795256015 4.407608511284325 0.5374606032582848 1.2216606955262572 0.3983965486063074 -0.45148725778369986
Ni 6.006576021518609 5.768040323710774 4.7196909832697855 -0.10247388759621061 -0.6065258068505038 0.8866780924002213
Ni 5.500170168049207 3.106026412456581 8.837459683138484 0.2802756985014592 -1.8256125710019977 0.33138537269308094
P 0.27327330064128197 5.632848700535871 12.501808967523562 -1.3319821041913449 -2.643208721002893 -0.8323635381180567
P 3.9997103888571783 5.98219542588486 12.42538750687522 0.677532991297001 1.359273592917446 1.0634311503259815
P 2.332419355523202 8.471601590371979 1.2030345922494166 -0.36752916960348964 0.8566527496827246 1.6805730421294345
P 6.312793409912234 7.632780734068237 5.81881289151832 0.3001672952190637 -0.011722687753566908 0.23912082152970432
P 4.8783519807065865 1.0953911437627917 12.624736165746183 -0.7519376314608212 -1.157935132342838 -0.3487850562267671
P 3.946754686512907 6.28618900021623 8.348726823537818 0.4126157775294829 -0.025736999754787937 -0.28032712056468495
P 4.8121347530398415 1.1427421114786152 3.8916411613366826 0.24293248196631065 -0.22380655977013714 -1.141613769474995
P 0.16526464041435163 5.6410478849036165 3.653393836165376 0.16613440186964937 -0.40882777124196046 -0.6995483192258275
Ni 1.4216770980840858 1.1323914322051103 2.752072052849334 0.25845937395731616 0.5671480763838297 -1.8056754657584386
Ni 1.8279480394900705 6.678656022626021 4.729097897551015 0.6439307298615232 -0.6546218910267823 -0.3260781015475545
Ni 5.947500310555854 5.45087562300255 9.090114792262726 -0.2487953685049909 1.3719843556158953 0.6644597030528105
Ni 8.573526401558674 2.2405830666677122 10.056082669570637 0.6775517603500782 0.11098089662595725 0.683293547929862
Ni 2.5036439984222882 5.295036880648009 7.1627450883901815 -1.4361387788066171 -0.602333366035711 -0.6127440198460737
Ni 0.24947487421732675 8.82894862240835 9.38109995831936 1.386918094107592 0.8386339445078009 -0.13672895212433875
Ni 1.4542749578747043 1.2660101137262234 11.720093125168058 0.23973968606062582 -0.6850262143502525 -1.5924441104009865
Ni 4.234883245887945 6.83259638712254 1.4228667482084467 -0.4268131520757875 0.8807375585460703 -0.25791018632206547
Ni 5.688706209034549 7.812394399120872 7.961395365228706 -0.6867647943079139 0.11629125309527713 0.24057400903646306
Ni 4.977058589429205 3.0005850822852627 4.947935665108224 1.0581981840618162 -0.19291244129444196 -0.002739767528666249
Ni 0.9364969170462905 7.121891092896077 7.0092540066533955 -0.7195278476715479 0.16093640260847766 0.4762958321869475
Ni 4.863390955206455 4.6026080768815065 7.031071792178815 0.27636299371061435 0.5697801146900381 -0.7111059421564399
Ni 7.922608793620933 7.064984956628205 8.896495618565165 0.552100695132404 -0.5626938972672181 1.92163504654591
Ni 4.529032375041283 0.28872428842667447 10.346789406874759 0.4554393004529124 -0.24956721367400886 -0.21766522275908964
Ni 8.397112859180991 7.297002890456829 4.9013630323141895 -1.1326671018046686 -0.6499162580209968 -0.15217048349038956
Ni 7.451793005042177 5.790459262224566 7.122165905690762 -2.3869527824547987 0.8425116822956522 -1.531453686760543
Ni 2.2602267575509662 5.259338337022621 2.58826193147001 -0.5731143212695936 0.47699620068808174 0.2633632390168368
Ni 2.5738658993800048 4.939642465837034 11.238532517912892 -0.681000123909995 0.6083111808857007 0.6156352253509398
Ni 1.269833989125955 3.3503114832058563 3.9311879880771206 -1.0727251740333978 0.35260700107601856 -0.30552033200086093
Ni 3.7942245455680625 2.7823710674528326 2.723612656789205 -1.2356626662323043 -1.0462217284262303 -0.3820178501379679
Ni 1.0557150465301168 3.2052844547474835 8.197539106935432 0.6287985022057752 0.941578601092843 0.8179527620093656
Ni 3.518091926276816 2.5970170693533197 6.905895468189165 1.0362489334842346 0.1507355508160759 1.077028429394442
Ni 3.9921168774250875 7.096742106224557 6.029248981069593 0.5960593601015413 -0.842855181678 -0.31334805557539586
Ni 0.855976768203529 7.352435523911093 11.484095829753235 0.1873028084171484 0.7320558049352296 -0.5708867174906554
P 0.19420495886517977 5.298472040581575 8.19307972694799 0.9639898789085074 0.9088415158711379 -0.41607391128141247
P 8.53466389483658 1.4322989741944512 7.9957822201531465 -0.10617421926593329 -0.21801335012712775 -0.3727436239248935
P 1.8754617253080106 3.109841247961751 10.41568244333186 -0.8571841967061624 -0.6609591460987198 -0.7339440230968779
P 3.9857527916534305 6.217286923864568 3.499480591352544 -0.31935723788395326 1.118437074248216 1.7631684456341634
P 7.027089718624247 3.9031281553566326 10.175953479441839 -0.1117375722863237 0.49480366118314784 0.8292597023817525
P 6.492027399393265 7.7573776008164605 10.33811020410577 -1.0772438878393575 -0.5303918427004026 0.5372952546884553
P 2.2392270824834104 8.483624650139454 5.871709834547938 1.0472411708296803 0.6464609524825446 0.6885596814248076
P 6.908034307242537 3.9331496451970773 1.5334101948705656 0.23920078283802032 -0.13832175053275533 0.31424202814457497
Ni 5.158986467489715 3.0112340780793136 0.3346514727489811 0.7461703899597408 -0.2994363305903101 0.5294083957412108
Ni 1.4749311169489039 1.2324540251120315 6.9835463544979435 -0.5505369501897099 -1.4672660963390407 -0.22298303542757728
Ni 6.876783391741659 0.5764993879243376 9.410524815118713 -0.5197495324952082 0.718258494040821 -1.2488315995140944
Ni 2.7307171099254908 1.5175090203359847 9.049456962480619 0.16462979229966485 0.11893897513076934 0.8386115759102977
Ni 6.505017727878877 1.961928316793664 2.529345322651547 -0.7681324960531286 0.7993801412135007 0.5434515040978383
Ni 3.9134788346301375 6.936003741017405 10.461606011696341 0.5968525454267979 0.10524656524534133 -0.44310623280885625
Ni 7.9552247332006765 7.007644905421357 0.29158451106609534 0.3005210790140566 0.5592514472445723 0.42916776835089315
Ni 7.753861081831838 3.5685616576165344 7.966172045515274 -0.27998593517518233 0.24270828177064652 0.8353159358781614
Ni 3.122876775920173 8.380018418564225 12.42578435824649 0.2603100540128097 0.14176831432045908 -0.6394901775916664
Ni 0.09849145923204318 4.649986164281016 10.266968041881642 0.2109523295152883 0.05401193544008117 1.03090900932856
Ni 8.598765787175813 2.465893398731322 5.9225556255014356 1.222690165232036 0.6041881598562627 -1.1274657601093871
Ni 3.7304390495384996 2.4133716113260273 11.217416228205485 0.4238730956108571 0.5184367272210556 0.3680971262918177
Ni 1.2652507625830143 3.4943079636841605 12.701223617624832 -1.2424871453533053 0.20933382007525883 -0.08638572378509639
Ni 3.0846922612902308 8.453964756081492 7.958087667808465 0.41880956504502065 -0.5593869443811721 0.4503942818298372
Ni 5.500007449947091 7.893545532604062 3.6505227656524806 -0.0201672189764943 0.4560123993475631 -0.3870029620573851
Ni 3.0782377765729536 8.70806715232511 3.8166489080185917 0.17000442634801688 -2.0339752854132387 -0.9911301867687253
Ni 3.5211835702170244 4.141112419596184 9.119421226443315 -1.0721165939151214 0.4037477856158918 0.2272127572382087
Ni 7.259116692347432 6.009179511152468 11.513150954865003 -0.04614281710464956 0.17707830247566278 -1.771735618477884
Ni 0.27544287533616507 -0.08677213992184961 0.2761172514704912 1.6806949124192796 0.16718855416577658 1.1985570196292583
Ni 4.394907459424697 0.3690419436312468 1.8155299363302333 0.8276746172828197 -0.34103909373276103 -0.5450437882856226
Ni 5.876627537189673 5.464399305267322 0.34694482536386245 0.04241137508667534 0.6065072949077426 0.06647381535251778
Ni 8.08741511138099 8.809648447518452 11.579238008050055 -1.4237835996753736 -0.011123877827303424 -0.9980672802081908
Ni 0.006207695595734273 5.047271450492359 5.726991066494129 1.4868177932187232 -1.3859169065365875 -0.283294430723125
Ni 7.9391246809857305 0.06230928124758645 2.3421562259559456 0.8032162271301392 -0.32982805550829 0.9887071791495295
P 8.458195426736513 1.8712220147584264 3.710657048268447 0.5480517218740109 -1.0824380304457875 -0.4855762290476089
P 1.877242584536727 3.3028520367552887 1.6505157009952496 -1.1334530880410736 -1.5685462207374663 0.3476650836897109
P 4.969148681687445 1.134985881944408 8.053931341923294 -1.2713644905092878 -0.9796391554099904 1.0648745676407274
P 8.490513049795709 1.7605465856357023 12.313164447803478 -0.3106435121600392 0.36478477408913307 0.2943560878539253
P 6.41862345554972 7.819590155192234 1.5321527455369897 -1.635464065605938 0.255357852213857 -0.3522406188755353
P 1.7534864279827702 3.410200784679192 6.0881791497299 -0.3673394221901867 -0.1860077437548087 -0.7909242971366637
P 6.6635051593400885 3.950858798644061 6.009945190221871 1.0765671734873072 0.1141243273509454 -0.36508327916615835
P 2.2681366652927277 8.59390232390145 10.221705289809643 0.5893220413777076 0.19281345382273243 0.05046124197434535
