# total energy = -340854.10078360606 ev
CRYSTAL
PRIMVEC
9.39893375416923 0.00000000000000 0.00000000000000
0.00000000000000 9.39893375416923 0.00000000000000
0.00000000000000 0.00000000000000 13.75628960800555
PRIMCOORD
 96 1
Ni 0.09965971570947374 4.223382746400167 12.934640818101938 0.11489000187237634 1.7061043536313196 -0.16047668936323978
Ni 4.616784523274889 4.9366584403328355 2.4752656333767944 0.364898673959178 -0.20585717438056803 0.5820800151033136
Ni 3.553436137697634 6.773623675412705 0.13268850929021386 1.6369825591329936 0.28290156616008055 0.3580574826676285
Ni 4.677783604217094 7.984685705995769 7.776375254418221 -0.5060944036056187 0.6654169247597572 1.3015212165983263
Ni 2.14785377133955 8.228935800979604 8.635648348028493 0.6523050699681475 -0.5798868641067368 0.5191931457711059
Ni 2.7875170150504376 2.3224859630045995 6.5370985641925685 -1.101390146068258 -0.9517115757617867 0.060553850323657
Ni 1.0341364990490005 3.8137960053678994 10.821564042046557 -1.0533475408377342 0.4268452908653036 -1.3413761438117349
Ni 3.2377917408899175 3.9777510081345913 10.774531776863999 2.8712645429676873 1.096789671181769 0.5905008921771573
Ni 8.724541584967659 6.1599578828398975 9.348347887313741 -1.489708741613273 -0.36772560188501185 2.530870539018093
Ni 3.8038331354451356 1.4885655536675952 3.819254906170863 0.6773710117978399 0.7328718730786217 -0.5431938795610773
Ni 7.994178629224063 3.9303239877286793 3.4492104199046896 -0.16097265516305181 -1.678896168647644 0.7870151918902446
Ni 2.020159855518163 9.041652215462122 11.193094499760646 -0.903421116186515 0.6095831056195888 -0.7459893842971862
Ni 6.219340347153127 3.5447985174532755 9.972746322494855 0.13354746907256354 0.4881583879524884 -0.7045447439991543
Ni 2.5800731451774928 3.4715150299176245 1.7004147038545019 -1.3410624692260582 -0.4789615519445686 1.9676788761788497
Ni 3.6799833835845135 4.197253710187636 5.101176439239502 0.015425076305818597 -0.02074931673220943 -0.14285974761242493
Ni 3.7720271431634065 6.603756743229581 3.6992314602966156 -4.479852867228704 -1.2585282579765682 1.4184781283020602
Ni 7.944467667883027 2.503142871292755 12.843449541826814 0.4359112577223138 -0.16837254717154873 1.057911506059333
Ni 5.250977587462146 9.066549991335142 4.609333988380762 -0.6943783449891138 0.0684111415845467 0.1479099084418227
Ni 9.006114846426302 9.09291400089491 1.0808069052768157 -1.3697215277236474 3.0354006834603853 0.37780226939472356
Ni 0.25870001594539804 -0.08531036334052695 3.466681158218306 0.9728686694553762 1.5526845711148614 0.48042836629808233
Ni 5.590551669952274 1.907804999804277 12.603361294769206 -0.9516804654135353 -0.1786181361589569 0.6499296277574356
Ni 5.919091404056247 1.105436811533988 9.425891911581456 -3.5625372524482843 -2.1282517248003217 -2.057345841818379
Ni 4.649605600416673 0.3447246982615194 1.1830710655670422 1.1062482454915077 0.5123951490126659 1.530163764304526
Ni 1.4278108450065143 4.071636958755806 7.714967319851827 1.8617795078408579 -0.9586846646455102 0.7220984366122016
P 8.035449347932419 3.997742540517345 0.7197139636469064 -1.4454955374311687 0.25405867378645924 1.101751900283051
P 3.546480926619478 6.039228577030556 11.124807485480599 -1.5481596866613145 1.8888272559872696 1.3136298269364022
P 5.832602414405989 4.644351596372499 4.386632829125154 0.5314377674664138 -2.4155534769106275 0.5010298445985177
P 0.4853938423172227 2.077230182094599 7.935040537191959 0.3356768009795832 0.5812305226188248 0.05341698216855961
P 9.404291281716837 1.9420641138311396 2.428824561135881 -0.33004865615952833 -0.2595310097549401 -0.036579856006562814
P 5.26516997763514 3.946198787067876 11.884017649117542 -0.2630480217692631 0.4527959492927943 1.3177155669700016
P 4.405731462788415 7.406463293119889 5.845928222874381 -0.42309893644899393 -1.2081546906200225 -0.9205516052192145
P 5.759337724738117 4.6274147175038 8.006064521020598 0.5715235797437059 -0.6346675593920426 -1.0280211462578037
Ni 7.466484884937596 1.7558806324160174 7.875956958976413 0.9817554304220447 -1.2369474464819987 -0.10652543195776493
Ni 7.21347498356884 1.6322188592331832 10.93630528707496 0.4718519374829809 -0.05378902079599769 0.9556831588150252
Ni 0.17873576620116177 0.3328641835864857 12.608767561542388 -1.934025449790463 -0.5021670435267545 -0.7699942318522158
Ni 6.116948361362003 2.5643581277144163 3.7108006080210783 -0.36628012768773693 -1.014303539561395 0.7979549787311999
Ni 1.3297047730689584 7.7733788742942815 1.5743251860480356 -1.3567451700686377 2.0754392089849807 -1.4334200943238733
Ni 6.887604546689458 3.251579976905667 6.2429617478039665 -1.9296617735051287 0.44568787749310335 -2.2165071548043054
Ni 1.0135246370295465 2.151801323573098 0.11745471724227453 -3.3865498690439546 0.5585865599670639 0.8749188949817641
Ni 0.1966877299299155 0.08220307579669135 8.57298847546803 0.15688125870249756 -1.05814547644701 -1.5753742994028934
Ni 2.5824980701209577 2.4300191656332237 9.330341409768428 -0.6224512198315086 -1.0447150619737169 -2.8535676399085563
Ni 6.2035971328883805 6.7986906320957345 11.353423393832806 0.746358851821463 -2.3257489572519687 1.9884721587751173
Ni 4.188146143248807 4.219219018687164 0.38331390113122843 2.9764231764849125 0.22976354868452042 -1.5141830726055536
Ni 9.280497923459551 1.2167107898505933 10.424763610677429 2.1651951347938905 1.5200346462903243 0.6903211442006046
Ni 5.748594743302533 7.729589241303566 13.523093030623043 1.1724996604205744 0.40783198298759443 1.8270498176691565
Ni 6.173501746574523 7.429998223578945 9.322871137113134 2.1001580518878993 2.0014168918612434 -0.6810075801091626
Ni 3.1626942591136125 1.9203995712160729 13.587293388447977 4.345306524577981 -3.09084755157478 0.12871276668808157
Ni 6.890903572484636 5.689080693914853 1.9602303732525714 -0.3046641546481527 0.40530253169752134 0.22068704030454897
Ni 1.364781594344199 6.239002916849751 10.34310661293971 2.0483341252380725 -0.013816079947485883 0.9870012522020163
Ni 1.4639779426129254 2.434342675222348 4.420927659100797 -0.7743733347565179 0.619956478434113 -0.9625783432729617
Ni 0.3798503939929846 7.799893266796278 6.754847425181851 0.9395116912614851 0.19346522847411843 0.7362343617929514
Ni 7.945134992189175 8.321468305120746 5.410321473262698 -0.11163652793208514 0.3013700572779132 -2.7809594295235267
Ni 9.216754353821642 5.199988371112151 2.148085925006618 0.8595658095644616 1.6764019414708804 -0.6978624468829724
Ni 7.681438502988171 5.541827596669625 5.254572679674841 0.4159371285932321 -0.1503056623675089 -1.4640419329747882
Ni 1.5859479076956675 7.503817450346292 4.437022393493004 -0.38207672840036133 -0.04720673959278967 -0.2207834566730972
Ni 1.4220305006645335 7.335755113469933 12.563454361368201 -1.1209618975525986 0.6407127371448579 0.4227783198847816
P 5.390833723736416 7.5741402737067824 2.19363315863465 -0.7716690484514774 -0.07322013293741583 -1.0707194564572786
P 8.3876555975699 3.4533656885771933 10.782125175553245 -1.144172788451423 -0.39807644626272737 0.6292332757503486
P 1.8250285890403324 5.699165749978179 13.740690568776705 -1.4082448806098264 -2.5150857653800105 -0.9611650078652026
P 2.2518059801563126 0.38755188042195887 4.64631033419505 -0.888388904443741 -1.0166818099855846 -0.4814421522745774
P 7.082162478200035 0.14599457999743726 13.482498095261334 0.941854737572365 0.16250374709559756 0.06307044609792364
P 4.673948839190219 2.787225648099866 2.196631418545368 -0.32963316588866454 -1.199020332418922 -1.6269925377998176
P 3.7554286259147265 0.7865046676517597 8.394322261377651 0.30055193225199206 -0.8874697350635813 0.06306710366381396
P 1.9425998530628354 1.9624410025033585 11.26916665098128 -0.194492127076736 -1.0498832364382176 1.712888980653321
Ni 4.917174450380109 5.717362085988058 9.628687068752704 -0.4567675323460327 -1.2402412867419221 -0.8565658463958732
Ni 3.3223633480267374 5.589658771232782 7.294891368598989 0.5173236966625349 0.5413146602604935 -0.13555292953836653
Ni 3.9730327433221126 8.098422204991397 10.342818065669306 0.842971138430574 -1.1273824563669614 -0.20980716016725157
Ni 3.990251590207493 8.933235513047894 12.94598909088 -1.6117860052627078 0.6506310246998344 -1.7735940118428615
Ni 2.052680166775487 1.0233465229439695 1.9238856357956513 0.058124157836241835 -0.6959469750278143 0.7318123214658558
Ni 3.856598750300227 0.9825457509300847 11.02035619327431 1.222434083357172 1.5030221708927276 -0.8697928866091086
Ni 9.19124564724581 8.077584768558598 10.722587628830842 -0.5494228911899248 -0.0380366430577474 0.3370762524302711
Ni 8.295320471040435 7.118094602459211 0.4393447056194969 -0.4810785982875714 -1.5787285605871069 -1.1327550335327845
Ni 6.186519270011342 8.98842605284645 11.536120810668349 -0.36176989852220925 1.2745014934763728 -0.38542687581951685
Ni 3.196173261627655 8.302491857598048 2.5747232720076463 0.971922760602339 2.2171231911217495 -0.10436956195702671
Ni 2.414181962029585 3.7176261138115603 13.00662725276085 -2.2005097509347844 3.132451857379128 -2.4703814804941007
Ni 8.29194625377414 6.03854245485663 7.2846023556702635 -0.9570332450850162 0.7079578834457614 -0.7805761211331202
Ni 6.147917848527577 5.54191218707463 13.380358000898449 0.52146085875936 -1.9199466030998933 -0.08501789690329228
Ni 0.7694597010433332 5.620665854133911 6.009214961441536 0.9674063607892243 -1.2054979697234658 -1.6406391820489747
Ni 5.708639875338694 6.646145935070774 4.252591813248255 4.653850988117147 2.1495656557867497 0.9002008094770045
Ni 8.12625244823791 1.2911221494529719 4.589786085677588 0.6166184151998155 1.525061410080954 -0.18791113142510862
Ni 4.695049445771922 2.72514568976038 7.673368578350733 1.26388695118532 0.32507794241781435 0.5398879551162961
Ni 7.373172269283634 7.9632937324634945 7.4520020677074195 -0.7538587597429339 1.9936832706624117 1.1831651105542205
Ni 6.881485840727459 8.954777869522399 2.890155252909462 1.3384998507052046 0.012965816132048637 -0.2605378537528997
Ni 8.573162355744985 3.9111219657926353 7.522008146995837 -0.04322538634753847 -1.4456577740406458 1.203028939357683
Ni 2.86908096334265 8.825288757328137 6.429992073162523 -0.06699163552920075 0.31179073839060495 0.029122371287253073
Ni 2.049164965500851 5.881899822655891 1.970464872364739 2.4385486522542195 -2.0428234798324887 2.3742332780056015
Ni 0.6422761473321408 0.6980625795392849 6.249881242933342 -0.057687327409139365 0.26631563677694137 -1.01569656325418
Ni 6.8331565226681645 1.7749416703437204 1.1156073978957075 -0.15449553207914038 0.3760603470029523 1.435048888176548
P 6.420815894006301 1.0311758348738396 5.77011736201587 0.03927488634022268 0.2949656964134662 0.6045535136154814
P 8.684201360714354 6.145821886270241 12.0168894376186 -0.3180914837976522 1.3079903692624377 -0.2726305232513756
P 9.197881294571726 3.468056222246325 5.4742746391263415 -0.8516792077275332 0.6760780040180292 -0.5466970076183295
P 1.976915360693034 4.631550248415136 3.684883987714447 0.24934044237518346 -0.11730401063050766 0.9143282500173222
P 1.9776484775364074 9.54254959922991 13.604558290109415 0.4123524965657673 -1.9435467590173365 1.1652046694210578
P 7.698488169063542 9.089793554843627 9.42210978058436 -1.4789569024134077 0.15943719235513187 0.35872648371019505
P 8.862574328067387 7.470441836105033 3.037278644867016 -0.5871340325874533 -1.7107889035911827 -0.6151204904980503
P 1.155758703577835 6.123856577770713 8.19899643696831 0.5622023023427801 1.21853911917814 -0.8030642749333072
