# total energy = -340871.7129742551 ev
CRYSTAL
PRIMVEC
9.18268428949579 0.00000000000000 0.00000000000000
0.00000000000000 9.18268428949579 0.00000000000000
0.00000000000000 0.00000000000000 13.43978665762956
PRIMCOORD
 96 1
Ni 7.947723225084778 1.735435455902139 3.986643908720048 -1.1624415048536239 -1.117908198327939 0.41568310360089705
Ni 0.6789924508446749 4.463996555630556 9.895284191821423 -1.447365757870688 -0.5953841884113875 -0.0032300769015234693
Ni 3.7930086504597784 0.8864917254620063 6.770493949027262 1.099809946065332 -0.263057791961276 -0.16707259741320257
Ni 8.315746835866545 0.34471061255199525 9.818543583066887 -0.11243742656682572 0.5588423847316117 -0.722675392161594
Ni 6.140782208596841 -0.11455214680823327 7.246222179131858 -0.3937135413083413 2.387756509303017 0.6814778348773619
Ni 4.677943910977738 3.413681155630097 7.757915309530578 -0.2737679792899285 -1.6333555039033678 -0.24473379684110755
Ni 9.182867689355295 2.237324234555969 12.64661008354268 -1.5891613258846566 0.06132672393393954 -0.6459302767900553
Ni 2.5922257898507564 4.8847195900930585 1.6921501198947764 -1.1474676571526108 0.6445796762994319 -0.6325674823299041
Ni 6.5487688603018634 7.266560906002473 6.088828418859802 0.6804686768865571 -1.7115368375008009 -2.426668355876866
Ni 8.417711359398675 6.690007723454574 12.328154601185485 0.059313807268968816 -0.13028165383709822 0.5546877391332898
Ni 1.014043798059544 2.0517789209311283 10.421707265681768 1.2701933530193221 -0.6081162912660752 -0.07190552789105036
Ni 0.03493919448733822 3.9922269806137383 1.4410542162812727 0.6161695005878549 0.3991959045791512 -0.01951493010447607
Ni 8.919370570951612 1.806830824279509 1.6879435323380338 0.7865325958268713 -2.887134677230724 0.14451656648955755
Ni 3.3719825874240987 5.519573633583455 7.529075477214339 -0.885433678470159 -0.5997676621910639 1.5245669869430387
Ni 1.7402012689166544 1.1574130439085313 0.4946730255385968 1.1693788554034055 -1.0985858438502434 1.6173339316641309
Ni 3.9307948244150754 8.568380839056024 13.278831451520048 -0.7001748970662329 -0.6075344506206762 -0.04032081110623379
Ni 8.078907049218426 9.296365664036234 12.14679842801772 -1.6117556662454051 -0.5681721467729699 -0.3415083200596957
Ni 1.2594234808608402 6.62562792568046 8.77126122360341 0.09121296997041066 -0.5563039345804742 -0.261044361075673
Ni 8.956946114025593 5.470345264468205 7.205284855432417 -0.039420153668835334 1.8869434087009955 0.6144432619253676
Ni 2.400261780084979 9.30490556018941 9.738093169961937 0.6350434546742224 -0.6837319210188612 -0.4986423182029477
Ni 0.8803347358160865 0.31147021461125685 4.805395892319286 -1.4446902679210538 0.6066312220801164 0.8934807171443516
Ni 0.8616305267038209 2.6433366091933204 3.9310299011263887 2.2470906840181173 -0.3127775277839065 0.6229818955239981
Ni 3.9665154653138495 0.7859514362238089 2.002877455367547 0.9780586982967477 -3.1421606000264597 1.930316633480308
Ni 0.7465090534853758 4.818374697935309 12.73805492424354 -0.23792654411128702 0.3816134156106976 -0.43531630445079217
P 7.24582640544992 1.2696254428244746 0.1887473155480803 0.11073869870816412 0.9531534504146358 1.1656859799328505
P 0.8922758981360777 2.3196561796198276 6.303474576462099 -1.3037696463128707 -0.5592851286959852 -0.6239558294014932
P 8.18628017364757 2.5958070366246693 10.417608115528243 -0.8920573544342636 0.1273973903107677 -0.29110544212711154
P 3.4372439228656377 6.765048617394107 9.411331031626071 0.02123936899475052 0.2130524065774266 0.1312368186615159
P 3.449879296098726 6.287016451864959 3.109442304696934 0.18062899594139858 -0.2131354532095362 -0.022145682859103795
P 1.0780838365243386 6.12157203359421 5.72376346887433 0.8118651610543889 0.5054153752607231 -0.9225467812723726
P 1.746840349474447 6.905782432924855 13.104557882548999 0.19805876138207182 -0.6055942961751699 -0.29316849530372735
P 8.422247605312299 6.271910936626274 10.269206758827705 1.7580102984719916 -0.1946854740344647 -1.3426380412432941
Ni 4.208626112598446 1.4971723532284908 13.380462643621685 -0.18606739334815053 1.7468504252004302 -0.9581110515302275
Ni 3.6689414064537793 4.171298501993428 4.2303339776587805 2.226610818897211 -0.8986180383709168 -2.5226859463247715
Ni 2.6974685315836227 3.7260485184716394 11.385406998515725 -0.13880486081676094 0.5854892978951787 0.01642266433239752
Ni 3.0481093214858563 1.1985514683883534 4.357367228608302 -0.26309995805312103 1.510747050340811 0.03037115609268963
Ni 6.00716497319374 2.3062127301915996 12.069613377355855 1.9439506793239745 0.024283555137713016 0.6135865703520271
Ni 5.964768521001031 6.124124819756127 -0.5587470399343234 0.5464005594238331 0.213784913868077 0.7709455400218916
Ni 1.473490211100486 5.025517684412057 3.8290222189792904 -1.1942067130803629 -0.09753094176863848 0.10418238564688509
Ni 4.482692500327189 3.727471834497169 0.18200722546589518 -0.9891753770351996 -2.6689367218966162 -0.5707684467452364
Ni 0.7945950967065892 8.296481564759699 11.260605139786872 0.20258878804194141 0.5137892011467152 -0.0591212316421885
Ni 7.382317820956187 5.787147863698977 2.139116347062833 -1.066551441122518 -0.7451620032998845 -0.44464940892626004
Ni 8.579464338687082 1.03549454796688 7.440534201205557 0.7561267298415043 -0.3544062590682864 -0.3905454279930048
Ni 6.551183906203245 0.5435340872924213 2.110705122656456 -0.37620175767682307 0.18938334509526092 0.6209345260766661
Ni 5.185727972782471 7.745841916560473 1.4113656805255332 0.11750275690487506 -1.2827323660265972 1.6963565302159367
Ni 4.649211292630112 2.9247583268346395 10.388874578912214 -0.4833838493819804 -1.0252312422174923 -2.6709318979497745
Ni 4.9125890361413305 5.057923376373952 9.428628453544073 0.5113705644028935 0.3678914380389148 1.1149172340204154
Ni 4.305604438699205 0.633671313786603 11.128049422658297 -0.16730605358024733 0.46910317109325017 0.2143526134460889
Ni 6.6455635327219085 2.128683899729903 8.780897532230448 -0.19186908763159216 -0.33607840729337607 0.5979720037432217
Ni 2.9459703269570476 2.6678084621483937 2.1342651350867863 -2.348107527452827 1.700414245225078 0.1588491810621458
Ni 0.36473712816539794 6.2459974022776015 1.3917973808455106 0.8141452153378171 1.0749689757622518 0.009339275123054883
Ni 8.445121671245163 3.507766936259619 7.953612080356857 -0.41067305198081533 -2.2849918299392646 1.5093537695377102
Ni 1.7592645209747149 6.233444673200834 11.034185862982437 0.8393253141478707 -0.5608658429195438 0.3588496395516207
Ni 8.349548295801863 3.922227380209791 5.673417567111937 0.2983333273341185 -0.8604829220620922 -1.2936973496785333
Ni 2.070612605888297 8.314048039319944 6.53841538405164 0.6306764359547784 -0.47843730400998247 0.6755509278699655
Ni 7.639524800795433 7.449259587576255 8.538416822779213 0.887549182151265 -0.32145294407071734 0.8036006070527515
P 6.793221092015557 5.025710520776806 7.783020767684112 -0.8153091537389313 0.056826779181056976 -0.16872607385622557
P 2.2919520218841973 0.5736156419248877 11.993732267827058 -0.00420143967585728 -0.20119602145947285 -1.307743286248638
P 1.8267480659528872 3.121763630136002 -0.1352609358454866 1.3973973963723612 1.3338284133714642 1.4655264879401149
P 4.862396485202334 4.432022449818337 11.705866142529503 1.2885227474561294 2.2225325350627787 0.36027865868866343
P 7.601370748627205 0.0571190495071066 5.598880802525962 0.20955082118207136 0.9141027642700773 -0.5296575356375395
P 0.7365127836441405 8.604358595107795 8.528928355365151 -0.9951670758422602 1.8911697880775173 -0.7215309941445057
P 6.557336304507148 7.695245327523906 3.2002011989003307 0.6344024786561139 -0.1731781960903082 -0.21630665184866618
P 2.501785534783397 3.839124089686936 8.89360395954751 0.5844276893998838 0.7240283066450628 0.5943158950478733
Ni 6.3495321647798315 3.7936330729742043 4.046746412270346 -0.5199829886622529 -1.1693099498386827 0.09408283531903797
Ni 5.387067502948672 6.942301967334734 8.068065054177504 -1.2730110249737754 -0.4494913103995936 0.4305854746340262
Ni 0.34017620317517916 8.413524055478407 0.380310960289902 1.6343415219657207 0.9430261321726469 -0.25545941078872775
Ni 3.8480312932015406 5.820572833588833 13.365088075740754 -3.1072046527765647 2.5849254118809677 -1.12480775366125
Ni 6.6879599849146185 2.1440281647535153 6.185096923484603 -0.02731617131644973 0.8193774102710341 0.6976313047087728
Ni 2.3911525575215897 3.75532291517737 5.884005896638869 -0.7390687459179529 -0.25293124505023534 2.3190648603635733
Ni 5.043313726073194 5.130530859044032 1.714325383572527 1.0287001746026994 0.7463542238357727 2.9448947668593286
Ni 5.328463613432997 4.991624397636382 6.127279071722382 0.674259976972684 -0.6822656208859799 0.44796458934242206
Ni 3.3534152003039646 6.303673840705673 5.416072847012157 -1.1622047062524694 -0.2548436315815998 -0.848087633721533
Ni 5.479794246340913 5.884291478112379 4.045658264212118 0.047637656482621187 2.4862089344446603 -0.8886164470735147
Ni 6.425032192921148 6.925268088448557 10.841687421005783 -0.12728940397799368 0.29989887204902543 -2.224541852183324
Ni 6.993421969361334 2.9562090196568254 1.7934856295704633 0.047922534712891665 1.512612128574008 -0.7665021595385574
Ni 5.823639850056749 8.943888337326865 9.533458892763736 0.7612972182988502 -0.6810155505289626 0.9916125257217826
Ni 8.991656659680443 7.747999847308856 6.561438209465884 -0.5362524152462378 0.8139302711135338 -0.6169986813573697
Ni 8.756387112002425 8.66349508029754 2.789561669777403 -1.1606666723413883 0.344372014760736 -0.38741510989413924
Ni 2.3149913761297047 1.8828634480948947 8.058442519576522 -1.581114030100148 0.5337149935363646 0.43590482996441055
Ni 7.460232894998887 7.843564040068121 0.7728348903472513 -1.64187408289734 -0.12886446177459743 0.3329987399267878
Ni 3.945413657399869 7.324861766944972 11.463774778881383 0.08953455382672322 -0.7176368012964222 -2.2953423199356533
Ni 1.2386522495721444 7.348167419027514 3.5576188096208927 0.9452185118382754 -1.2202648436199952 1.7689963651698501
Ni 5.523448726246511 1.0062109685771137 4.490649296044101 0.43449535121139365 -1.0209634680800739 -1.0865867625068384
Ni 7.192759674407757 4.558293537992898 10.840423883682476 -0.34188704355535315 -0.9504496783302276 0.5485839402283972
Ni 8.166179278293477 6.238467601368348 4.275370451511747 0.7319835569363974 0.09408052132619281 0.7573333485550957
Ni 3.9329986685836373 8.264287074530623 4.1976215840500934 0.5490781062559963 -0.550423050319665 -1.1144554638926485
Ni 2.542474007745471 7.798734176605959 1.6039981896891076 1.0477649045436344 -1.5898470390977717 -0.9790074353632624
P 4.51271069443981 1.3158143435239178 8.94978178394096 -0.8479493083714558 -0.4252977438725256 -0.7893057876966342
P 1.803846451967915 0.08938332813485281 2.814775483602558 -0.5604678361501767 2.8948703553120856 0.320414475503874
P 4.263428370923351 8.044104676723219 6.3655265638331695 0.9135931716235105 -0.7566715466013806 0.11154911042460143
P 8.470557706023982 3.92704828932852 3.46651097342414 -1.0576608235011076 1.3187658626113867 -0.2842735068069427
P 7.511059051136345 4.864370762270004 0.065584565919595 1.827410286332369 -0.5635477606270811 0.5637223385317324
P 5.009135776092413 2.7514718963974243 2.225036885047833 -0.30955130753712495 -0.1714838391070208 0.9413559435590756
P 4.518615160274749 2.5141362448113793 5.6207475280201145 0.4325731944880163 2.324035574105288 -0.505579154532097
P 5.871931585400361 8.584395440014239 12.036027710495377 0.09670330366102055 -0.018157644745633247 0.3093337922096802
