# total energy = -381176.6099694535 ev
CRYSTAL
PRIMVEC
9.19357079573363 0.00000000000000 0.00000000000000

0.00000000000000 9.19357079573363 0.00000000000000

0.00000000000000 0.00000000000000 13.45572015993411

PRIMCOORD
 96 1
Ni 6.260141389459089 8.631485073339759 13.343875947892114 -0.4953168533741405 0.2803407474114398 0.53327764888863
Ni 6.074146258637022 6.608761594133735 9.037090707251098 0.38299024135356624 -0.4313832879449732 -2.5305913172147774
Ni 0.7151954531185339 7.213606616959289 3.8214382510528315 -0.4642049624606844 -0.4314444802002118 -0.5785792010389067
Ni 4.32273424726205 7.978373803822699 9.88315939875584 -0.3125888088118681 0.2803173503726721 0.8972458406137387
Ni 8.587705289197864 6.632637297497133 1.5540683367593822 0.6521351200491866 0.09294717905269799 -0.32865717512864046
Ni 1.6205507246308022 3.226143509572636 13.235960894503625 0.7305064581702386 1.1513399956238237 0.2586213534564772
Ni 0.10802905366638815 3.541666859373108 6.9787421412013435 0.18706549559536167 -0.7999162162226288 -0.23715418472163674
Ni 8.011516626550867 3.419484303462611 11.971029439996279 -0.1812126363590105 -0.10959815734581771 -0.1666823039533194
Ni 4.478482530157439 3.170595954808812 2.9947321390065618 0.41725353341181043 -0.35450318965746686 -0.4396172458189913
Ni 8.670888717781624 8.996524995460316 4.604413304882438 1.4329099874566742 0.8783502892608163 -0.5964694510557662
Ni 7.735360146909067 0.9155242801723583 11.842594336585801 0.5233336503020406 -0.33684202493227794 0.2755692941647254
Ni 0.9325038860798903 5.201639615587372 5.4419099109747675 0.04561651228753434 -0.14045962281136454 -0.06590817265703487
Ni 3.521385842191877 3.6610177954777035 9.663332846752807 -0.46524677346163745 0.3654540322420158 -0.6214466898263943
Ni 8.734682905551598 2.357792360523856 0.6319991535356555 0.15371880181411593 -0.3160747104779395 0.0373316465709228
Ni 1.370614308905988 7.28560146988142 13.276664509856383 -0.8569057462337952 1.2897825880051594 -0.9456998223500681
Ni 3.6930022282852746 8.382284143278815 0.913332532894024 0.15694527917121356 -0.1293156903794031 -0.06228908784720885
Ni 7.432330859823597 1.724410493940124 5.545264033890178 1.2321338271434392 0.8297093883246613 -0.7247417877723196
Ni 7.589577694759123 5.322672975148072 10.530783025863347 0.4748737550284402 0.7616947108475849 -0.08331968326526296
Ni 1.3278366239811163 9.10752816927998 8.007647052601827 -0.2494242603382414 0.3434212208116924 0.11403125341650683
Ni 0.45319799186332244 6.740202075838203 7.503044128976432 1.2975421773459201 -0.3639710199385861 -0.9707153705577992
Ni 6.422536624041709 7.592960928812928 11.05828713434751 0.7080270461208 0.14691129197397923 0.614816071883754
Ni 3.3189158324991097 1.914763377320624 11.86851009330936 -0.07798670108812375 0.0864911390147091 -0.15886049391605545
Ni 1.8231034764607552 2.19906536068979 9.10169117118009 -1.184130045570651 -0.771900190625677 0.6925299789264654
Ni 8.595161275115352 0.6090621137507721 9.25645941942837 0.07525541819988976 1.3767794630116932 1.1987747920670193
P 1.5092993243995811 1.077026819030456 4.313486434395957 1.033370326384859 -1.413702818400604 0.0724022650218108
Ni 2.016242011793165 6.79124478091082 1.844093317950541 0.4710158147349307 -0.33214281968439574 2.0711768341642003
P 4.590230383211773 2.3957434207795774 7.470898808679889 -0.48471696637110717 0.7436013436809839 0.37545973730447596
Ni 2.7875917953482166 6.241809409287114 4.196112116013013 1.2546186385095166 -0.5032412504275398 0.33359343608799324
P 0.6251977498590126 6.036746812629203 9.934143264975347 -1.0801415211021268 0.40081055736443877 -0.3928887314142008
P 0.4216116406713213 4.37949535337126 1.255833496845268 -1.0981716391309602 0.5897030788662102 -0.8122621393824914
P 1.7557697639334051 0.20137321669652067 10.27720963353069 0.7339249969334845 0.701574862737553 -0.6870085348876038
Ni 7.190824948520899 2.7405574871436937 3.2242735372722455 -1.1182234155755129 0.8061125748413278 0.05413586261245515
Ni 3.1676632057241285 8.659644980695203 3.3191226878420728 -3.8238217545592206 0.5120706757937117 0.6656740350758859
Ni 5.42428031961179 6.496195513278345 1.009641622506635 0.6743851896966386 -1.3049312707211398 1.336445796389653
Ni 4.9435668897059895 0.5942356421242214 2.569168182249016 1.4791893301391879 0.9825393597759206 -0.4755368425337358
Ni 2.154733962299992 1.8412791659291565 6.843512069613782 -0.36624361802284666 -1.1292549907993261 -0.878409681743842
Ni 0.1153122004528664 2.5590947867252294 4.391381721056488 -0.6237370285224677 1.4476660627199263 -0.22108658973581277
Ni 2.440120787023367 6.330812368186251 11.107346786198915 0.38068421892820886 -0.03940626971176439 0.5020652278415676
Ni 5.249409409455765 3.102159013785656 11.157833280238231 0.9103908626361289 -0.7563589004569684 2.013300787783023
Ni 6.533852379268518 8.235729431181808 4.987753029677173 -0.2511597549721094 0.6939394576794822 -1.3130263890244485
Ni 2.3750394993416206 7.321428815282713 8.888861845911704 -0.17346641675468835 -0.7095391118899521 -0.007713823704489941
Ni 5.812607556564649 3.9846774554347437 9.197953373581628 1.7468949052851206 -0.24845058357106248 -1.8000951434571837
Ni 8.240289442297806 7.476515161080621 9.090670837864069 0.51601834758755 -0.5202154163880331 1.459676456917241
Ni 1.7518349156316975 0.827788195329239 13.26878010353969 -0.6320504334841696 0.34747687893830476 1.1787829223261246
Ni 2.273643607006265 3.9908923092944493 2.3045211338897116 -0.6815783650109681 0.4493858951699809 -0.3215804707875171
Ni 8.607627757117958 4.853092959479112 3.1758997258023984 0.6872856998083906 -0.5509971776555801 0.6453031847290177
Ni 2.8814029917749067 3.952693022627172 6.605251488802913 1.183258441598975 0.6804213685883894 1.09293635887395
Ni 8.088705846974083 6.593399137329639 5.696385192602743 0.16263333069492636 -0.16165733993490222 0.8242049135666644
Ni 4.323966185749033 7.958396174477815 5.380377341621196 -2.4044573669974656 1.5075822794595841 0.6935069981277541
Ni 6.040258756674184 4.9769763259873105 12.479318985511826 0.5420160572028924 -0.5418353086506539 0.5788144569781645
Ni 1.672770206765612 8.137597256479879 5.801904401441173 0.843450649170154 0.0555823652509946 -0.1277992537348767
Ni 3.9115242125920173 9.109146237740497 7.440528766904514 -2.3323996297992666 -0.7917385655078428 1.5872497106842407
Ni 6.443332481187649 2.326598574804946 13.496760433483807 -1.3083097002750692 -0.6193111315406301 -0.0026227823348277408
Ni 3.6155463943089057 1.27786956669191 4.930323550970921 -0.028030423774654954 -1.6465519479889836 0.4532134964461872
Ni 8.560777320329404 3.366694819938301 9.409410098729815 0.23114088864802126 -0.6305049433739206 0.512869260435607
Ni 0.3921692301895028 5.300783083077124 12.316787686081389 -0.8358597241967735 0.8633126782014034 1.6497465436668812
P 1.1894274156114746 9.033400407932627 1.5315569593024638 -0.0072859921384519685 -1.2101722352706834 1.587230684520847
Ni 5.8929685589133065 4.374429695861352 6.882143454108583 0.21884253089664243 -0.26105593103989877 1.7232962920295738
P 3.9411918655583964 5.322810878710047 2.457027763721592 1.1208850215680761 0.8062293029248502 -0.5752699341600157
Ni 0.7073386275142367 1.8180562060924434 11.575175426630784 -0.34990297188129416 -0.06309692846048488 -1.7083612679862967
P 5.635447447279827 1.6050687514063267 4.367780905459961 1.0113871372455485 -0.3239543703363324 -0.5848758326808959
P 6.835245210751876 1.9539371824925298 10.220184671939565 0.5880161780820905 0.1518650364348288 -1.2001253925576427
P 9.08191488103569 1.4108177940073126 7.218132611863333 0.7088809094806631 1.1438475439015205 0.24606228584454395
Ni 7.912924773309017 5.190864750611668 7.92836629482198 -0.6416871852429852 0.022537776091199894 0.1048498440275549
Ni 2.9839940483140515 8.653218674707134 12.105909236536421 1.0009836825240375 -0.6279837196139636 -2.598234470285048
Ni 2.4324809296899117 3.2220523705673565 4.583206495121809 -1.0259454946756976 0.17100150015396356 -1.552207631478443
Ni 4.530086043048757 3.933147491109812 0.5614651590133887 0.0769942552678674 -0.7177977523543186 0.4715686019146072
Ni 8.064719820761104 0.8316540918499585 2.4642805717244354 1.4526090085474983 -0.111706204827756 -0.4787221822402529
Ni 1.6985397857134767 4.7256057132179485 8.405290134844687 -0.9371704447228182 0.8884141012547214 0.5584739456485994
Ni 1.3318358272784123 4.084390924313995 10.705895726931368 0.543427078617806 -1.229696164236224 0.02249123912398062
Ni 4.909274870628025 7.396623030842681 3.140309574527702 0.17147946823164661 -2.093878389526775 0.5478792008518887
Ni 0.29596954406939285 8.290063434600246 11.356291215634585 -0.4752509358622008 -0.6888152490790396 -0.4776096659023645
Ni 4.56609725986602 6.859387527668428 12.520977812870534 -0.40777593293867836 1.0338377529395808 -1.6938453337583086
Ni 6.021733711515445 4.985131023285475 3.546645177960432 0.4321096245880365 0.5700436527640699 -1.362502127157073
Ni 4.82724983196486 5.510286174430654 10.561677101174228 -0.9290264754594452 0.7122513686147928 0.9068831065931865
Ni 7.211317417830492 4.399105239884209 1.2396362638126783 -0.03856269076454649 -0.21073172886404995 -0.7335601573948979
Ni 5.715339577517767 0.7315618478538136 6.613149685475803 0.5158936490842276 0.26333161444795294 -1.306499386539208
Ni 7.591324473210816 4.372921950250417 5.3002618076128565 0.14778880948292614 -1.17958150696802 0.3231722407546692
Ni 7.582848000934707 6.623039209583623 12.87193042645673 0.35790193092637074 0.30465746977993335 0.0797309374727401
Ni 6.7411306264888395 8.258979971730916 2.2100480003655374 1.1061551715570692 -0.8846641472939861 -0.17492680335029875
Ni 4.7025574312264045 3.355864793537807 5.313771759901079 0.8857049298536745 0.3492167444475469 -0.30024082876947644
Ni 5.3387709176160385 6.044423444245852 5.426221082407328 0.45111444782531346 -0.8463863347597101 0.734288036699858
Ni 8.6784182522655 8.8284297469827 0.16097390853719049 -0.30718023620178714 0.09078590973532107 0.8590497891599914
Ni 5.468740427992766 0.5282616587179522 11.44581269192675 -1.2358750393534266 0.642942397806325 -0.42960716988115694
Ni 2.8547416364595986 5.534354942780818 0.025158206489772447 -0.13124556041226426 -0.4870751821906385 -0.03274659830340167
Ni 8.208249848065444 8.725939819722337 6.874352822214035 -0.6991981349752604 -0.4977259770362654 0.7206858725353911
Ni 4.025119973376826 5.637819388545809 8.20685886080365 0.553655955434666 -0.035444713960855086 -0.14880722344511146
Ni 6.349971769730079 9.022846188656084 8.852410257053199 -0.6138457375506848 0.43039572722072333 0.49387600716255586
P 6.103685201612223 7.694274079011097 7.06336528297213 -0.442579927991741 -0.4836152486664961 0.05648250846776079
Ni 7.074544665062963 2.3034123892514264 7.845815383909148 -0.2149642788881588 -0.0007132240169407071 0.8171035266351927
P 4.479383500095681 1.1327950194934413 0.25212080814650967 0.3385204410759654 0.40532644295692133 -0.2360943759985547
Ni 4.204321055378889 1.3301717909639055 9.469368728762703 0.026034990611180968 -0.0876609909530942 -0.39826645078634637
P 7.740306287998596 6.8523544460076655 3.6403911000344533 -0.6319198214435762 0.11481826809417645 -1.259871916488656
P 3.4107228304917525 4.195311355996474 11.796172320196453 -0.6153840285720821 0.4777256226549385 0.834854937081343
P 2.6563351850597163 6.093314853751648 6.636832323852436 -1.0877980092061204 1.5402566297641538 -0.683389450077778
Ni 2.8600831010934584 1.6668219664590587 1.9877594101026976 -0.7069875491126921 -0.6577995174238155 -0.3242089095492997
