# total energy = -340863.92547606403 ev
CRYSTAL
PRIMVEC
9.34562206644464 0.00000000000000 0.00000000000000

0.00000000000000 9.34562206644464 0.00000000000000

0.00000000000000 0.00000000000000 13.67826256419909

PRIMCOORD
 96 1
Ni 0.3677595686281998 7.604298925149311 8.057618597122993 -1.2478890330951669 0.5563160187653322 0.9338730049184691
Ni 3.350910126042936 1.6209420502947698 4.795639540256245 -1.7368565472125121 -0.725778199456634 0.41773484392360316
Ni 7.672933172614572 3.60770912547791 3.31179496001065 0.3953803874878029 0.11793881600102915 -0.02196981940287184
Ni 7.530318981939206 5.694399590353122 6.575591740343082 0.5424474883133561 0.30148704247175173 -1.1942414229730398
Ni 1.8756289391732155 0.11934172294143443 7.242120561938629 -1.3905286942769859 0.48609970565124666 1.8607952895507176
Ni 7.624962095239955 4.241379674924341 11.283978685122044 -0.7811479344761901 0.2660814092789482 -0.4235794756298382
Ni 1.0733166419720686 4.924469873144776 6.8579388664523195 0.11960463373922628 0.2573386300893116 1.4556364825199124
Ni 1.64309117427253 5.22253913902945 4.492215233004796 -0.07390816014337594 -1.249072511880307 2.236592612700271
Ni 3.833546079453678 7.509562355629246 8.762021486158314 -0.68569315851029 -0.05100425896200893 -0.37731581667660824
Ni 4.30909805144031 1.184277211165294 2.5448950934325114 2.05612842447151 0.5221023489981008 -0.7917200535650816
Ni 6.854910884946499 1.3836473638309286 2.2205702372933565 -0.8913479870720649 1.0073579614814974 -1.018020583401666
Ni 1.7623226188751722 1.8771803124138517 11.208843623041199 -0.866844859724378 -1.4898210988214213 1.2305847374887646
Ni 9.152363815621898 3.6146342313291844 5.467214997694826 -0.4120498777236839 -0.8071513005184874 -0.8740187517649979
Ni 1.5568591207101707 4.427114565191852 11.687008630919891 0.015551574581353861 0.49041350253525207 1.3838782788400037
Ni 5.381891338584212 5.589429564818016 1.3032871645281587 -0.039121134371177785 0.04173183252114749 1.4541964076392762
Ni 5.250351709897727 4.739884494374845 6.120379579928263 0.6456176306456429 0.7775213934671964 -2.1572211154494783
Ni 5.870461761921486 6.156035931283684 9.302079744403045 0.10881988441889645 -0.16868725019849012 0.2844856228177488
Ni 4.39085355209746 7.178185293180547 13.625928925500105 -0.02943604587292995 0.6020441169300663 -0.08963097019527144
Ni 3.3865636737117772 3.4876926486330184 2.2650105387022363 -1.5737298218209348 -2.091423243118063 -1.7110894655507372
Ni 3.906666225446081 2.3383587178697685 10.717752685468989 2.216341061540086 -0.6274851827109903 1.1654381255881026
Ni 8.075850970949242 6.135942844130864 3.9488458209097197 -1.682399296704896 -0.1271878454031229 -0.5234010132048663
Ni 6.00030048741643 8.671531567243944 1.3102954464146237 -1.354052196617507 -0.5924826984938764 0.3444913139474196
Ni 2.4695899410325137 2.7550239260657396 7.075190932121771 -1.6545033416255763 -0.26212422440341304 -1.1866587255297758
Ni 5.053617022616787 2.9359364754165744 4.107623264715692 1.5626882192947924 0.21093098935904964 1.0822644809824007
P 6.487403648110451 7.955984024055254 12.618402658239527 0.4644121933754841 0.5389618437576008 -0.039372588260351546
P 7.769155696021752 3.155866996331606 9.238571570567235 -0.47201545964403874 0.1723662417119741 0.5511038784367734
P 7.964423120659438 4.698567499815487 1.2658018749607343 0.21974781631973123 0.16845199425923246 -0.29428743939951896
P 3.453431598631977 8.740277962172383 4.78808921229775 -0.2074242617573718 -0.6859651812247541 -0.11620974912506436
P 2.434076577692645 2.8801524581071862 0.09107962765825131 -0.30218226876656346 -0.1075567014357567 -0.131600886869154
P 4.180175196894656 -0.11647448613283665 10.06724225986411 0.493818157341427 1.1298298894661896 0.4351173010661087
P 2.57184039058554 6.474132864967658 12.387116272115477 -0.3503570286995773 0.30157960218555807 -0.5064597573648375
P 2.1868194582497775 5.306967487559022 2.5449231302983057 1.7075045764129562 0.1801271166043156 -1.9614418941302025
Ni 5.857415273705048 8.764333593024178 8.193060022965899 -0.23654689015494101 0.49313707211400226 1.500265691193513
Ni 6.955254827625491 0.7064794862285121 6.645200736175803 -0.14478730365244097 1.161638035115722 0.14418746528491297
Ni 8.456750484013194 5.542075298490881 8.834133239544304 -0.16980979383870756 -0.6663083262257751 0.43718498222841484
Ni 7.837191823683394 6.74151110842914 10.99376628359522 -0.23435579604089318 0.5906492448295635 0.3737777216163627
Ni 3.5279816247799056 5.193165849298607 7.699890619076111 -0.45615072469764023 -0.13337880470518318 0.6799716826454806
Ni 0.680905191812841 1.5872043551218953 13.531454033394121 0.4576221670368441 1.0340735230994706 -0.82195648385212
Ni 2.964992014001745 8.927620299412121 12.404337449648732 -0.5861603558202744 -0.25515627772601224 -0.4245570090517591
Ni 4.786360272240414 2.547495045453867 6.69583811948749 1.5011270107525436 -1.549600532872899 0.4356883430782303
Ni 9.080318416151623 0.8465058741910335 2.1417287015544626 1.483156542317052 2.0096122831878422 0.19635720530993278
Ni 2.334639160341014 3.2795002288640056 9.303283460507828 -0.9925540636994455 0.6929801790900065 -0.2766391301901364
Ni 0.23660030675432767 2.5466259026142333 7.980787304661573 -0.04909161532032835 1.7319531963736237 -2.2228629218190044
Ni 3.9090306677947613 7.198156887248259 2.7305505459136046 1.158530599834992 1.2580675162900656 0.07224979860434654
Ni 0.1052513287552451 8.742221851534145 12.220050196218418 0.5851807655158244 -0.6128481495241058 -2.233248378818386
Ni 2.199791181490761 7.050496060729858 6.92918895349622 0.5543203284915421 0.6654169247597572 -0.9967578173681477
Ni 0.3106671642483957 3.3036680071789797 10.14273245557835 -1.968282828311436 1.1561924386201183 0.8944235406735951
Ni 4.608858874894594 3.8707042722534983 13.107960913814965 1.3636632373447095 -0.8354282930863096 -0.5331125840656754
Ni 0.008935349128749508 0.9226913841769827 9.408716094328545 -1.650641801787641 -0.6113903340316567 -0.03720334852317464
Ni 1.095680715254254 9.25633385961033 5.112045850932802 0.27981572814590516 1.7177298536853902 -1.209531002142259
Ni 3.5421215507623325 1.3965069396087337 8.534155597661208 0.9360579283849298 -1.2669907869216244 1.3304363569707796
Ni 0.3971151016773736 6.184016723346728 13.254837642653309 -0.057385994118636645 0.14985726197618063 -0.6127278218961577
Ni 1.7856586368382383 7.451180255422888 3.8410337917452315 1.116808280395541 -0.9224015139437598 0.4384877602002384
Ni 3.5283274127913726 4.920451255714212 10.601596885044017 -2.4473186851373656 1.1509633290106953 -2.266021973704981
Ni 8.442918963554506 1.8006396687945039 11.58227411505746 0.20432428267580938 0.24004436178523822 0.3451366608409024
Ni 4.122699622015659 1.491019214202441 -0.026606985639106632 -0.4775050220037002 -0.8021134809842637 0.3014047671705906
P 7.57567328517299 7.67642843521697 8.787244385189359 1.5083302133692025 -0.19603813140761722 1.8626896783599534
P 3.326891877678867 3.8368077015077873 5.531762404689422 0.24566839284023498 1.3176114372919696 -1.431857892043076
P 7.259968830703492 8.962797220362454 3.3083473600801034 0.2046577547558282 -1.3868643580515212 -0.8359864795826247
P 3.5467569792403784 8.834556596217803 1.1782221827158463 1.246507579366608 0.9270276998618615 -0.9439406735671163
P 4.350087949232063 3.4667864923721536 8.836827582347167 2.231307967262564 -0.33599304666842134 -0.5759847008388531
P 5.848368711675314 6.948040007494337 7.14648213990217 -1.8545068854388447 -1.5578689435292783 -0.8200124727518716
P 6.1372979593109385 2.29788282928425 -0.04061233466571892 0.8303529354459311 -0.48861038788824235 0.9029593460587482
P 1.2901257251619649 8.95370393022306 10.173139371094825 1.3434101435226284 0.13415990584558185 0.9314152874065958
Ni 6.196745460417492 7.816519307970818 5.132781916874512 -0.2200316661087372 -1.6652166142780223 0.05564792838160739
Ni 0.24454128170956083 5.937553981768041 2.1816279652668045 -0.76735936533253 -0.5912107737599883 -0.3694150737722929
Ni 2.337442846920477 0.28020510956252703 2.794906367658605 -2.250633921284685 -0.634682728900694 0.8208293122262121
Ni 6.248183763528711 1.6436706028322858 9.07831751849608 -0.6289373417764845 0.6733690897272984 0.28649288305576465
Ni 9.094243392829624 3.6624651243748283 13.15817400589096 -0.8910970474035234 0.9644418788442617 -0.06763286865762545
Ni 6.6459801610448945 5.8513219282056825 13.122500832416062 0.5839304380484911 -0.59467739215235 -0.6948100332098937
Ni 5.661652531104991 3.3996008163062816 1.9799008467500345 0.7817020072074473 -0.016898061306919284 -1.9097915169437627
Ni 3.9035074052332193 6.415218064311202 5.389686521837313 -0.3626129632487949 2.4529977378000143 0.25450810261905193
Ni 2.8636667810199423 4.972403568031667 0.29082453976334083 -1.2229459899965842 0.4914892520979342 0.520155252574059
Ni 1.0567935823970982 6.890284063957394 10.348466976779367 0.17840087794182824 -0.7267045679256453 1.7500848729773282
Ni 9.187428589109052 8.139242324510906 2.9936382143463147 0.011139561556587267 0.15538204844915177 1.1775169111295074
Ni 4.673250210002934 7.398227961558758 11.236596381929113 0.22332704903055733 -0.5125288463770528 -0.31113433575352867
Ni 0.7854752247292766 3.5942888123842125 1.6894566737993075 0.08983177335216787 -0.8327916267944109 0.3542350235977447
Ni 7.805603621554775 0.17952098624522767 -0.014665149934979319 -1.173632745583753 1.1720096081580331 -0.4294683303104474
Ni 4.183418127704902 5.053000211569305 3.5744723556405664 0.7130322126448753 0.011434981309819016 1.032072690619358
Ni 2.1306709616850594 7.03725331445286 1.1356911918675814 -0.9488162564918626 1.8287729710078504 -0.30913221772183536
Ni 8.473815589660193 8.294893657780776 5.929704593907737 -0.13318802885061579 -0.7490052883053745 0.08895297029164034
Ni 4.036458222831368 0.003792453379820678 6.860550967782186 1.4000638874609308 -0.8182263273857263 -2.4590701692463393
Ni 6.103317277967842 1.3213868305229803 11.720547264345624 -1.662112264321086 0.9971419401804441 1.046964777239842
Ni 8.004244815709749 1.2997143332637293 4.484185474641213 2.506916342195341 1.3585912221384409 0.5928423958261403
Ni 5.864106739008035 0.5803640565110944 4.500709468778377 -3.2138218731171877 1.4209841825533658 0.24300344441356214
Ni 8.090888076637096 7.451460624080834 1.157147805260214 -0.5535952774000595 -0.8973414856513384 -1.3749156703300773
Ni 7.294276608814192 -0.07516309894663821 10.58257106791578 0.9102846760755678 -2.240499403953845 -1.0847234840458544
Ni 6.4345635017094995 4.211370882902151 7.879458333430997 -0.1122296814313938 -1.9476255570724006 1.9539260453691316
P 7.017777038347521 3.2529493169564883 5.5479172467602895 -1.2027373762591933 0.007143810133632858 -0.03206679862755767
P 5.955843363888074 6.355574305144087 3.333446896901652 -0.7088551984490502 -0.2379903074696869 -0.1637785000429631
P 0.6517290947047529 9.01555325616602 0.5420227079747407 -0.04457778661037484 -2.362734790447699 1.782602128878743
P 5.258706695904526 5.0424116219208654 11.366978088058282 5.490278154781616 0.6921286297229886 1.7524865404402847
P -0.03535729145361156 6.324864591477032 5.5402706588959 2.5128702457859307 0.1963438355734941 1.246702983206866
P 9.179746487881323 0.9065552333499782 6.732180439492686 -0.21475010599482372 -0.5541583489923811 -0.3302887971947925
P 0.9661784321488447 2.157520933494386 4.077845309555212 -0.36014264733143136 -0.6026429268563298 -0.539272175909168
P 1.2513974678776452 5.167885941973779 9.15034703040907 0.5479810165370756 -0.39035953723444383 -0.9057117119929047
