# total energy = -381169.2474590638 ev
CRYSTAL
PRIMVEC
9.26672466733930 0.00000000000000 0.00000000000000

0.00000000000000 9.26672466733930 0.00000000000000

0.00000000000000 0.00000000000000 13.56278824553188

PRIMCOORD
 96 1
Ni 1.1989195859380783 6.9895105694901725 0.1821022620918879 0.4805255539975789 -0.6146530639433285 -0.7462338962078244
Ni 4.182934700804203 7.045259185795782 2.9386489370094524 1.2244706541712267 -0.34096761706487727 -0.6141496419443488
Ni 6.450224253911505 6.57430569878054 9.386372101901529 -1.4009892274886775 -0.3321567036414666 -0.9247880118980654
Ni 5.556291114092148 2.8357289848590823 7.884414862066981 -1.157915334848496 1.6451941484095085 0.5345536873875761
Ni 0.6646595418827093 1.2805038309438277 0.08202812112294325 -0.9126590898450153 1.1839927486618382 -0.9778172717099031
Ni 2.237830635016289 3.267132090492619 1.7593646142179755 2.653329354376663 -0.43324656640595705 0.526501506507061
Ni 4.416104029840398 4.241046331929947 0.4779693243498461 -0.27882893875260367 -0.1642623816579171 0.24625974656733074
Ni 8.599511333608628 3.9825417773319938 9.191881155444785 0.2699246942844383 0.6314194847683899 1.373501820701686
Ni 6.440132790620812 7.7385677340233086 4.105293447194404 0.17025999400224873 -1.0437295581319959 -0.26847973430779565
Ni 2.488041470931809 6.6633403905133015 4.415054109922276 -2.6721919956091202 -0.933189091477567 -0.13785123865424
Ni 8.523987526612165 8.438835592564253 6.683619691032451 -0.29244755797730276 -0.41665420926491475 -0.2610651870112794
Ni 7.068898600721914 2.8589235969955418 11.362714296939144 -1.106933187373674 0.4780377545787186 -1.6046154556561978
Ni 8.136833031826251 0.515164104291245 4.79401125996352 0.2222800958232817 -0.43123982038857345 0.6177836391525102
Ni 0.08315310151182308 3.490200689513336 1.7166422329424182 -2.5679196213515905 -0.16398418829586597 1.5155619552309512
Ni 1.409895109114577 3.1018878541293153 5.980701549203042 0.42889317453326786 -0.4227173847398591 -0.3869618244068045
Ni 6.753199820751916 4.051161874363749 1.4511913414457471 -0.2171299190809099 0.653247636387075 0.19484616798204507
Ni 7.944946961706526 5.538007866091655 10.98543813077387 -1.7118949921711677 -0.34412133220251057 -0.8001121342835188
Ni 4.90383955544099 2.2820977793134793 10.041251542446314 -0.6888538156264588 1.2139466147114515 0.5436127122660509
Ni 6.38043654955686 0.5350968293034403 10.48065831827652 0.5447141728603457 0.8490227439412926 -0.7317737549184364
Ni 7.546561196481382 3.0334160246941178 3.5203981655697008 0.2791174165273 -0.0443165625291882 0.7878662270366302
Ni 4.40636470209153 7.712935973268436 8.023148852165807 -0.674526086149877 -1.9642508243339074 1.319332019527502
Ni 5.924458089793922 5.194027042078318 3.4385062653010947 0.04824315127710401 0.10993420052899777 0.7976420754764715
Ni 7.438094182874806 1.6572703272459353 1.4607119744896937 -0.4974341568274595 -0.108750978854174 0.20995011350301906
Ni 0.6307544492399293 1.1280569415083912 6.724430346984895 -0.5431943937817096 -0.9520010819777477 -1.5768724812149746
P 8.64372287755711 0.4952054324496523 2.7079464101109814 -0.10234301844530115 -1.8232939501711503 -0.4387415280822573
Ni 7.166180677513186 7.813804272551442 11.166650787286413 -1.7896356386867565 0.06264827095884049 1.1985732175791746
P 5.507075538759851 5.084549955470194 5.879075231832637 0.24528606980015172 -0.9723973862459124 -0.5663631185886892
Ni 8.40141655788306 7.488375431557358 1.7209549666572836 0.580071212203401 1.0419374992285797 1.5315878983455622
P 5.148833225302643 8.812933272128326 6.32816666173548 0.617539127241872 0.8001278180128027 -1.940568393115303
P 6.160981973202231 8.339690904091228 13.213547044818382 0.2227763187334099 0.42069058411781746 1.1586761242739205
P 3.7595195119352005 0.8401314623910426 2.173518638337007 -0.0922169857548928 -0.3895054167642647 0.4999409824097132
Ni 4.86508611239078 5.264407816819193 8.08054694548312 0.8363173805594822 -0.8263492136031769 -1.5448807587997264
Ni 0.2400804523807306 2.8265827274964432 11.476153835065269 0.4418564195621551 -0.41971202225463206 -0.8084293958999627
Ni 0.06370039284348267 6.99318019250497 3.8542050524417593 -0.4311655155072123 -0.6552404984473876 1.0821917187629362
Ni 0.8862361982130672 4.387803452347491 3.972079645049907 -0.75055566351163 -0.8291902825963978 1.2662335970406258
Ni 3.0683979107568966 2.3746723599140513 7.981361483421041 0.8014269964402005 1.1756695735081235 -0.05825708386968031
Ni 1.0844106677717853 5.408681454994399 9.96612713128808 -0.1431672515505147 0.39082053603126243 0.6883946166018532
Ni 4.651312038329259 7.216359992223105 12.30782385105527 -0.6992801531661054 -0.5300748256806161 0.1437686325799395
Ni 6.455311685818383 6.86702300128413 6.470087478487813 1.3230174387988891 1.1518997247820355 1.396005658231157
Ni 0.09910020819405774 8.690353036674436 12.437483864244781 0.03923914800628081 0.7268932868976836 0.6084127394605715
Ni 2.1658837837867755 7.425287569222155 11.327599896711943 0.5206260215628905 0.09283585028581431 0.03600110068495735
Ni 7.526767472340959 8.504694205610125 8.876654978438813 -0.8086237712989557 1.2391159148882271 -0.8801487759221358
Ni -0.03137064341412576 7.799876385199824 10.426366431107088 0.9294098269407929 -1.439235929674702 -0.7067420087607893
Ni 2.711666073439617 5.908917792329742 7.117750920442645 -0.5719059027837893 0.40791040163401365 -0.7048041683081281
Ni 7.917702790839091 5.261081062621435 5.202170639819237 -0.1973175123406731 0.0008798315017920331 -0.7467578870320946
Ni 3.2123286801150632 8.803564613370849 0.3943927335153557 -0.1371372433063509 -0.2576193945545241 0.17869578347442774
Ni 4.324548788966159 7.026178999463792 5.501175415089343 0.8737855527082693 -0.48719216738447707 0.4178022068264288
Ni 2.672541961398014 0.5215748244973988 9.159005595925601 0.9119183550242489 -0.8770205147057993 0.8386789388131235
Ni 4.429114511438317 0.6883035901712338 11.823658794514278 -0.8757920416153367 -1.1438593709760623 -0.5224990702158872
Ni 1.514192096567974 1.0551648843508237 2.0636458625805703 1.3491030801423476 -0.7959232930131518 -0.17152291987507234
Ni 8.193239585591584 2.9570952793661585 6.257002848750285 0.8483912810048808 -0.4368623087816735 -1.3568994362583147
Ni 2.4579338821058574 8.847424021777508 6.837815211434786 0.8032943886662423 -0.4317758953977016 0.035965105240699353
Ni 2.694967435377332 2.4020091980293357 12.899188233252271 1.1327393498035008 -0.20292843076954725 -0.5088094885439366
Ni 1.0735871332230897 4.013084902222833 13.315959180450543 0.7841751513382882 0.8584586925432118 0.015924641650056442
Ni 3.38879492019281 4.213700227089879 5.672717317616424 0.8626423916072562 -0.2659042602711356 -0.7802130813667467
Ni 3.680085147079535 8.969198052175116 4.149887706876499 0.3243405500311576 0.3271332822849463 0.34021325539735603
P 8.126241165397175 5.37961173934435 2.6565160875551084 0.023537163889991723 -0.124196881095599 0.8091986699658192
Ni 7.135507818475358 4.577029972453965 7.499706782624264 -0.29398044968206144 1.2489434425016104 -1.3194358920952178
P 2.1537999746673413 4.2847852729144025 8.445452960733109 0.3228056014438699 -0.048697722316019355 -0.1416389878314464
Ni 8.671467451562927 6.500208967400943 8.331525992883304 0.07211353013679839 0.7243700062551977 0.09556661895341606
P 0.7319202103885283 6.934355023570793 6.393620318908255 0.6166960625152862 -0.2764599242997948 -0.5504503040131746
P 8.76073381141531 1.0155774360699785 10.489135518109693 -0.2765409140493753 -0.5014013690053236 -0.19970349607434637
P 5.115037480012324 2.8244791809702843 12.432492806275665 -0.3921904197955955 1.361626666530655 -1.8826550657382866
Ni 0.4915182026577636 9.111127208979758 8.708381449743344 -0.4204771825554307 2.048375777109285 -0.35466028406062144
Ni 0.7804658015188802 2.507362592108205 8.386130168677985 0.6655616778677376 -0.25783125345501406 0.7645573771073607
Ni 6.34583459921026 5.289659641857888 12.90447767975946 0.2766928662462073 -1.2568313298901193 -0.7026940639436607
Ni 7.977510232600461 7.056601656932429 13.181253435615687 0.4957030330689656 -1.5219670874263467 -0.9294303957660832
Ni 1.4748826500306742 5.470555376382789 2.123104875490031 0.9003874715665139 1.7896585215048921 -1.3442496087047882
Ni 5.80486173972075 8.750466280353706 1.8579931461204848 -0.25081034205249064 1.5959708926073224 0.5066060531347146
Ni 6.014317520032535 0.7284776221309593 4.155217926972741 -1.5372546097130364 0.8826779701018928 0.14157805268652393
Ni 6.240101269415212 6.611947134856568 1.1869571709133258 -1.0915060541853265 -0.8889979987826495 1.2434554228038457
Ni 2.6188505579946395 1.7740495929845148 4.162596093246432 2.13942908157338 1.1310015411767878 -0.3328475590609042
Ni 1.8791249853198384 7.326671084061865 8.69153639742946 -0.290582479744106 0.5448980067363777 0.4296189969556988
Ni 5.193313504269885 5.0747179604734765 10.866763819816791 -0.13270286168408113 -0.6157640376193202 1.2002804300782683
Ni 3.171295622767782 5.311834914268014 12.129147497116339 -0.8451123531432929 -0.6393022299505764 0.5287087985710249
Ni 5.051551148511371 0.5890226808438715 8.145865308474036 -0.09829841606228233 1.0408280682144848 2.145391984025034
Ni 4.996562403638118 1.46809940748817 0.3780786645316413 0.11990725258130963 -0.6561306143618248 1.901961993597015
Ni 5.169043952058384 2.500718350437473 2.64980234544849 -0.4312935564446443 0.23923189318627183 -0.7481539960486727
Ni 1.639459682209469 8.033749985319668 2.3303449819057596 0.21055252297370838 -0.6786817601894634 0.24408279352066994
Ni 8.067971999950089 3.2648617429203326 13.336534089490327 0.35884758266909167 0.10692703827155778 -0.17633088278667697
Ni 1.7948441234017003 0.6042256695258835 11.386964389028599 -0.06809720988855368 0.8528434032389635 0.05289144868239279
Ni 3.4469621516672637 5.834867394574069 9.641148653118538 -1.4386764576268063 0.7767786017639009 1.184224147946354
Ni 7.2681702504951575 0.8396458860123169 12.84073280663701 0.4590781827570804 0.13486310256019354 -0.7829183961130517
Ni 2.3735140193159463 2.914542479154164 10.222599493140716 0.4199287662511284 0.2571218860928152 0.8484763845195193
Ni 0.26901116715900747 4.790053441807914 7.0943959939674075 1.0234522959401986 0.17362813914353323 -0.6286493782224205
Ni 3.9933004448071956 1.6341313154581847 6.153532453147696 0.582208570261378 -1.074659157831317 -1.4380712199426395
Ni 7.7977357717745255 1.9657132617094026 8.44469401597323 -0.5967985522604108 -1.372647443121191 1.0698321687563186
Ni 5.431839000231719 3.0607713962589713 4.8686612148127715 0.6372317205747928 0.7349094723339408 0.9149432578935016
P 4.505954193354227 8.032359976601942 10.324333304518627 -0.1859936026874216 0.5549906150856894 -1.0195089950217346
Ni 1.249858772080355 8.96991158998355 4.834415106697911 -0.19753914143317594 -0.4789412402295945 -0.4613127285145539
P 6.552111892920843 4.339755484338085 9.52564819540027 -0.4412146722130982 -1.4662584810101327 -0.3147436503713418
Ni 0.5003595847749814 1.8161761238564065 3.873477986649274 -1.6145501982714063 2.8660025232377997 1.4760443567523032
P 3.1461735318760757 4.500171757088485 3.4619149387800845 -0.30836345787661085 0.04643746552693293 0.3769247518857766
P 0.3517342926408139 5.506723403218028 12.021444988304513 2.5984319310078345 0.9982490572016938 2.1630099542171135
P 3.556151969807057 6.317978824507024 1.0801637278028922 -1.0675078914985163 0.10545842414583129 -1.739562119069133
Ni 6.539944683278345 1.422275453427126 6.576690953740158 0.6092707165854926 -2.324513542182971 -2.3684567805331405
