# total energy = -340852.94217322214 ev
CRYSTAL
PRIMVEC
9.40047954274896 0.00000000000000 0.00000000000000
0.00000000000000 9.40047954274896 0.00000000000000
0.00000000000000 0.00000000000000 13.75855202584873
PRIMCOORD
 96 1
Ni 5.4603531892849455 4.121753093401765 5.495812738444555 0.3363838543489368 1.925020675188691 -0.6233642185640813
Ni 1.0505505994889277 5.768698321170197 10.153301985307497 -0.2621586771857743 0.14470631390286046 -1.893842964034306
Ni 7.894532182017816 6.323608632904182 1.8379366522231453 -0.29175053191027817 1.2876560285804597 2.0505797267391395
Ni 2.283968728948399 8.728373524918508 0.4049435203715681 1.1459180532773037 -0.9742570651624706 0.5408019822901331
Ni 3.2002992804797152 5.0594603355799235 10.690697323420903 0.43893821747409567 0.493894261995001 0.9751330400095206
Ni 2.310844700170616 4.96015366891623 1.1232125467289582 1.7493575078930002 0.4648181705646511 2.339963558189454
Ni 0.8952612565679181 6.869099664062908 1.0053455731113845 -1.6424348404968165 0.47698103117943014 -1.5456466904314736
Ni 6.201910023795116 5.309080671303864 7.774435414635321 2.2001531389263143 -0.4760760028666576 0.708508870853225
Ni 7.24194148659371 4.837956834387515 4.0403637408862165 1.1069432146760032 1.633240575592058 1.3144523228376974
Ni 3.6870843164363625 4.5400556353556665 13.062328344932624 -1.8798335371290915 -0.9985563040294675 -1.3200850956434427
Ni 4.496672421927709 2.0757199040145866 5.749038158101242 2.9156636379083527 -2.231652752196492 -0.31453539101527767
Ni 5.124417649726659 6.2392111269115045 12.553358177082156 -0.8229453301279505 -0.19548714400015363 -0.018463863132142395
Ni 9.47023117477639 8.348443740757222 12.402275548789317 0.34044465468187174 -1.5515093198598378 3.1270255441572337
Ni 5.804006522607988 3.9218424938873673 12.724734560770072 1.764051619570065 1.0805163879430424 1.0538841300674948
Ni 0.7386802877476664 6.046219280394502 7.197415174844444 0.8017509554385224 2.944204425660523 0.08272138755963172
Ni 5.360999520223172 1.371266762548869 13.35621083892862 1.0336174093986585 0.4201395967103539 -2.2313431913758737
Ni 0.2397488920791523 3.2296757792797948 4.352242513059132 0.05754077452894606 -1.1050413696676 0.7161159937765215
Ni 7.497672134068067 0.42168765466363267 9.472556853433396 0.4608332177749741 0.8097316596511539 -0.30293045978649763
Ni 4.209656978291219 8.564823980558897 6.087911347539536 -4.617005537154022 0.2407133628278048 -2.0435181919066676
Ni 1.058061582702132 8.102818608870093 3.4656278176420345 1.22612875859994 -0.020026322523255834 -0.8121338413347433
Ni 5.872329208457263 -0.10213903117200167 7.0137251029074985 0.07710635536569947 4.616838415448539 -3.5568283749889646
Ni 7.447041150856155 8.532345323485528 11.612135155527605 0.5934154947207909 1.327262073007856 -1.769640169401436
Ni 2.3526674339823135 4.526688153341679 8.510641496148049 -1.7043117805072712 1.597928016333693 -2.072835452813546
Ni 5.6513145322048866 7.2274459470257995 3.545386186944203 1.4995352407853917 0.41511026181656246 -0.4193119586027359
P 1.3865143404860623 6.009858225239715 2.8382379279725702 0.8637585074895705 0.5291291739378952 2.1136833400678436
P 4.006860431534702 8.747230887028255 3.182669621007821 0.9076040439196111 0.6633862674829737 0.30494054823799094
P 3.3234643644088813 6.630195875101237 13.918701697424968 0.09773585869059297 0.36103507723871375 -2.1894511791277775
P 7.07794071921253 7.325370743185937 9.321708297082997 3.8825241534964365 0.1794545160173232 -1.3025249752724923
P 5.384143501037827 4.855864748056042 3.137693026284947 -1.3890220278244723 0.47433716579867985 -0.6551991036864909
P 7.7495203834610065 8.615614771924282 1.564044278130627 -2.1222723672884354 -1.538031339978061 0.6227834063599468
P 3.4118006713606723 2.3371378416566393 12.082912114746122 -0.15808839163672128 1.1682573402044525 -0.5530193502919314
P 6.28541448422427 1.541998273335124 4.2315798368037525 -0.5609874560990725 0.28780877365371077 -1.4820653661354024
Ni 3.4073542445022924 0.20778726138466563 12.25796220586798 -0.27617247496636305 -0.7649273588522697 -0.061908307469022414
Ni 4.588862925522071 3.536460431548786 7.605740987781858 -2.181957441853894 0.14440395217109323 -0.40124893045343796
Ni 7.0461106952326675 6.833960671258205 13.628492910862914 2.4003405166156146 1.2239703174960403 -2.233070201369309
Ni 7.110438177245131 2.379270791295666 5.9144988199667905 1.1072412055323964 1.313533410567854 -0.457883905338663
Ni 2.7991714147842917 3.4557103116471275 3.5512614867042185 -0.3670398886718969 0.3356881138334929 -2.643421608344647
Ni 8.404414196391038 3.6493131893391726 11.499081227473436 1.5923240398833545 -0.588484890188393 1.930068522025244
Ni 0.9056638273110118 3.762419760079191 0.22480118944171015 -2.1845953936973728 -2.0146038228651624 -0.6392322959445894
Ni 1.4806131414424775 3.5416306953376 11.709160325788488 0.8081758851282598 -0.3282645676759121 0.09757542185332874
Ni 0.08088830695201446 8.164711366662004 5.538780450673484 -0.6717788624220431 -0.7925978281843447 0.24110134229484284
Ni 1.6148425898797052 1.39217342921491 13.3493588293365 0.662029496344763 0.9139073604298197 -0.09476777720120452
Ni 2.8903372661005067 -0.08394346282722275 9.8125853618165 1.3521058715244132 0.8552311867448498 -0.8304269832169763
Ni 8.72999980789208 5.235277505838447 8.679857649620201 -1.9501879184829383 -0.5866933455056089 0.5076995433092094
Ni 8.733562589666553 1.4920629256147966 13.156285198646836 -1.6244818555628215 0.759387402870647 -0.5921816223136898
Ni 0.10463015827024842 5.539307817579943 4.839612258847896 -0.09048689043766352 1.5814454452976376 0.30548305100502227
Ni 4.434478848788085 3.2070394243644054 1.0217860719118514 -0.2822364217722559 0.7952445217785723 1.4810585221374428
Ni 0.39322488248223075 1.4573093524743503 10.835231577613218 -2.344044156016731 1.2800633038348663 2.49790616827693
Ni 5.552214676092746 2.644354915987968 11.000801285042314 -1.9278697146017119 1.095919866982306 -1.5726427594043433
Ni 2.5125695922509066 1.071645275747289 2.8352250742556344 -0.065594498071358 -0.5090403736078202 0.25802897128811686
Ni 9.457258512906277 8.32642781749649 9.305115510512751 -0.21939171853189313 -1.2118236548311774 -0.4024092693101263
Ni 9.31886465199915 0.9150878081260773 3.73943652746597 -0.2564320591146423 -0.3899751573118316 -0.15235945957274408
Ni 1.8243134771636011 6.046595299579142 12.173373870139097 0.15839820956765624 1.3049209863084947 3.374613522617685
Ni 6.924600095715922 4.290322493876334 10.14924379825726 -1.4990523876117021 1.8054975454196776 -1.9286690705745557
Ni 4.104145995080949 6.014492661690416 8.173294944599398 -0.5258839275277201 1.2729490613875882 -0.6037842395496247
Ni 8.396922014137067 6.491134580141371 11.005314455305966 -1.002946462677363 -0.8302750310201442 -0.9198077850746545
P 6.561581774383867 2.8178219663424864 0.6428188968632464 0.8898179235807836 -0.56977600092498 1.3188329684038964
P 2.177019472356877 9.08792306927225 5.455224287606442 -1.6231898762242754 1.302072718226422 -0.3778464923690976
P 4.149503309228272 1.38117486806416 7.850010570508357 -0.07780286721209183 -0.9610184549850096 0.4712225314290981
P 5.656315587360613 8.27857937625092 12.383935213058452 -2.871867980879641 0.05143054786615013 1.4790692596215558
P 2.485975635417171 7.119002014175329 9.037167059681444 -0.5389111930253235 -1.222100097056521 1.1416129981440468
P 7.59797525157106 7.084803069332229 4.817419606570383 -0.006336483740989087 0.3024090400653889 0.463530304991163
P 7.671759616077244 0.857879309326831 7.225977592109776 2.2553305554294063 0.5944963864897955 1.3903402324152636
P 3.8508594723067584 1.1398457553615537 1.0388686234700928 -4.6267232786624195 1.359273078696814 0.5804679334211874
Ni 2.067259472360164 8.578041054899028 7.670461409842271 -0.6693098320562602 0.7432632436152748 -1.5703398223027794
Ni 0.08398858512937966 -0.16083656594242637 0.8930107817478415 1.1827799593006598 0.8704929979999265 0.5609301204985758
Ni 5.710114532203126 1.2549170263413219 2.0540414579720703 2.0293951222417244 0.275142491039952 1.8984118143519113
Ni 6.54378666647073 2.6416099759400886 8.284189582485766 -0.1931577245360286 -0.8777015999332238 0.9683849226524095
Ni 4.060198752876031 6.194859664083096 4.705562359571334 0.37878803034676056 -2.4703040902889457 -0.6205987400038022
Ni 5.52699318928295 6.476817649686165 10.225039865401273 0.8316958226270709 -2.718073331522267 -0.21387207426524457
Ni 2.4324493044835216 2.387966234940489 5.589164201271497 -3.7849536167391142 -3.041451517640156 0.35652690495571504
Ni 5.5653753475551815 8.625071654418004 8.812242723956764 -2.8346661750183633 -1.6732052889104538 4.333773327127401
Ni 2.2651865706755805 6.954192805547171 5.544820258826781 -1.6079288363001467 0.07903699672950903 0.8277460939507034
Ni 4.846802685706194 8.847590407408944 0.8424004795910834 0.9949076515332865 -4.037054395468254 -0.6206771586502213
Ni 1.1217592325803207 1.1684044124350392 8.831931088464568 0.3566963406540437 0.32143031836289804 -2.2548677568603748
Ni 3.7589509831008776 7.415070119682052 10.873562973295524 -2.1142708371401975 1.6373563975326446 1.1819782893349708
Ni 7.602365275551744 3.0113778416364507 2.757530110229184 -0.6999918345211493 -2.2520822236954374 -0.23152346879842065
Ni 3.246991462732514 7.04705074319427 2.1740855826687158 -0.6021058234059372 0.1870665240366262 2.0781486374963434
Ni 5.269138033415371 0.49040046041697094 10.928830273054059 -0.22511679394112843 -2.7842920934411857 -0.9264201481848497
Ni -0.11983355395324644 4.665006810411878 2.600242225341807 0.4438485102915195 -1.0329406950466082 -0.9936323843652887
Ni 8.839543596857625 2.8515038848067054 7.913258877460899 0.2944908136595767 -0.3000145716912833 0.14751627254782979
Ni 5.344238465067798 6.477851702443927 1.2085811222659706 -0.3967623554369941 -1.5692607303059876 1.3244932520134673
Ni 7.6714023978518355 8.07716469999796 7.117449994990724 1.9456625198087587 -1.8033172499389072 0.998671489451093
Ni 0.28997941485942286 0.9368894004515637 6.4582235010056666 0.7463660509103145 0.36361235104758666 -0.4404091455926673
Ni 0.9337515203557343 4.006287002278124 6.534390887094513 0.619776758323139 -1.1970794066424675 -0.36157937977795795
Ni 2.9878014387594587 2.829140143800181 9.664708297072726 1.7256606784966926 -3.105688473242355 1.6444259027849164
Ni 7.993378225180323 4.287840767257703 0.6405345803165523 0.31711729280984097 1.0901006891973677 -1.6721647634610814
Ni 5.645617841557575 6.995667721613075 6.306163222832762 1.8699479025842636 -1.2081487770827515 -1.0122731393949276
P 1.2047372661509776 8.983793956565536 10.976449342596998 2.4722481013891935 0.3595034710855357 -1.0267044843289093
P 7.922536210793956 4.600867337991736 6.554917774384066 0.5649608389245238 -0.6374284099666312 -0.288685005611077
P 9.167178512914962 5.700779855944413 12.795852949257151 -0.44568170684551633 -0.8921625125535602 1.2328804755014768
P 0.7598247865479926 2.362509736140292 2.346631386020863 -0.29361895257758464 0.7067126981847507 -0.4360650096913587
P 7.183921726403602 1.405155491564641 11.475127865363842 2.3355957681390613 0.5082114499486216 0.23564340450406515
P 4.680235587389839 4.356727481883937 9.551764354630066 3.1339796068775643 -0.7820249377645049 -0.5870535570585051
P 3.2227570262824 4.195885275653742 5.419948047799345 0.7930395437074536 2.7925630752007264 1.6739401101939495
P 0.8371390311499941 3.296861007095529 9.625277045275347 -1.2287672246640515 0.47394224435310633 -0.6774090641246269
