# total energy = -340862.863566775 ev
CRYSTAL
PRIMVEC
9.34225374797654 0.00000000000000 0.00000000000000
0.00000000000000 9.34225374797654 0.00000000000000
0.00000000000000 0.00000000000000 13.67333268964649
PRIMCOORD
 96 1
Ni 7.380772812360557 2.5817785264073323 1.1592550398576633 -0.9561747537394628 -1.2693204634960658 2.0335214857052724
Ni 8.07236117064205 3.5390699226999014 3.6499596716637237 -1.961449093219054 -0.7951457914171789 -0.01921025437986369
Ni 4.668529712772792 5.84017912063894 4.947846282902631 -0.6657020601003438 -1.1782411908900416 -0.15409906797167008
Ni 5.497748152836893 8.22345344003318 0.7700763686730494 -0.03965078162240268 -0.6952849159637832 0.13102778797450337
Ni 9.137312698787916 7.591094970327695 3.490364082937912 -0.4301545577441947 0.19698995379792525 0.3447383969612192
Ni 8.12153879421683 1.042586172743507 11.890453382479654 1.59671419853125 1.6079748590467338 -0.49153887438894706
Ni 0.9350101211736769 5.221936796302278 10.828664207217539 -0.17206156598736175 -0.2594155672229984 1.2555367794484118
Ni 2.3158699588144467 1.6803538073520699 2.015640753735492 -0.9626886435985806 -0.9851068633927809 0.9969905022042442
Ni 0.16842495271527316 3.154953818805404 2.032116752393638 2.0143778228972855 0.58348023788495 0.5056889406370839
Ni 0.4408516107276351 9.0583519703582 5.439799087245709 1.4118174284524332 0.19530073902096043 0.4164444072469538
Ni 6.184571961721894 7.988187464637345 7.089007689150665 -1.302910640746685 0.018804791411328903 0.16477891628301944
Ni -0.019347807451247798 8.471705148097886 12.55555178034202 1.3425429104263265 -0.3141049883460784 -0.010087980363621338
Ni 4.617932066632783 3.292817456930978 12.584689335465002 0.45589772814656965 -0.2908766139457571 -1.3785792352245936
Ni 3.904109144500991 8.84460120527633 7.715123664921374 -1.5088395489054531 0.8224552778654093 2.2435525889578716
Ni 4.781533613753137 0.9339236170662022 6.267924483624732 0.9877311883895054 0.8720408021030207 -1.4635246270187374
Ni 6.240765617839352 1.0594582829593224 13.117635014899982 -1.3472333739234603 1.3476992578162854 0.9564228651945269
Ni 7.373457827698883 0.7149355845496791 5.203810955637425 0.6295505498804512 -1.3478414398211045 -0.5640920631663253
Ni 2.3479512580841644 4.889735596322113 9.210179475116984 2.3432653688691776 0.4375421084575174 -1.2755479324630161
Ni 0.3159746394963053 1.4805043158034976 3.8765130612415795 0.6081887963752235 0.44560714485383907 -0.25652924681413886
Ni 1.0038812155872927 3.3491699313616525 8.106235248400369 -0.23666413245909565 -0.7243401814585267 0.7385676379118183
Ni 6.821050365317288 7.4217479371703945 10.455724241446617 -1.1262347159157635 0.8382595918875175 1.666685742624381
Ni 1.8522886447894258 5.448196839113369 3.7276106161220923 -0.7476670291099253 -1.4761777970063739 -0.02836029631024793
Ni 8.930465859204103 8.248827001132934 10.02609454588578 0.6756581428717913 -1.0983734707291215 -0.44297973453332096
Ni 8.045530217962193 2.4794154524124883 8.142701801565604 -1.383661020622875 1.3597926986457096 -1.7547635093999197
P 1.7150789644241546 3.2994504570711936 3.6414273913425146 -0.23350218979134624 -0.9019519878401564 0.35548920771982
P 4.38332939125097 8.930736784561944 9.855491913828699 1.3518716440264202 -0.8146684348311389 0.7661638023625321
P 5.693916796420332 3.6779985777493973 4.190807963519278 1.7354900058822886 2.4264775800222984 -0.9040955165457204
P 6.7920520097747135 1.1273951520010772 7.184693854412817 -1.8527693339224478 -0.1876722759414252 0.7610367655486119
P 7.420748316022503 6.852346915274642 8.513016594041593 1.0614938240939527 -0.5333707228230685 -0.38925421998540705
P 3.1342233578038012 0.5231325761289485 4.635150774461559 0.10540185987628299 0.4219180287670153 -0.3986402891859973
P 3.422226355441207 5.19821681411072 11.293051757738475 -0.5758216928984277 -0.8679553191797375 0.1139849735596037
P 7.744195824268326 0.9244926119372621 3.071180895485228 -1.5757378533898991 0.4455338684137424 -1.789081051734867
Ni 3.802231867699515 9.036453727641769 2.6082703552772037 0.3384065412059204 0.10834140212058116 0.05998975029007088
Ni 5.041631299533044 1.6103149312236271 8.72087893660462 1.2313277863023764 -0.890234442292912 -0.5499070299151948
Ni 8.37704009116718 7.3601264316424215 5.997697926363103 -0.3697027802160407 0.020151535247210455 -0.15417671528714094
Ni 0.19381719832246364 2.1873112053926116 6.23431479164665 -0.08638520956446413 -0.2246012877572906 -0.48384741928196023
Ni 7.917943058927094 7.304250412151396 1.234071544537805 -1.7385506470854832 -1.9332998844783476 0.5115729102216867
Ni 9.357388169637286 5.413266152459475 8.613598100252299 -1.3167375193274484 0.9264003506905077 -1.2179230828606962
Ni 3.7901897026562223 6.6512362194740575 7.246127580641045 0.5498530367488078 -2.51887197189532 2.1309662955180073
Ni 1.2610360914458378 1.165259306322616 13.55300739382165 0.09338272392821982 -0.7224442499873945 -0.487555978481799
Ni 5.4388265586336 1.6410696304653016 3.929688235182554 -0.17050964811920957 -1.275106216939907 -0.3712960928450896
Ni 8.285756930082611 8.973972734771685 7.592733601629939 0.6941690571917851 1.172659068816574 1.1728385318172319
Ni 6.405833898793527 2.901059389494655 10.531638460938696 1.4842286923353083 0.32259477098464445 1.3929427030351171
Ni 6.840342119246224 0.6455104944905493 10.061056996202318 -0.5717128129363767 -1.3878945990882485 -1.308926507923462
Ni 5.053150298368095 7.546112018672572 12.269272428515698 -0.18455661313057892 0.2317163015355171 -0.7529689009388129
Ni 3.9842002856306613 5.349944356754715 13.562947551778253 1.4702269787395776 0.6882030694163374 0.42784133622998577
Ni 2.1368536930583817 4.654647123746933 1.138120059270045 -1.4497751386431288 0.038253644164559925 -0.19099054168138077
Ni 2.2019131479548038 3.06249353375229 11.638371350390317 0.24032384069886997 0.29636026276814764 0.5339199104583191
Ni 5.57052430930489 1.264006928128357 1.6149159911800441 -0.8752132862937315 -1.0523514954730522 0.862501752264334
Ni 2.557955779424869 6.997469484539579 12.837276783480517 -1.1146195002743386 -0.9761419408900093 -0.9959155239725106
Ni 6.339559950913686 8.420061169541393 2.934734477248768 0.6099348325320528 0.5316043749512651 1.6146281026971934
Ni 4.931906529607933 1.2341304007362321 11.412707343366472 -2.104620201424311 -0.4917643601361918 -1.8650962309189167
Ni -0.16358099416217223 1.083467875016158 9.447397981540009 1.9300937188362244 0.43424852530791025 0.6838879869807512
Ni 6.169941992398545 4.338878948057809 8.805257237965762 1.9437748158677426 0.3664158819346528 -0.3383489484951076
Ni 4.102006105022373 3.3521501102978903 9.876863253435397 -0.500838297413002 0.5226312249183773 1.0169340352057068
Ni 7.911375454562908 0.11955282083709226 0.747161688752035 1.2860760856878495 1.230149706833875 1.5514465849427024
P 9.333817663505226 5.726362443585075 2.311572522103885 0.48044096470357256 -0.4315617225043664 1.57973848990886
P 1.3101109502297126 7.330408722563513 11.089100082582059 -1.44460285041357 1.307177129332523 0.5341721356784414
P 6.352517656821402 7.431211640187349 5.065532521446745 -0.396202369168466 0.34856214158268356 -1.4855528104633706
P 3.2751045438804876 2.379210439026644 0.26524339912812034 -0.304978600564778 1.1837621207082711 -0.157781916139896
P 7.081372265186443 8.571639236125892 12.53070699080274 -0.2289783337790637 -1.8302989207340734 -0.4104179985472158
P 0.9227839137321278 1.2883715258265 11.348196278763332 0.9225025582979983 -0.5306471532443183 0.5634423453974684
P 0.5886171035695672 4.6618873703788575 12.842431839082447 0.1882644009994693 0.16229214530542374 1.318572001433026
P 8.594172752095186 3.3681253641567186 9.904196819365314 0.6461447067937065 1.1245714692807276 0.8358178152152443
Ni 6.6210420554555 5.919719068799212 3.5216484879654315 -0.22559964711481792 -0.9355732754390274 -1.4454058059308397
Ni 2.808617788948978 1.0326740415480584 9.673541246179617 -1.3229205082097086 1.1148195321002865 0.2016611340213495
Ni 7.977836247517122 5.3913211984744525 10.631262386143241 -0.9881847309871562 -1.1342889536788079 -1.043367546806887
Ni 3.613537027090967 3.579783464405618 2.670004902075171 0.8231278784524018 -0.12531479675012613 0.5453615766363575
Ni 5.511630741862753 5.345357310178876 11.404284367413771 1.0031606355706981 -0.431005078669948 -0.22558576315774698
Ni 3.977109515058234 3.2080178199271265 5.154436210509183 -1.6892073207656648 -0.5757615290844537 1.0459718171989534
Ni 3.1627172316455714 2.2374791078615637 7.313988777427679 -1.0958913277372158 0.3972367239702514 0.7626467903482091
Ni 2.99115608435696 8.928793595788472 11.69413152593523 -0.9061521419644329 0.5216156391696694 -2.012177215701541
Ni 8.150350304685032 4.847611374304887 0.8290016997778299 -1.0136090845975316 0.36795263029415337 -0.722331121448298
Ni 2.387170039194902 4.561112479516178 6.533336977545159 0.01989571048266251 -0.27833065895994646 0.0495497859036695
Ni 0.954395297639799 7.66730907616414 7.648834769435582 0.8738760555395465 -0.5450679566553387 -0.1748275587682731
Ni 7.086034049792031 3.07818851999956 5.805902391745348 0.27262846636884663 0.05150176742371775 0.561916138560929
Ni 2.6672975169475173 7.310089320725529 9.53390911942511 0.8996130552943346 0.5973274281806874 -0.7495069105321414
Ni 7.968886368454691 6.483103679300177 12.62050006241919 -0.16512524387884464 0.28237063335727497 0.2632364836309854
Ni 4.076268196027594 5.903145910702392 2.494849789781009 0.43052762481289725 1.0180972022758725 -0.43230091466323606
Ni 5.360033990770817 3.5429189312319704 1.0858445443621731 -0.44756812523495176 1.3525784402854577 0.2784862107012042
Ni 8.58086938279988 5.489171963923207 4.7361825773015 1.7033386179607244 0.23537755243718816 -1.8040631269659961
Ni 3.9576309160549252 8.043577686935002 5.489924949572926 2.010970339877633 1.9901140652539147 -1.383644565562643
Ni 2.2189440764838357 7.656565484387736 3.8442981677436863 -0.20555506975911694 1.6239216121839772 -0.23667210287889562
Ni 6.749526070847586 5.53043669859832 6.17159557130674 -0.10521828311056718 -0.6358610654795113 1.554223376356891
Ni 3.610127104483673 0.336266014573133 0.04060984268943943 1.14107152381828 -1.0474463448619509 1.191436606534393
Ni 5.161866104891597 6.445641241888539 9.115682578753212 -0.2530333178457384 0.4362313600658939 0.16610174885950105
Ni 9.034744095211263 2.829768651367918 13.569305889659143 1.9417845249105914 -0.11770561694430051 -3.6062745454352347
Ni 0.8699544031787424 7.338293584702023 1.0886845894926316 1.4212117251831395 0.030748079816134137 -0.4481656496096346
P 7.072272910064514 3.3740950642829124 12.654833779060464 -1.1261439559741702 -0.30327550183074226 0.1596192264589509
P 5.937777645237291 5.752922470907093 1.2359138369711153 0.5367257553382304 0.6870193335208813 -0.08129082576069226
P 2.5881779702045824 6.479254670768108 5.653307887956265 -2.533945835509307 -0.22962059534875295 -1.9447492639658701
P 3.1928459998880987 7.391609826674148 1.0639668546039251 0.7891312097919828 0.5046144766259826 1.7053823878636307
P 9.059912126729207 4.506553717799477 6.461224121091185 0.33964272760586667 -1.5058889509175615 1.8289431780371275
P 1.5410608044075478 0.36627146506657465 8.01787808118047 -0.592835710957921 0.34187675914270804 -0.9837680899766994
P 4.355797769542217 4.355919218840559 7.916750053127227 -2.4494948668530783 0.21910401208814523 -0.9984596305506029
P 0.80557226167692 9.152316358260009 2.249195228250077 0.42153364884440314 1.0617283087022615 -0.17269919957136065
