# total energy = -340855.89941934415 ev
CRYSTAL
PRIMVEC
9.41082330873314 0.00000000000000 0.00000000000000
0.00000000000000 9.41082330873314 0.00000000000000
0.00000000000000 0.00000000000000 13.77369117292492
PRIMCOORD
 96 1
Ni 2.337996743688012 5.694357513780977 3.471631123198224 -0.8123346444916396 0.31001230633394355 0.7946395412047218
Ni 8.426959495253948 3.386080150525697 0.38120328411990134 1.3309240952404757 2.61423110282362 -0.48560836783712497
Ni 8.611693959438412 3.264784047169938 11.28605235462317 0.19500531926772868 -0.4223507454290597 -0.9286773196501426
Ni 0.2301106315791777 3.4279206715529065 9.108170419910605 0.5456317995786086 -0.9914222640878475 -0.6493398166922366
Ni 0.6395821471569137 2.419852085994506 6.148107894739983 -0.4496877426811159 -0.3755314710826758 -0.4947455542517028
Ni 3.375314168507 1.1122181686011654 2.1820556349094975 -0.3384006276686495 -0.7810543463211195 -0.5368743651009528
Ni 3.2145961257488604 8.470625716029083 6.70939951951058 0.9115779409656946 1.2708520696492436 -0.8925196387826629
Ni 1.0722033473218817 2.6059699412250783 1.9901058923913488 1.5033474154426303 -0.6825294160703278 -1.882135702899707
Ni 5.632311954821824 0.6716034150037836 10.770392871644933 -0.2991229131149494 0.6851118320855234 1.4686933157038706
Ni 8.438101910210364 5.0602938734909895 12.562336936963465 -1.780590754875669 0.6514319233345749 0.7980693928218772
Ni 8.857109413182807 8.018360363009371 13.860052787530316 0.29656955056547635 -0.3783928517908709 0.5606514129158926
Ni 7.480268300190253 2.0005246150250025 4.1919543711659895 -1.7535142103738508 0.9017270163135438 0.1560173680403055
Ni 2.6387666609236446 5.512822729567104 6.035576091256611 -0.29631192602871553 -0.38839444308827303 -1.3547412522647313
Ni 8.561562502957994 8.588486868828179 11.485619217636016 -0.48782105921772756 -1.2679040427645134 0.2586714899681222
Ni 6.806895650379201 8.804738180722973 9.489536511276071 2.7313034570592962 -1.0894782251220205 -0.3752396508738699
Ni 6.4264913451696035 6.393120565241019 12.094044951620464 0.06736213149474206 0.6036202031679346 0.6049723463204549
Ni 9.001330282445512 1.2891981142686655 13.467804961017807 1.626702003142592 -1.705319395836179 -1.086517856942116
Ni 1.4893663288995138 4.417958119394679 11.622103448946298 0.3841140705453643 0.7383084707131607 -1.6000134381078122
Ni 3.9003345975639054 0.7519934921002149 8.517802173948429 2.4720113027880393 -2.7109261789545247 1.0273485456708114
Ni 2.438570213822468 6.421588306155844 10.116913761509863 0.3659492267108794 -1.1032899341941322 -1.494335184641691
Ni 1.7292576292829152 1.77972787540728 11.971128304467834 -2.135997687294328 0.7882650051369456 -2.420905999471792
Ni 9.145504097591003 3.295265704301546 3.5862831852032837 -0.13958107686115315 0.6323448247961367 1.5759119170739182
Ni 2.628932350425796 6.6453965092753 12.34433991732001 0.695288515508209 0.46410777476118786 1.0190235707448838
Ni 4.516018899669875 6.718255104370365 4.375516246749466 -0.5240515023046717 0.6692987763126667 0.4122537662043739
P 6.707300905882809 4.4388407366145115 4.3287265736736265 -0.11583565361509729 -0.3419479787002756 -0.37253922122357136
P 7.962262444466142 1.3335325035082484 11.508814074175774 -0.6080450717085076 -2.4359685502318693 -0.9669397055654508
P 7.84515415754248 9.078094369269387 2.255510876210843 -1.8857725283213458 -1.914393020271516 -1.3287445710906536
P 0.9366856075791858 6.538903631195249 5.42070488429611 0.16511547368683177 1.917894605666871 0.022974092297670112
P 3.757233616290907 1.7034437405789935 10.814592686109282 -1.4157231912647423 -0.03874395353741715 -2.0996782840380037
P 6.4912942753975305 3.8528569932943886 12.037476491905089 0.5823522949280939 1.330423501454973 -1.2283252520306265
P 1.3950322347077122 3.426217312509739 -0.41618613810425736 -1.03466796215036 -1.2156828806762676 2.836401155431599
P 5.47554645790971 8.4104152676413 12.242772664229982 -0.9864574638834044 0.40987395311828767 0.452455278123924
Ni 3.788609301649593 2.2969184993596787 3.985569366568751 -0.3494460868495337 -1.1658281619376696 1.6562936007567794
Ni 6.0907413971966475 1.3072951277493954 8.40360465471566 0.6349658073587516 0.6830575206596559 -1.3944252011179146
Ni 3.303669569636071 3.995957974567387 2.509621930816493 -0.5310940109737499 -2.1589501823254427 -1.7044845586397097
Ni 2.991521966857952 1.9244381074890173 -0.011514142482409152 0.5652189776819169 0.5914470581405105 2.4335493992674158
Ni 3.621924796828644 3.6248797953897203 7.324628337761912 -0.4267732999767876 0.22267424593790683 -0.8185610850173257
Ni 6.647212798199782 9.097800633558856 13.701255493836875 1.6994266845008281 -0.16857489299034192 1.9819325578843867
Ni 8.198991708172723 1.7896374724926718 1.755236207397088 -1.3410028196327164 -1.253417933333196 2.1802749119451486
Ni 6.406549810294062 7.517224603850589 3.0933235494517084 -0.029414962827007403 0.35584324862512906 -0.8198368664059558
Ni 4.618540410257015 6.0215247907739915 6.798308273987539 1.3672879785814902 1.3122463163253144 1.367600881836219
Ni 8.250835934519754 7.792368848851159 7.086674725925407 0.564857223467124 0.9985730162000158 0.4817267733945317
Ni 3.291454320807165 4.568211326484294 13.457970650519956 -0.629018074415749 -0.1695683672518628 0.4114659801957559
Ni 8.483048002973735 7.1334324022015405 4.3968929322000525 1.361538734802539 0.4348429643587995 -1.1822518547113317
Ni 4.3752047484935055 4.25585668559043 4.8881040369559345 1.1786877915091571 1.1426974894574773 0.540939536309262
Ni 1.3292882221354927 7.383430926962636 1.951126261690786 -0.3150087311072704 0.789789155090956 -0.06716724187511658
Ni 5.167671368974675 5.125454415009748 2.697439380760856 1.2368294328468956 2.1533901717391624 -0.14012332251786835
Ni 0.9427951141583275 5.735614563754726 0.4557398290348382 0.2626428159110445 -1.507465551376062 0.3465821350381773
Ni 3.112300474924351 1.5520141805590133 6.305899171407375 0.4388698261300054 -0.5052156005450912 -1.4511465650693587
Ni 6.730752677902559 1.9622696177295442 13.140555809860837 -1.418331318311551 0.6481005449684968 0.6149394848354958
Ni 9.207860213723771 0.4687766427503114 3.5080491277576247 2.8722986406591566 0.20136520004748545 1.741716960628607
Ni 4.805420542186464 -0.2248706850861614 4.854950647048882 0.5904674678360605 0.23061432672058993 -0.01591307168583066
Ni 5.954359743861892 8.473279568239986 7.33053739380172 -1.1970238708141836 -0.10293282951050016 -0.87438256286232
Ni 8.858502215052358 5.071191607037888 5.562270960265568 1.5101179013972443 -3.2261803946825403 -1.1002771155097373
Ni 8.766153804607011 5.626580763345087 7.791199083497204 1.204444331647971 -0.5109694723097329 -1.038621033260837
Ni 6.983790898635716 5.9763904815417614 5.966804616782806 -2.4599823966479635 1.7918586144800044 -0.18214131882086695
P 1.7413599482305067 4.941896303755648 8.297919225287012 0.3764439555946162 -1.331430602563249 1.2689785067756145
P 0.9380266499198014 0.17035943137540802 8.253099237557775 0.39414908618386313 -0.6884696928141627 -1.7679087885326263
P 2.1576759556982763 3.706895121694743 5.180630072855571 -0.09016344565997375 -1.996777079096387 -1.1652545488223867
P 5.246966967304695 2.336302795468287 6.024778112438208 -1.3463594559589396 -1.990877168672184 -0.7411251142263494
P 3.9043436083505885 7.6428496859900905 8.664685365163136 -0.09014339105531571 0.5928745346156564 -1.0189708631300773
P 6.8515405967923995 8.129765690926625 5.240338924353848 -1.5231783341256284 1.2298494019846369 0.942786248247699
P 0.7871815020356264 0.24995617605560141 1.4414859413866399 0.7102762471662929 0.010373629924840198 -0.5329904566655143
P 0.3676168783153619 5.058308189744534 2.6414496866872206 0.8177285618137013 0.8624156203084308 -0.9255842825471154
Ni 0.2498893592091567 5.576863383096156 9.88357427640742 0.5725679618478203 0.1932893650178865 2.567419284676404
Ni 7.635471600410844 5.06277833087992 2.1587779631234416 0.5411830197786357 0.10033472976602074 0.8830806048569502
Ni 6.01093761440071 0.725450264579467 2.7773683275085848 -0.804125626318286 -1.5520765052172172 -0.6161131934286228
Ni 1.9244098750186884 6.89835003259747 7.565034410187641 -2.3114273984229743 1.0726290147751656 1.884401359005432
Ni 4.242690943593789 6.439638265519359 0.6574881209217521 1.082629063410671 -0.5938525822582095 -0.2269070530723318
Ni 7.324792086089818 4.622172988105981 9.269969766282337 -0.37922794609765653 -0.3297846038648643 0.4691646204588049
Ni 4.346351163817522 8.764121066743343 0.7394761558387908 0.12988416128836341 0.9766885574220987 -0.31700699248422176
Ni 4.478215621899677 7.464326365277952 10.75529696976015 -1.0853819435654597 0.6823152431769927 0.2018010020333234
Ni 8.098220610745965 0.6367805450179571 5.800252804572402 0.02864363187862164 -1.4619264292936824 0.5622313558085027
Ni 5.769531171442999 2.9158024814362404 2.7107312277916327 0.5405096478606949 1.3997823516647698 0.5193006178832476
Ni 8.58768694883553 1.2233035285213596 8.11178160732721 -1.4758805774809292 1.0761403703625338 -1.22324578062519
Ni 3.2359775166111686 0.1971162845883101 12.27730379868908 4.387699644832211 -1.1867723682895044 -3.0810621900532422
Ni 4.471035163612731 3.048175123984313 12.234990854325035 0.7528107780943938 -0.7164206695011339 0.7512076952733321
Ni 6.214587833705438 3.9615425932366386 6.854904025090899 0.8972674378802935 0.10701471288935764 0.7847464504607259
Ni 2.006820455908314 8.709933545359025 9.758480905792446 1.5140110658040635 -0.35498527150020803 0.7955083169629202
Ni 0.12422381052885088 0.732308872704665 10.13964090012451 0.6725537929148546 1.5698178883610383 1.1690808645470123
Ni 2.1800360721986474 7.987398753882173 4.01224905102942 -0.1578590492347346 1.6530475830156561 2.0468547124790684
Ni 2.2583341232437184 1.943880868722084 8.418190489969838 -3.933594232699374 1.3978241994971345 0.5761219977476659
Ni 3.44374026576045 3.626263186435829 9.691527602407811 -2.411720219207466 0.28941648446046286 0.6294862723014191
Ni 5.944628952421916 6.632193123984886 9.218717480729866 0.10311306384210629 -0.8382665338660531 -1.1659711152734369
Ni 5.6166523446128105 3.0437896802599136 9.904083283936572 1.201403230828802 -0.5645209231736278 0.6301794417137018
Ni 6.0708186839679925 4.4490326584031905 0.45425762434257877 -1.070248944578763 -1.4633770456972797 -1.2155972629409968
Ni 4.7937981752344605 5.03519520736873 11.07271181041927 -0.14257924025752863 0.9402390563458131 -0.2816134434762763
Ni 2.038798433967347 8.67143386665405 13.586740829854081 -3.0439550007882996 -1.370238576569382 3.1350828672440714
P 1.5909749896126906 0.5288929829036663 5.11565962997036 0.20544785475729133 -0.5426328648512848 -0.11587884814820688
P 5.047288115492878 2.1785491620946664 0.9223604521343773 -0.9182898057682314 -1.1075132282468605 -0.8395374301586767
P 8.352519881820474 3.378805584004322 7.305194046269944 -0.02544055156029167 -0.016771820141700144 -0.08836547321928652
P 0.5056868333757768 6.373254316953021 12.272924001458746 1.033430233088517 2.9601781753809595 -1.6265593069171405
P 6.84076520395026 6.391370152080636 0.590534817537118 -0.008072749705805453 1.4561203641348666 0.06505430929717185
P 3.5750965393766885 7.475628764232895 2.3650801524743836 0.14478190433580226 0.209336134068104 0.9300659724675531
P 4.97042050961113 4.736119238352822 8.537512202567274 1.4802460535384763 0.3809405579133891 1.5748703631832812
P 8.221577684435724 6.938600124462827 9.428711536117463 -2.3690285938762106 2.0144973791942857 -0.19562366957801794
