# total energy = -340862.2432126662 ev
CRYSTAL
PRIMVEC
9.34726014967679 0.00000000000000 0.00000000000000
0.00000000000000 9.34726014967679 0.00000000000000
0.00000000000000 0.00000000000000 13.68066006459052
PRIMCOORD
 96 1
Ni 8.954394915277822 9.25067502387158 2.5685710370354538 -1.9011932337517905 0.7312001418031536 0.37098653202447074
Ni 5.833297976766343 3.90630418974377 6.682756425602565 -0.7816061050595312 -0.24786000117491505 0.14267437107449624
Ni 1.4454509799927422 7.219646230108667 13.05575492803645 1.795002559425625 -1.396199519409518 -1.3919692833782542
Ni 4.910573832527415 3.233301450722712 4.0970565341329985 -2.106817723296262 2.7779129293877194 1.2507329303018653
Ni 3.0214644913555695 5.467221875779945 6.652371286661791 -1.0031027857495691 -0.14084117452049938 -0.6102186823210588
Ni 3.1087679022230232 6.855411539394312 4.391532621495768 -1.4362475364703393 1.508367494365041 -0.9697666334912847
Ni 3.8993124390661626 1.1181286200616392 8.00700335120172 0.9062940668589359 -1.0849633679708022 0.07438304289726544
Ni 1.8267631152097568 0.8981305677578401 11.980906927176049 -1.4026465605864424 0.15187789195063522 -2.7549249531329782
Ni 6.462826608298694 2.0651275992066456 8.269247280995513 -0.16541115055037967 -0.019052902866392992 0.4227338398000913
Ni 6.30427837969765 8.184834977727771 2.663213916662343 -2.3125499420631916 1.7614635471279148 -2.224607672424253
Ni 4.359459367351283 0.4758017197755712 12.617864761166372 0.1221608245021767 -0.29540304106120097 -0.8343785116655565
Ni 2.8057577662390565 2.740485847814278 12.796218899541191 0.42367589199838646 1.125547717151068 -0.0655297062716936
Ni 6.100087479226609 1.6147205161168026 3.7121242050156664 2.729764908927583 -4.6363284058523515 -0.32417779920104817
Ni 3.649123670835084 6.645602935504497 8.491668143159789 0.48060577241621094 0.7218266710080536 0.8514313533827852
Ni 2.926047658578806 4.182852231919839 4.6435029775332 0.14997990359697397 0.6302946271353274 0.25009583248396927
Ni 0.6753788125802133 5.40808176008847 4.625991820154282 0.4302735998205622 -2.06452101941058 0.2795287930331057
Ni 1.3128694404055936 1.1465723330455428 3.683175739977497 -0.049199601653102366 0.37820773236325833 -0.029586455407865173
Ni 5.513920788059795 1.0915356646100431 10.571702753035751 -0.3968772837483036 1.1142988837101262 -0.1199368202676644
Ni 8.659703840928977 4.5089594480166 11.00228803600937 1.206696360906941 0.678002988954884 -0.959240022928348
Ni 1.7366835680438408 6.491840504158713 10.484776036756942 2.0938339094420844 -0.16082661650349075 -0.376813423118893
Ni 8.733565891536538 3.024362142037466 3.876838821212991 0.0506486753948031 -3.018236255865957 1.8390967215313618
Ni 6.957306023534152 9.133198656871349 5.858400978931829 -1.0680946172399217 0.2675042577684038 -1.4790941993222204
Ni 3.654217927679063 6.896791860583843 1.5811423530697837 -0.5686012638905885 1.8507515321614705 0.36442147721244333
Ni 6.158348952453251 8.222280102346081 11.976761417248886 -0.1302705980935047 0.3380614991616759 1.726185440651911
P 1.105453735143409 3.2832625568347615 5.164271562261669 -0.0013673126611718387 -0.8577326130104647 1.0494417780254248
P 8.764299683285167 6.5454844308148505 5.760351022938646 -0.6812171250168074 0.8630044029323654 1.5062887574591413
P 4.825308124397553 8.459962236343685 0.6126951505225865 0.5539097233166846 0.8381366931564082 -0.2905308005705642
P 8.386661021351975 0.8856332807846296 4.728063902239143 0.9063375185023615 -0.6608393326914038 -0.8092308087553353
P 7.579151207129346 2.946592936639477 10.134495870890985 -4.005530099607728 -0.9481426274636059 1.3408994612856326
P 5.3336027903034715 7.806457882233709 4.554045957900878 0.23169033339358805 0.8243566086531803 0.723019148654258
P 0.7384756235415167 1.0073075023695048 9.890268785256401 -0.33645430257555603 0.16653112308743576 0.7454885334013678
P 3.6990286933855483 2.678438734180642 10.762124204411627 1.8659310681153867 -1.511706586040603 0.9047758304421967
Ni 4.384463288557968 8.223672844125444 10.144360034647775 0.27999441981561457 -0.2505105514238847 1.5376911830298228
Ni 2.341301750972148 8.854874635245084 9.419408027256475 0.20477679683219574 0.4828326048642007 0.4817601977356283
Ni 1.2210793446113326 1.0369850537082805 7.716795222875575 0.7440998805839572 0.9339971892011592 1.5775962467548765
Ni 2.43479304813449 9.26516327728106 0.23358616454983946 2.0889881513140085 -0.4226929592598268 2.5512881834424967
Ni 8.322931400870786 0.6673878397803645 7.64041595507887 -1.5284634937839676 1.5209828691362064 1.5616674913397621
Ni 2.734784019053127 2.907857890104709 7.166394888383626 -1.6446292770449742 1.374017326885524 -0.5218382967034367
Ni 0.23223081181153318 8.77161858807202 6.392466041386096 0.08213877558328435 -1.8089865324095427 -2.369145579070049
Ni 0.9267883330017936 7.707919064528709 1.3748520579434067 -0.06848878890001754 0.9723271951296093 1.8047310995672985
Ni 3.8853476322314755 4.811427442905244 0.6086412437460111 0.12512659199872 -1.3099986579417182 -1.0914726298442299
Ni 6.229490950323935 6.777707764818172 0.6317607572834373 0.26157709365069143 -0.3545283864684475 -0.3250380903188144
Ni 9.105885962379409 8.325567328265286 12.171574211496873 -1.1011674885344906 -0.18728609624660003 -1.291007718661512
Ni 0.07955733628652685 4.31192854890792 6.894724246613406 0.19929211956854062 0.16241093027147516 -0.2118581291590093
Ni 7.8585034273846714 0.7858578205466784 11.116548945478723 0.5498147273117047 0.2045407695619897 -0.9455864367006553
Ni 0.0037977918453368886 2.56690722470843 12.010305930158953 0.13411748264342063 -0.5963347252501149 0.7105744951330021
Ni 6.350696874169574 0.8205268088665271 1.3322210733305282 1.2558918487949855 -0.642386782413171 -0.9230494319404039
Ni 1.1544894624893045 3.990364101299553 0.40797893402469765 -0.11276884176431547 -0.19854855653429673 -0.1420123120104651
Ni 4.841179772326133 5.816874840482177 5.229856613905297 2.7322740485026817 -1.389221545429788 0.7396184477738359
Ni 4.284886924963644 0.8432911265139145 2.1546079869896273 -0.5094023849329291 -2.070197758080383 0.0660575537507056
Ni 7.638403489943992 7.332794815606583 3.990128550340896 2.068746370345837 -1.704649366352348 2.0528332986600066
Ni 6.358670087174921 4.091800569686449 1.027203145841815 -1.088571397037035 -0.5650253736138721 -2.0350098973253403
Ni 4.783105244304775 8.04616837170864 6.882589633338446 0.5264673108350159 -0.18035877299914743 -0.23815434385137696
Ni 8.352010727552655 4.346924691337016 2.2406597997077076 2.4764346286667154 5.011930325161646 -2.113557098902625
Ni 7.105086208310861 5.705782652242382 12.127905680994672 -0.34143607206086357 1.5442806633218824 0.24471322801581724
Ni 6.776558051805678 2.089112669044535 12.829709198341726 0.37470383297505794 -0.11240348800509674 0.6335046494321929
P 2.5037477871033564 5.428365314861743 12.462533859548259 0.21408907537205707 -1.813264848069922 0.2985408153592342
P 1.5445412860533287 1.7835413837481822 1.3571707804276814 0.16875049933625777 1.0280247458022294 0.4259019531154277
P 8.11662801958004 3.9760254040542993 13.272758118151605 -0.06210011176485434 -0.826441516206667 -0.1605905892332847
P 5.4438911141605475 6.376906591950339 10.488305562232696 0.565133359946646 -1.1087139334231808 -0.06766552166777379
P 3.3684534868825105 5.106314809719638 2.7139284119516858 0.32830159156143457 -1.0813419691681312 0.5741571607118112
P 4.410663659078468 2.2653178722846183 6.057864969887275 0.30074990719541106 -0.42991544515019514 0.008569486836565887
P 2.7664151477871166 8.33825156044378 11.855386307992465 1.121608529997662 0.2940946066624225 -1.716714782157314
P 9.108381680869947 6.693619811481597 10.749920421410712 -2.342116857087031 -0.5227728927025642 -0.44788179982062865
Ni 1.369579268428382 3.5158130449473295 2.8204049230730286 -0.1697041214987787 -0.6281246160672022 0.205137265495408
Ni 4.581840036296422 6.232640977032965 12.464681859956967 -0.24450445443912083 0.467397244145737 0.12883849363266844
Ni 4.632661090352776 2.244314578471003 0.42501431585616817 2.183313698771472 0.963080736830677 -2.28800927660935
Ni 8.976800298131066 5.882997359590996 0.13836749369067675 -0.14203802304207794 -0.08611447240158071 -0.27346716022005807
Ni 3.87587885758386 0.3745979981692531 4.337986841072405 2.547337683435181 -0.14486906473296987 0.17889272997658223
Ni 1.794664623462558 3.5388540414985363 10.311852656595613 -2.6494655005458823 -1.1298774548746735 0.169304829177831
Ni 0.7366585161461597 7.589031261228587 3.9805663030906384 0.664300808877443 1.738782046369999 0.00975733649707997
Ni 6.132830931932035 5.6349771557412085 2.851952861190667 -0.6837010677809258 0.3320327764690927 0.7221547437714337
Ni 5.587175266750184 3.941618139021847 12.106987447249459 -1.578489190882791 -0.4422248586451674 -0.4894225993768926
Ni 0.9155389052738514 6.721418563507272 7.599880626217222 0.6135248638761563 -1.5471155616675163 -0.5240466172086653
Ni 2.312540231139262 0.4941382402358158 5.7839229438728585 -0.5384311680651114 0.19474872317223235 1.6053726455371964
Ni 7.781136154178042 2.4811367645243014 6.060984150637432 -0.30384911494602507 -0.4508213420649268 1.1151828289769763
Ni 7.347899988193499 4.593935391078272 5.079629316391426 0.4188748710653173 1.5318223829538715 -0.6562033765812892
Ni 9.11169995826373 2.848988844960895 8.935646180639928 2.300735723037083 -0.42949892643806675 -1.917270598929627
Ni 8.154512465430766 2.2966218469093613 1.3715954724673658 0.9385899507781642 -0.924229311181118 -0.909163417986931
Ni 0.19395938938586899 8.327137667989668 8.965223716293877 -1.529396290010882 0.31605285610106854 0.7971237410791563
Ni 5.774045693951698 4.532215431553882 9.151868874523023 1.3909542118501788 0.06423772693314744 0.40229279833692005
Ni 3.651703514667998 4.660048562926828 10.01414709081157 2.979263731257501 1.9415693235759917 2.0304047944531614
Ni 3.4790502703283037 2.8873593483453592 2.054438072368528 -1.741917506675187 1.6713116714321667 1.5486780210586295
Ni 8.067190360042783 5.8553481637295475 8.79578873366314 0.2251113946244897 -0.5912531969621495 0.23583469457926481
Ni 7.386569603906418 7.820946135643189 7.640019631243669 -0.42419396928538555 -0.863705542764448 0.08755377595126856
Ni 0.25211617329755265 0.5229362143837322 0.17569110392555293 0.15737362495788382 1.094527871730786 0.6866498659966045
Ni 1.2914081308390333 5.7489950364436915 2.447524951340332 0.12629567260615668 0.361043561879146 -1.2053527023948531
Ni 7.4343154093358566 7.900846516381412 10.126479660488423 -0.9346409934327452 -0.06465090321116608 -0.5366257394252565
P 7.6773254816840435 0.04157941783315797 13.355484175667689 -2.2459326591542736 0.6481488817079288 -0.5122282844174985
P 2.212066530559577 4.987763507789026 8.646711149161764 -2.3318391293101066 -0.1337827250118212 -1.9484974181543928
P 5.9867986848247305 5.947755178701245 7.482131319217276 -0.43949408997756567 0.6297284702192122 -0.40407225883484604
P 2.54663301719542 7.8302840486471075 6.4643857313107596 -0.02427224228380336 -0.8188349075040027 0.32463134179869896
P 6.740318723761447 3.495333197708508 3.092349439568989 -0.6752747913904436 0.413011727416321 0.16426572409202678
P 2.6265614397144357 8.781349086007033 2.8480531842084504 -1.4392292448064825 -1.1876005206177547 -0.25563913089970164
P 5.75621112136764 9.116597922642162 8.8207421796644 1.013929186941112 0.9270642095267518 -1.7058081625471395
P 8.230888929049392 6.973177671462733 1.7331615203762973 -1.0667818119657693 0.5095908467946514 1.9429309798102088
