# total energy = -340855.90636192064 ev
CRYSTAL
PRIMVEC
9.40041173882167 0.00000000000000 0.00000000000000

0.00000000000000 9.40041173882167 0.00000000000000

0.00000000000000 0.00000000000000 13.75845278794104

PRIMCOORD
 96 1
Ni 7.570584106991909 9.102296619349788 5.091108908180414 1.0556435359607625 -0.34290879995164814 -0.44095627634538903
Ni 3.491754792089144 5.841096329062458 11.36273470099649 0.002396268146318454 2.8070782380977657 1.845725282591473
Ni 3.405524813901586 5.821280260816587 1.3101833460033425 -0.5422567124587887 -1.6724905222316162 0.7117515461602387
Ni 6.638636673487464 9.231411276540031 10.772442417195887 -0.35783431091322887 -0.021777243776091526 -0.08601317093702605
Ni 8.746030409458776 8.393900380795555 7.13194208778469 0.6253606801688197 0.10914898562354106 0.6766269345429637
Ni 0.05403732765871102 1.0724647903067575 0.1374659831056285 0.12030860178478636 -0.27453468225262395 -1.9397176150792337
Ni 5.85840248733601 8.341173470553104 6.4935629370462635 -0.5306695218418216 -0.12014327985151566 0.6891451216146325
Ni 1.8586024351196941 4.934661613403977 10.156957969594469 -1.2746938119928368 0.40401492323434934 -0.9266397203948235
Ni 5.40238850697207 6.653771336616425 0.8188209968419894 -2.0817625800998467 0.9975047228365014 0.4931679253519377
Ni 5.578091605446249 8.978935014230926 12.876935186060615 1.7595691583186797 0.22253823458067484 1.0712190218015165
Ni 3.603976909128614 0.5626268716338131 7.3495042803253 3.051771154398609 -4.473832114955921 3.1247341770198958
Ni 2.6623188501507418 1.4888748354146 5.948054215448376 1.3612019202884107 4.786537651851312 -2.5053842218215308
Ni 4.3761079402383505 0.8473568871489936 0.7629543490311691 -0.23511658546631764 0.7360410148352227 -0.9921128623969687
Ni 6.604672985360172 2.7460577191897437 1.4287874026690566 0.39473375504273955 -0.8134165647019087 -0.13357343721449252
Ni 7.773332190448711 5.1262796091932685 8.740621412462252 -1.1827735315427566 2.036018798205829 0.6665973182211036
Ni 6.0428009668004306 4.875542423082212 1.9494216943877234 -1.1403171621507588 -1.390887363167985 0.07299079053542915
Ni 9.084642645836626 4.094292992447573 10.716239234639714 -0.9124837406094156 1.5497637979236405 0.6945269547518361
Ni 4.377141985545298 1.3772073426761287 11.864602010435243 0.0903508790804315 0.2671149927497852 -0.8569522832010145
Ni 7.858706731155065 4.254570015024469 6.071577507651598 -0.0338647710682449 -1.436888769598764 1.563229436510243
Ni 1.7405050606543844 4.414593226480568 2.7542633387209676 -0.13347547818404754 -0.3716300791457406 0.05589681116761986
Ni 7.65544162504479 6.528388642943074 6.257276064079208 -1.3542301169562678 -0.30607029096705995 0.5471806321229673
Ni 2.243408295482462 6.639040891198362 13.23868653628439 1.7155156196428907 1.4526738003471626 -0.9164864340109055
Ni 5.598208486872322 1.2561676392919585 9.087403546806176 -0.05637940723099322 -1.0855238684599628 -0.5342819217834281
Ni 2.111200902783257 1.9856772029316863 3.807885943452762 -0.2905418563141577 0.426546271567646 1.1090877718228318
P 7.740054732388757 5.919317156327112 2.051289257739895 0.9540852182002859 2.4980846028363235 -1.1554056810527649
P 5.564489209453946 8.734843919319978 1.907031477049996 0.6127108526152932 -0.6479164539821486 -0.4695983655621138
P 8.779270265871205 7.120859002176587 4.683088730676669 -0.4706072664426024 1.5078905547286225 0.4097058029715396
P 6.1018261530033815 8.481079800583128 8.649348113300354 -0.7473605536130998 0.20523342475364006 0.1873855979389418
P 4.0881075214296505 8.079343798422062 5.274688611769969 0.23286661308987636 -0.2757559562542348 0.26766983681199064
P 5.078271705715251 6.982428536811932 12.444603663349342 0.5918445506892452 -0.8491726392555956 -0.47487401213875635
P 4.226199571966576 2.6721610813905077 7.241114711209853 1.4627216715014681 1.0711619433113357 -2.3750794280559804
P 0.20935375288582136 2.973801497839036 6.689084923889878 0.17352478079644953 -0.22599868232544948 -0.10917983886147647
Ni 6.091156685518057 3.4905045373089245 8.212186658964447 -0.09572679868036417 -0.8688248662688843 -1.3764195085691133
Ni 3.9964441051746764 3.874680570075643 10.891632119521809 0.3346401321849527 -3.872193975215022 1.4197209995702258
Ni 5.793972064301287 5.984866228375715 7.825119999544215 -0.8797348283131688 0.923093912025094 -0.88916666315003
Ni 5.068034657176469 6.948831464748014 10.061474225950917 0.057279807558075546 1.3358582993172994 -0.314160267064046
Ni 6.699927358953818 7.115115350517086 3.8096739017925927 -1.0100213672462734 -1.2802067713912662 0.6345791134432942
Ni 3.7196301765047743 5.30935263058242 6.458864136709851 0.3089725522155195 -0.05141255014402114 -0.2915188755154463
Ni 0.7289822005331843 5.5717933294857485 0.8213215064024265 -1.21036506800778 0.7749155804132332 0.7848168986873452
Ni 4.559274965746314 3.6043435251919864 13.635796595758649 0.9164342406167314 -0.43626838395141637 0.303387087707942
Ni 7.211102956237478 0.5317587391390477 0.5097495548012597 -0.36531904932604825 0.8605240597126729 -0.1670836531567961
Ni 2.3345170874364367 9.08390941370988 4.673595254717701 -0.5282226029632259 -1.2233167430724416 -0.5991588249624713
Ni 7.1617601942723095 6.292034087010473 11.130835940295645 1.5683104505775765 0.9591772880112126 -0.16220061403288197
Ni 1.6965581351091068 6.745359549576348 5.738210701103537 0.955466929039161 1.9354308147784216 0.8268086697380985
Ni 3.8795781846658226 0.2842346138090338 2.959195137857806 0.05728546398503038 -0.028199088142035304 0.7326034499085835
Ni 7.825814689982248 8.40758738049479 2.2236411093783746 -1.0640253322665545 0.20445515182671886 1.208277846461448
Ni 7.868417356628493 3.1924926798465956 12.906405477308626 0.6933360197675286 -1.3903145213836507 -0.4390364336148568
Ni 6.10202356165289 2.011894951668751 5.926192617577126 -1.6477981616912587 0.8752181713897378 -1.796156727634726
Ni 0.7009595727149014 4.826754285418043 5.392790686441219 -0.8002008373425831 -1.82409356325431 0.6127473622801833
Ni 4.538330848074683 4.850612530772891 3.6241276320374607 -0.023085163954237663 -0.3147593341006257 1.6331192195228452
Ni 3.558967737040745 8.975447461422947 9.68346016317242 0.1228262260003175 0.7384010304269669 -0.14395966554482303
Ni 5.782653968396149 4.850847541069924 12.20228924628397 0.46288752920084153 -0.04923971086241843 0.17321753396867587
Ni 1.173340610205447 2.9854204069243755 9.043981164243878 1.7042004517403877 0.09434971582717945 0.25195165474578546
Ni 0.798985187731168 6.692294224506168 3.3303440798393584 2.1179297740490233 0.8517198311574815 -1.382665489478825
Ni 1.7351562262939002 4.351055842574572 12.543347469833344 -0.20214373008472283 0.8161655882019557 -0.24595455662208604
Ni 1.8572205745731367 1.492249583280002 1.6575492459250984 -0.18580051284000904 -0.4312642458686056 -1.3508100355311252
P 4.892754577236951 1.9494574159528724 3.9575367404389867 0.37718160509158916 0.5951306776396847 0.48108296916294563
P 5.80247003664202 5.156962553573972 5.615966804957368 1.0152587043858128 0.1505576304773149 -0.31602534529724285
P 8.70089903201645 1.7248721756957113 2.194102195123631 -0.6287339675164269 0.4822700474925114 -0.6883917883883758
P 8.052750033209744 1.536591326124296 9.951062628239795 0.2126898810316853 -0.31124746429262523 -0.25248078777637806
P 2.1866580089547956 9.189504240373005 0.03099315797278725 0.7827808420939228 0.7972222143302334 0.08836650166055104
P 2.108164569745583 7.53405410642101 1.696678460381188 1.2846861473188582 -0.7770722217449199 0.6112720632862375
P 8.326734437903362 5.133649532108241 13.162326990572243 1.083800715121269 2.4613486808678706 -0.6356198960029827
P 8.603162949686128 9.334054373872412 12.09088684516055 -0.5404836797187659 0.1192163971618721 3.8420621888266475
Ni 3.489254282528706 7.436506032328316 7.896567830048362 0.7976641869636584 1.032214615513861 -1.09151710992892
Ni 0.2574265192058204 0.20479925332931076 3.3729260655794655 0.5288491808036311 -1.1675713698810215 0.11502755589150511
Ni 7.211272163651342 7.44171386051058 0.17878925369482335 3.3381704492993025 -0.00030596127619302146 -1.6476338681992526
Ni 6.416598944850147 2.799273450850025 10.662952059849133 0.6464822926387834 1.0799407179452305 -0.442929855131992
Ni 3.8397110378770476 4.3131533818689975 8.779709265106064 -0.04434690154649137 1.4993874023536178 -1.982854555478024
Ni 8.465164903268017 1.8110175501763368 4.512924354882977 -0.2758392599966605 1.6406294118569615 0.11749812891918474
Ni 3.6299126455092385 8.539804173605878 11.963676711417468 -2.7093868594918624 -0.8471918613801409 0.1328247319739261
Ni 0.13479062588419832 7.162681434636681 12.743408915574458 -1.9912355804528676 0.17329081040877253 -1.304620167238624
Ni 7.283486127723817 0.9747381083883175 7.363922632068904 1.4528314089709493 -0.9053975231865955 1.1480708379542486
Ni 2.350488387222838 2.1213063455557 13.010405994116672 1.0859673837552848 -1.2584809496784004 0.9021430208050398
Ni 3.417096720927519 2.0925692864344354 8.998784923959569 -1.0468020264097326 -0.5336792552024228 2.261138934581067
Ni 8.905555399085165 8.769343430924506 10.221952417342074 0.9544963375957753 -0.6089045914953255 -1.95792153968177
Ni 0.3031802039146921 3.269453851919149 0.5669332003166562 0.6922309596288079 0.5555256616535529 1.0518439597090141
Ni 0.7246937326329157 0.9081587511975189 6.004202875615637 -3.7511742062958238 -0.7856861886661759 0.1928255380075905
Ni 0.29683398585359755 8.402548759726391 1.042934336422707 0.5693571682200065 -0.8321581069754701 -0.18386961436588334
Ni 8.456958343695604 3.172902221485877 8.555419197781976 -0.6278160836878479 -2.8394849365632453 -1.2818407074502631
Ni 1.7014181480517607 7.456218696043492 10.671358848194618 -0.5297051010460232 -0.5299971783651454 -0.18039656821561836
Ni 0.6690489345424949 2.2805869244731727 11.573280426108864 -0.8978433649884215 -1.544729577933843 -0.8655395106493933
Ni 3.7023898211143917 2.9339719526977865 2.345692297080977 2.432810978439494 -0.9250122120937296 1.2159387054408155
Ni 3.8574684159209047 7.058553072227047 3.3513803215474276 -0.4934054952840406 1.278206967352418 -0.18366752565740627
Ni 6.915121587741519 3.6172784919407137 4.120684648804444 -2.607796145831554 -0.8194938812442402 -1.0084159704323665
Ni 0.2997979357197849 0.9091298137448616 8.505076231992634 -0.21047770387171497 -0.04699025270660939 -0.4393773618940433
Ni 0.17225314731372568 6.132076678437543 7.953981785654851 2.079137483772174 0.04961586325491455 -2.5490672645317773
Ni 8.694403347406443 4.948123003218059 3.570868658482525 -0.0809432126132864 -0.7266834848797227 0.1836734391946772
P 2.770244978960439 3.7344546260416522 0.7414076649579432 -4.4673783889107765 0.940423147332161 -0.35537762184262023
P 1.5240417762627034 8.748248906662774 7.538958301299507 0.37835762767756126 -0.1352773072794767 -0.4868579239735099
P 2.34791267436735 5.762819099326516 8.196350725109136 -0.9463677949513702 -0.5866671202533639 -0.22387315134201444
P 2.667009655679532 4.6968969956891735 4.69483830548716 -0.1692464651360698 -0.1235384215759937 -0.7638035296604717
P 2.533166591312973 1.2884392532806084 10.693949918027862 -1.2305148034827775 -0.1807794054763338 1.25726096122837
P 8.955330579996874 6.671180899420672 9.787487941174923 0.49143345915933434 -0.2114218129525391 2.318880769377226
P 6.013838297794013 2.3742996305182795 12.68411017738576 -0.47192032882707113 -1.328029804411816 1.9944147495117974
P 5.868827544112419 4.9262764460058195 9.784269240146754 -0.6301341902980632 -0.19679943505367398 1.2344323933696288
