# total energy = -340897.64059986116 ev
CRYSTAL
PRIMVEC
8.98078790377602 0.00000000000000 0.00000000000000
0.00000000000000 8.98078790377602 0.00000000000000
0.00000000000000 0.00000000000000 13.14429088913308
PRIMCOORD
 96 1
Ni 6.3813438981484865 1.7867008528614208 11.242798973663856 -0.5693204014448001 0.7841000751259787 0.23292009203563113
Ni 4.56814073956346 0.2895217491314832 5.84873646290635 -0.0674822020123741 0.1415633973985046 0.3564682838036377
Ni 2.727348599893068 1.4967112046692124 4.765752205060261 0.15539258997211303 -0.3622769200656148 -0.02030143056151342
Ni 3.2320329687320073 4.249843647236788 4.971802019068719 0.9877661553924989 0.5331699196661721 -1.077336190442848
Ni 5.109745128337926 4.375924931565385 3.047608892501401 -0.26181337803121363 0.6957808817635952 -1.148567317974693
Ni 7.017174715812163 5.95336444058888 2.5356779257334967 0.06923646569931946 -0.2335060464460882 -0.33716187016554194
Ni 4.924597200585353 4.757051617535684 11.42337478218773 -0.07116787839407743 -0.8978359087892538 -0.4963730625527968
Ni 5.573117871853726 7.650419066499088 12.179447575748462 -0.5579646101123488 1.1265386203094276 0.49512839151241816
Ni 1.7836204425384128 6.389246991688565 0.6019588772139494 1.1948885696387355 0.5216745174320628 -1.3984597761986044
Ni 2.7075280005260756 1.6282438273828412 0.3917725122003091 0.17100947057376353 -0.8011881409565169 -0.13402492292961435
Ni 0.6407891107812659 0.04944552511774052 4.562909430487214 0.3158790495273657 -0.8623667693483663 0.8537227205201233
Ni 8.409475277871199 2.351089501080409 1.4261428659079887 0.7505425508855075 0.377309388918705 -0.26656246268042477
Ni 6.680395161547444 0.8893279314345726 4.701305171477353 0.8833945365529431 -0.7181520503699439 -0.11231298517381949
Ni 0.7659103488605061 7.346230792299079 2.504999553537009 -0.15643542941433058 0.12837183840889504 0.5853152342111597
Ni 7.570041012881242 3.764575742299724 3.6964771202697744 0.45922756385075103 -0.282906451256087 0.23321525467854673
Ni 7.561814610969069 3.7825462993152894 12.5562814450004 0.005732017387770774 -0.45330965570441933 -0.4589537413640741
Ni 8.137070012805665 8.759546398544234 6.628705337480083 -0.698207488927217 0.06289406842105942 0.2620797443187229
Ni 6.679892237413075 0.8845860753105252 0.4031224322184359 -0.43905108890287614 -1.1699830646463076 -0.693617041343057
Ni 1.8336613939080932 6.364504920435249 9.221154417195686 0.15716459427087126 0.7716047708724453 -0.7543200156500687
Ni -0.0305463546112158 4.863213513828037 1.3951088545021975 0.2638743743253004 -0.9052383719009118 0.11077520837305438
Ni 6.429013921456143 2.0530979706788712 6.884940693546852 -0.24945434224522842 -0.6185302875105476 0.6352401440660608
Ni 3.2997750534738413 4.162837771991011 0.47983003773420263 -0.3279501217592868 1.4558221161681573 -0.6488965585072308
Ni 6.121583582747078 5.775086815743307 4.835166512548872 -0.5427187396968717 -0.06106549985275289 -0.30992720281930497
Ni 5.222220518674229 2.989237362077428 9.041655405166647 0.43695461138516356 -0.001324632348694493 0.37187459105637893
P 0.17645632101610864 5.553467907460894 12.42380045106196 0.017348004360144317 0.16269863671522303 -0.30148909935428075
P 3.9010118753234475 6.153806650499127 12.75259159429952 -0.9405601871306575 0.17209036234276814 -0.7671752743461819
P 2.4439059462357657 8.44192286532609 1.4526281081341774 -0.576905927101542 0.1456077426712073 -0.9378283900217914
P 6.27850489345821 7.840425600621186 5.723852317633312 0.9747468603146954 -0.33697135142129064 -0.0037928913835289517
P 4.632110893297529 0.9585105345898485 12.451008646731305 0.7620772909979844 0.19730080017012472 0.7646293679958767
P 3.9726695836828663 5.973499367539853 8.097646149144031 -0.06908374217153909 0.749864036761244 0.8249045107368503
P 4.675775485106465 1.101951682342278 3.6679936526882817 -0.39849964984307495 -0.7279885768443913 0.3246423975422925
P 0.0409317379859284 5.458567919463153 3.5200019395986275 0.9480837492012122 0.5428652925770651 0.9911337863131511
Ni 1.4026105068135928 1.1632096380660022 2.5773856038124507 0.46314361107570556 -0.4475262162534228 -1.0845491632515192
Ni 1.7819589967373735 6.465350190164277 4.724531285697071 0.37647686571508066 0.31916337670559225 0.053389214254417734
Ni 5.936956540705102 5.655040621027133 9.097400953146167 -0.320740491384725 -0.6278387093956671 0.26078853631112503
Ni 8.49210750930559 2.4197117030573887 10.139243322564464 0.3399345478146726 -0.11079449164676403 0.24652199908978187
Ni 2.293271187204242 5.0791565640225755 7.01721153704343 0.6498116141223326 0.09799888254399251 0.3715714579936633
Ni 0.37672340555813866 8.999557960883557 9.050593983576238 0.4754913340077811 -0.18282394671018834 0.9607466893808615
Ni 1.362888480986583 1.1117227798100118 11.295717369545173 0.0437887150501762 0.5698482489238121 -0.002362843805221737
Ni 4.239650452727709 6.67443191823993 1.7969299705229547 -0.014540102597703991 0.23353509991181073 -0.9017007910612985
Ni 5.716083037836128 7.805427469341997 7.855685755784029 -0.4202303566519472 0.2052449947178659 0.28820703753339394
Ni 5.338997706517006 2.899788712464719 4.767657928297994 -0.6908363932741264 -0.12721638464821317 0.6781819377349094
Ni 0.9114601856620386 7.1858788205285045 7.032156466543481 0.06357438231753566 0.8889823150533658 -0.44246191435663795
Ni 5.093660536826243 4.5067301104418025 6.794008417737755 -0.10607523179422375 0.8443621052408297 0.7327078366969317
Ni 8.231529942185835 6.953806274881714 9.167696275948733 -0.10603255148174642 0.563407635504791 -0.14813693685096424
Ni 4.575648678426535 0.215961011770766 10.41253948181088 -0.03423963790916039 -0.2806320533996135 -1.3599145689355547
Ni 8.010845035867248 7.266912471678653 4.361144350487815 0.542617438232317 0.19994569399213954 0.7508102027245972
Ni 7.303958222647772 6.091129730253433 6.996837721128631 0.38669494389866305 -0.1864916253697627 -0.6165309976923318
Ni 2.4617597530058535 5.179831198777443 2.6158718731950117 -1.0662549929280218 -0.5558689039255846 0.4637136246465627
Ni 2.199682394271105 5.287070789643444 11.337450193830847 0.08374597216940416 -0.7423924109745472 1.2598202373151144
Ni 1.215370055430522 3.2052881817293315 3.8651318306514897 -0.9166036763150602 1.1061903956703787 -0.28209064022301095
Ni 3.549638540373923 2.677397456404525 2.57286377699719 0.37993911323206825 -0.2645444038091315 0.37811080177407785
Ni 1.0655345865411197 3.3242656626599723 8.220938898763318 -0.35292453231643733 -0.2659903922270387 0.06934805157651927
Ni 3.8082582956848867 2.6380346621020645 6.922217250770495 -0.8173966323955795 -0.9459037108307581 0.27423489162401804
Ni 4.176362838890283 6.810562704467786 6.071006478327008 -0.5757648715185633 -0.050428331853880896 -0.6324546109011236
Ni 0.8592144508104382 7.4219567976740155 11.276921478101956 -0.3663647169817432 -0.17627586117902544 0.2809300442560065
P 0.2166821690562982 5.386083978597271 8.002782982377557 0.05548080667612381 -0.2187808244207716 -0.08001067349668801
P 8.430068225015972 1.6742164817370042 7.950534553289522 -0.5642157332283831 -0.21266699821354984 0.37537257690730835
P 1.6512166833777522 3.2307756583960856 10.44760856131617 0.5579106169459618 0.05102148535318955 -0.43280330822095137
P 4.0325714404014175 6.123011528057161 3.869824292440912 -0.2484927496629075 -0.05637683612783194 0.8842993077553996
P 6.68366416842084 3.8569700904137356 10.419650469839327 0.6956834369537825 0.6118132805016883 -0.16700497740006076
P 6.381900707011537 7.585604718682328 10.054225793807069 -1.198152585101988 0.23126841536482107 0.4892480214722413
P 2.4208971670884005 8.415779791127035 5.8200949334540555 -0.051020456911925034 -0.05273358294828982 -0.05448193309796424
P 6.616658508304331 3.9111422043157305 1.4528517297582093 1.28250173807303 0.35532517133812996 0.9688479783317572
Ni 5.174074513596544 2.986408413821605 0.21882498510023318 0.553596305841324 -1.067887129214806 -0.37548236301229526
Ni 1.413773626438954 0.9880214043315516 7.176678003105991 0.8558747338661196 0.5704228904803597 -1.4614299492732379
Ni 6.9031546299203 0.5591483583546296 9.164554796266552 -0.5457909508642923 0.5600230353032742 -0.6992464717146925
Ni 2.8884639386533104 1.7410155837268972 9.247219358538153 -0.2173273798036967 -0.5654922859479616 -0.3586874029421435
Ni 6.20009363243727 2.00708041238414 2.4640812867332516 0.06540757887153252 0.19537658656421836 0.23629980714114143
Ni 3.92044630080155 6.7029549012891225 10.372475287956737 0.5210255709941543 0.8764651564229615 -0.4305016566709683
Ni 8.188916102586205 7.184648452556924 0.5142138831064135 0.012269818506288546 -0.6073382754494702 -0.7290036483724671
Ni 7.482972272118669 3.8488514579589275 8.2523276512996 0.552682278667487 0.022482497373232248 -0.27911998763046125
Ni 3.0429514557856225 8.386673056850448 12.268763309697087 -0.12746218211043212 -0.625203328655349 0.6086647075703776
Ni -0.0728638282030921 4.940933254164221 10.248800854842619 0.540463882224424 -1.5526670876133648 -0.12241999170083434
Ni 8.58543585938343 2.2186408379791804 5.790165558986253 0.5762924618872591 0.6746592692936316 -0.42300791939708443
Ni 3.694732153139278 2.6326372084457152 11.434560353783375 -0.5720732815995889 0.4129356227627469 -0.6043758503870366
Ni 1.0192027006624078 3.3195687104764935 12.57118685903275 -0.33972526001734393 0.06087420977755323 0.046209922897159125
Ni 3.3551326314068475 8.509754757949063 7.970290490982096 -1.0717715518708768 -0.7575806886792114 0.5278775609189812
Ni 5.781157828508186 7.951805334807615 3.3998497715827116 -0.9699617802212261 -0.09307084911475584 0.8046300767585303
Ni 3.2007798260962415 8.318688490829544 3.441280841387763 -0.16531242018898626 -0.23441364586202212 1.5537963161218014
Ni 3.3311629079313136 4.267697454006875 9.365018560068272 -0.1950135467978448 0.2995507446809873 -0.07200760068655342
Ni 7.159735746329448 6.002264831868116 11.42054852816834 0.5112232401917518 0.18703721346058758 -0.4065065793079515
Ni 0.6506491180513255 8.979225456594081 0.2344901738070052 0.5493043633341895 0.02183123694247853 0.686324878557018
Ni 4.578441703529903 0.21590802512089502 1.5222013755724004 -0.3541818017623061 0.23714929962563028 -0.444131331639261
Ni 5.998906017113583 5.630918224153666 0.2843649805965819 -0.38734080501277807 -0.2303147932023001 0.837498545351777
Ni 7.807511012184381 8.715387863389044 11.312292312087866 0.37614133675253286 -0.5246868218958254 0.24767128220287668
Ni 0.2890664231741173 4.725825417264258 5.777205383659336 -1.2648372309137315 -0.12145711356693277 -0.43459845244816114
Ni 7.811615232352354 8.908753212265676 2.3748975703698965 0.6935532779846573 0.15373037177834167 0.20545608228740744
P 8.496579941786226 1.6333808381838928 3.6023773204929666 -0.7665921481492023 0.3460974820922749 -0.29552722534389103
P 1.7306786966079986 3.221076407233262 1.5724776235906608 -1.2855099287717346 -0.083735687756759 0.43381657997681417
P 4.864767190171712 1.0877620371225911 8.170530633159785 0.1291161727740873 -0.6282475147983115 -0.21695662672783925
P 8.407849755222614 1.4880357633513532 12.372944942210363 -0.029728894523000416 1.4959102424382946 0.009146699496274571
P 6.281154225951759 7.652430763036563 1.2616678143144016 -0.3905767954515725 0.6142583996080713 0.060159700209031886
P 1.8321526215049873 3.0153445131240297 6.048621863953547 -0.6281125318823441 -0.01093310197273601 0.5700883899590763
P 6.920487550979791 3.967613399974838 5.884502451569263 1.365084028951636 0.30910779224180307 0.07119153254316125
P 2.3150136752275725 8.583226585507454 10.05287238903833 0.8356710052247349 -0.8443181393767717 -0.3031248351854909
