# total energy = -381164.7796311988 ev
CRYSTAL
PRIMVEC
9.29952281835974 0.00000000000000 0.00000000000000
0.00000000000000 9.29952281835974 0.00000000000000
0.00000000000000 0.00000000000000 13.61079165485021
PRIMCOORD
 96 1
Ni 3.7640468929044797 1.4118628296178968 11.869807497295332 -1.8081871764366988 1.111249555360841 0.3463517641949261
Ni 4.655062057434943 3.3338509746973553 5.843793070324135 -0.6852388445816908 -0.5215860714833146 -0.93571057234784
Ni 8.19280506643172 4.585901507419673 7.267863383336551 1.4411969100558149 -0.13916198704586358 -2.55357517970446
Ni 1.2163031676209743 6.091856907301723 3.0880571512008377 0.8693357444670319 -0.12354356378231626 0.0734060236959768
Ni 7.792125833144383 7.620642635311712 3.92714843096456 0.375997612085817 -0.8198049847267559 -0.5674897759939646
Ni 8.55377533796496 5.427452510926711 4.6369921549561655 0.6129167979785121 0.3476851382943689 0.6534983189453003
Ni 6.038133564900456 3.6458778584760765 7.657322742535758 0.056989272900850235 1.0489537826454127 0.7739976965846541
Ni 4.4854852617473755 2.697698528160503 0.4945272261055561 -0.27925677031864166 1.6357350598791376 0.36042084069348246
Ni 5.609723155043867 4.914825623869868 0.7091276607468598 1.171495387525776 -0.07133988519556746 0.44106889066385324
Ni 0.6556637750277813 3.9662929116932513 3.3704678451673193 -0.3333844054009807 -0.6962506223111622 -1.3774332945456083
Ni 1.338182711590334 0.8465606563634616 10.646646861665582 1.5619832228079678 0.7321560779585197 0.5175013598909797
Ni 0.5833125587881952 7.5479482666860065 13.322541728999704 -0.9562778549762303 0.15083119585367571 -1.360597196824876
Ni 6.0712212665213166 5.127282518538264 10.580253849593642 -0.10534606693768309 1.2550261583605806 -2.374745955975962
Ni 3.5787074063098405 1.669831588179627 8.955002313136916 -0.5418540777037313 0.22816020875314255 2.460898994924962
Ni 5.670616429415252 0.89596530044187 13.532597486917535 0.8369820107266747 0.7837185234168438 0.21653985090539482
Ni 7.98860614788455 4.756901130074075 1.7209891922792642 1.1258115123354162 2.162400602767889 -1.7677614643214845
Ni 1.3445807831797525 1.6446112827283146 8.332077507630279 0.8026624115091983 1.350289644251281 -1.1314815661369997
Ni 5.062436947036788 3.3757918218896195 9.894269910888331 -1.284508998311046 -3.307753784680658 -2.5300876381054813
Ni 2.5853323958713395 3.8903437101368827 4.6168075410247225 0.11225359269079378 -0.5347467772349886 0.692728982311149
Ni 2.2855808820025487 7.842826830681462 1.4034765200839758 1.1865399405637242 -0.3887292007198725 -0.42068029970517223
Ni 4.175327582023121 7.298990745580885 2.894933964140584 0.17086266058325414 -0.4621701914188428 -0.8307458000089757
Ni 8.758681020234217 0.6792985118657278 6.830208318004611 0.5486438469320551 -0.826405520762409 -1.301666483926939
Ni 1.3696150981778843 5.169846433748684 11.47357064598222 0.03548045229479695 0.06684379709742681 1.4953255735794182
Ni 9.124319652142297 6.206073644600035 10.161408928744141 0.8545999809187541 0.14559822958951055 0.48630976477952376
P 3.330670537947964 6.847898799958901 13.203910508295145 -1.0259753194723686 0.3525193264582187 -0.30511229792916483
Ni 2.4206564486250843 2.030169492172054 6.192461003331734 -0.10970665789922396 2.107303918904061 -0.23939387268543288
P 9.29510538577554 9.294584612506634 4.491479734053391 -0.3163698731208551 0.5269439933611183 0.1710225831998861
Ni 6.81065421170945 8.954956745475886 9.755847446060809 1.9144848086543738 -2.113709308209773 0.2685229288409053
P 4.71081269577588 5.346295576681281 8.745763983260813 0.7225846322200007 0.11047798884760973 0.016032627982830453
P 2.07547676656689 2.7050451510611433 12.442999385573696 -0.284923995906748 0.49610901025813275 -0.019344723075198942
P 3.544066684404922 3.37220220614323 2.899901769145042 0.9825403882171853 -1.0792974279342769 -1.7600792651858785
Ni 5.767870837383478 1.0461684005738634 11.132919831458976 1.9070028984550316 1.749282945901323 -0.2571182865483894
Ni 7.514832666497171 5.971335093640583 8.720380006210702 -2.049741032887928 2.0164910125855466 0.6176725674959426
Ni 9.36155047517437 3.3695053445721093 13.580956864649067 1.3554513909578785 0.35050178180755764 -0.5744152994692042
Ni 6.199480283034776 1.980947118737763 2.5759510374129015 -0.3686992786521908 0.20405225996134535 -0.6739907824716972
Ni 7.16624005962311 6.773409623460002 11.185211977323016 3.23068188209732 1.6322309033806213 -0.2669514705887273
Ni 1.9350632739380664 8.220759431544788 3.742559415848505 0.29609055404652873 0.6065144939965942 -0.44739637554377787
Ni 3.629241012439057 0.7881568642079017 1.6031065831487594 0.6399545188225946 -0.45003741271105074 0.19870128006207716
Ni 2.150719204401171 8.686656217239964 8.67550515961951 -1.8055332837536195 1.1290752706883525 0.046186525858391426
Ni 8.489004162644758 4.019997655049199 11.444347825978456 -1.0524900779334454 0.6598042065586701 0.46106384572854137
Ni 2.9569134227585443 7.549064209405091 6.711276722718168 0.7071438721848983 -1.7041595712001232 0.7105510980942343
Ni 1.6962329330086376 5.552642684962689 9.028051923528194 1.3570634726400048 -1.8880623527967872 0.8006659499044597
Ni 7.484888203535067 3.8039604441570734 3.5293325207039414 -1.1274289933341808 -2.506193347986387 1.5600633800774357
Ni 3.265778468833193 3.8681736481177347 7.73295762022625 -0.8608385056292981 -0.6009760806768681 1.1720124363715105
Ni 5.874843246530398 1.4088683833216862 8.468838147758634 0.6730191625870474 -0.14420186346261618 -0.07792910837731094
Ni 8.442673940757427 1.1696567619632368 11.425578599395719 -1.6004214721795083 1.9600283016121276 0.6463984746757255
Ni 1.812774550971709 5.463171977460078 6.0478869042652565 -1.082249311473749 -1.3478506957924852 1.6912719166041774
Ni 1.5055462208850516 5.530640014351404 0.5740995216898857 -0.6769035852431181 -0.4289224851093065 -0.4647734333696447
Ni 6.8987206912905465 8.601881768680169 12.34638943452574 0.8714342788672733 0.9019558444948982 0.5678990956172414
Ni 4.898393367331347 8.16205154499828 0.39423094427555905 -0.3330997842810263 -0.9360278464779427 1.7185348660851885
Ni 2.0170013680868553 2.9953576494310097 1.3599863724167158 0.3816440117383169 -0.020412502218080976 -0.3647096978768235
Ni 2.046220468281555 1.3557030122799627 3.4170705430685593 -0.497549342249085 0.8564506609742476 0.7765716279594175
Ni 8.933846829039869 0.5033134151138157 0.03905985507249386 0.06427449370835382 0.12565701058089326 0.5955587663160389
Ni 9.081486050774766 3.5468007440666796 9.21901111166569 0.3444990272569035 0.25382264651625314 0.1007857012605103
Ni 8.69414233298049 1.0734996976687778 9.051163097240439 -2.0875735303546694 -0.323623726469791 1.0672703215664134
Ni 0.5590966017840586 7.181268088240116 5.312264903462796 -0.12960931036042195 1.1092181267531092 -0.15483774590990754
P 8.212892035375244 8.18594201870935 8.11259017383165 -0.2939405975830615 0.3239021769421583 0.8044009914668597
Ni 7.260583716999056 2.9145726960919416 0.5798670856430214 -1.8275334421737945 -1.2752365718701844 -0.5433615154871932
P 4.505665225917489 9.095286542400778 9.838356530900862 -0.8793707601055307 0.9871287789188161 -2.1542386357823866
Ni 5.966108761906202 3.4542518945639276 11.888495818030936 0.5089570698653944 -1.8033969541369073 3.801197846512118
P 7.18655021711045 2.782603170037525 9.904164602997549 0.10188716185480517 -0.8345824001462464 0.8400148840157275
P 6.637794684523242 4.794666491592431 5.396079641284179 0.08128876887816322 -0.17307226664006323 1.6716569705867275
P 3.845324720944477 8.696364918896 4.686141062161451 0.03148932885753286 0.12067884064001151 0.12066675645515347
Ni 3.775001730596827 0.4059567123963408 7.247787573820219 1.539861451208264 -0.5426259228727494 -1.9984956044493905
Ni 3.5094538610679806 5.303917651924043 1.6742497913949363 0.028347697904757635 -0.3191816315380374 1.069828826322209
Ni 2.0828419885128486 3.2648485165672883 10.22132296337953 -1.2131593429234655 -2.3017420528144097 -0.13853720897767108
Ni 1.7955053373938745 9.232649791597437 5.9454526621759465 -1.3468459086770546 0.4657985322000494 -0.3690247803124096
Ni 0.5994277016040431 6.723229399191829 7.656070096833585 -1.7619728826641654 1.8678974478131378 -0.4402775051108095
Ni 7.634796508798769 7.042268123055465 6.353817020988712 -0.29499654965140165 -0.3382620452082561 0.18244419477326645
Ni 7.589080055406935 2.6372330318314336 6.129442788032759 -0.28582902421952067 0.09629372692742771 -0.7089097058360695
Ni 2.1997648869049407 7.724192820120106 11.12555646941755 -0.7327407468173961 -0.5040002400807514 0.7250935146847836
Ni 5.4207475550895445 8.118120599956981 8.136653618664178 0.3572730390931202 -0.7983054200920832 -1.3322227594472411
Ni 6.8616527939716185 9.246022505181134 5.158258298563256 -0.16190853671375985 2.0593135070677113 0.8721022514685753
Ni 5.701853526026962 8.958285974587822 2.9038763851295153 -0.3513049944351434 0.24557866133990605 0.4052680789151601
Ni 2.2165970229178007 0.024825075738303497 13.079467085928691 0.06482805221897868 0.5394603806605742 -0.21460818110032073
Ni 8.978810021096319 2.0844973035461574 2.1419711434358137 0.4383419786509935 0.7021860139589907 0.0810717677713507
Ni 7.165951774420679 7.1694111968498415 0.6414587541660998 0.5199498214314723 -0.2626854962235218 0.058780560473318116
Ni 5.334447984813666 7.490198230973378 5.757609744081494 0.05453746892624801 0.3700910167933949 -0.80930819896049
Ni 3.7638516029286397 4.752818639626757 12.773087802260804 -1.1663999752807395 -1.1856027734614356 0.5357016849490903
Ni 7.796254821204997 0.12383523358455549 2.248734313322906 -0.2290487820056829 0.6269771327263202 -0.24146412495090028
Ni 5.431423407102121 6.321331928436159 12.39278847288075 -0.530090766520216 -0.39374388032564445 1.6779867694594972
Ni 3.417165398199682 6.255602902282074 4.781879647936252 -0.4931769242130022 0.8035057333461001 -1.674217275114736
Ni 4.504893365536788 5.4614050681548605 6.579388102510885 1.0132193053582808 0.9990723244339375 0.6837625171464805
Ni 9.098959853851099 8.508728450204579 10.657848136708395 -0.15024035634721222 -1.962809978122323 -0.2197622144974344
Ni 4.5708734788026675 8.308426031651546 11.695998488845635 -1.0189397527818258 0.015722552941579374 0.7111779330449558
Ni 3.5241843049598978 7.133496440340635 9.250656457322133 1.2870225087615188 -1.40558481727916 0.5230462009686089
Ni 5.02100757359077 4.6946408258718115 3.9500419958465813 0.4103089837731772 0.47486886993243377 -1.4176628314896165
Ni 3.489813269212091 4.808029905653469 10.498139994466598 1.0183003194256142 2.8506967461186643 0.24601472043606012
P 5.755976747902567 1.6202000357483382 6.248537124965736 -0.3535680794377072 -1.8447904294820294 0.22852787650520642
Ni 0.10015120927651602 2.2882033473923977 4.7787075807572545 0.5260798455886101 -1.2678413078473778 0.18107636789146236
P 1.4101610169712926 0.7365063854073354 1.4492497005640295 -0.6584104115349371 -0.7591842857209053 -0.6158044039389524
Ni 9.362201441760503 7.820917155296767 2.0714807616803013 -0.13767151854326612 -0.0673950416152065 -0.3866311805402632
P 6.639022221514235 6.347621678993262 2.5842945691425907 -1.2569547428418613 -0.35018887855282915 -0.07056109804801397
P 1.0123274376176221 3.8729164046738447 7.449036683779941 0.7436743630107645 -0.288816903203251 -0.28879170639227036
P 8.626069827116327 5.736726735998357 13.316240372445938 0.6515555933966327 -0.9928106597949418 -0.5796161269438534
Ni 4.406978691459772 1.5525460084038323 4.216473320028037 -0.041271605055277306 -0.6094332103052859 -0.1631336673701126
