# total energy = -340863.44536303304 ev
CRYSTAL
PRIMVEC
9.30315745984685 0.00000000000000 0.00000000000000
0.00000000000000 9.30315745984685 0.00000000000000
0.00000000000000 0.00000000000000 13.61611132005589
PRIMCOORD
 96 1
Ni 5.844104042685373 -0.2184707009661198 12.519782919521017 1.6530457832434433 2.638308712598114 1.0738698291608022
Ni 0.8816816408615153 3.1092362033764043 0.30815034906385247 -1.5364657952631537 1.4101629235681457 1.421992826323538
Ni 8.90194030044729 1.795369865051914 9.670230405178094 -0.5264505986644675 -0.4297886897643437 -0.0854362153876335
Ni 8.962150336287465 0.7202960451053604 1.225417497974232 0.5721403873920985 0.5993411161766066 -0.23774528133841633
Ni 6.469406476084857 1.3372637796313565 0.8657341681425372 0.7905753984376772 0.07983095338571412 -0.07122007178825154
Ni 4.135690791508321 5.942131414077202 5.126125414132514 1.8496073912546982 -0.3306132704137467 -2.059373927992002
Ni 1.1690533874765068 4.913071941823646 4.604723435503398 0.3550994284805691 0.10277496377639718 1.1481680256537452
Ni 4.701146012213145 8.484786714681931 3.0381489156968717 1.324070819764068 0.9450303070868693 2.1877979597950707
Ni 8.229098731827893 5.645258352628532 5.219273279375058 -1.1133982262727276 0.12807667576597942 0.14343156095549492
Ni 1.8604268459898525 6.4201834693434545 13.312240767006086 1.0374347262622199 -1.9366340910579032 0.41810945365420255
Ni 3.3950664167808404 0.9354511007109365 10.952309714692525 1.5357050058377295 -0.09647781791377578 0.46561212722085615
Ni 7.077488764808791 3.2837448332110744 12.637399019507573 -1.155105633313843 -1.0431826844895904 -0.7913963516770758
Ni 7.324971362679666 3.5563087439103054 1.2185573495767437 3.108483519488989 -0.6531964714341654 1.1377990237145954
Ni 1.5929703688005503 8.479735100117468 12.374363402798995 2.049671098881941 2.776789357306237 -1.1960903032563206
Ni 8.855759426233659 1.6918815401622207 12.208110394998407 2.263391992281302 0.8788732516438219 -0.5855011249697207
Ni 5.051875052876705 3.6150581840108456 8.195905065592147 0.8109359643719002 1.2216856352269216 -0.8969859020841325
Ni 5.533657674331447 7.5797011203032465 1.120832330806177 1.3502071118398036 -0.9077374841736819 -0.7392160701290946
Ni 0.1982995947070553 2.372863371661742 4.927289957549007 1.1692685550777864 -0.20270088813977347 0.19142068724026387
Ni 6.376709813984812 7.139671070055348 4.201905085248874 1.1819618342747384 -1.6883830250921568 -1.0819181533865754
Ni -0.018240701061778317 8.766765420849373 9.057423973036418 -0.49758045259733663 -0.6133608274944662 0.05400525057186183
Ni 5.02330505595687 5.110959406650028 12.568624496801753 0.034960575235584955 0.48215229096772444 -0.6169966244748406
Ni 5.038004044928977 8.09397036801786 8.974283514399756 0.44979495768294153 -0.10179023126562468 0.7923450887435902
Ni 1.5973521560194506 0.42276338978446065 7.262710910909459 1.3541761237898806 0.2592810985276632 1.2285317116144778
Ni 3.5996428519052883 2.474305001884433 1.9758743799451433 0.6382678751487911 -0.6636917145385344 0.5460963979198531
P 9.747383351598016 5.9128822866542246 6.719469769867671 0.6632299444107674 3.0930784977878276 -0.049450541321643865
P 3.4879119294021224 5.168992503617118 8.682967228971997 -0.807212749884042 -1.4771090505713915 1.4826348654856272
P 7.943649947884125 9.469963192643444 13.091959671575427 -1.2080559602586292 -1.8631355076481204 -0.2693215134828007
P 1.2053357020279096 6.79496117234429 11.053995087643742 1.9503588968431635 2.281694390134916 -0.14862287534844726
P 7.422701033029022 7.360602456200659 9.206642899313001 -0.8509338449210764 0.2911440086745309 0.017208136348170363
P 7.491451367525141 8.857592148276384 5.1349215496218354 -0.1586452925814558 -0.3665156407373107 -0.20066457443603505
P 2.5070614197140455 2.749120276717366 5.094971930353467 -0.7748610730262139 0.6683680369682812 -1.05141921346677
P 4.58903366024931 6.099317564502972 2.8443650736778294 1.365081457848475 0.2893316380561404 -0.33626481227256927
Ni 0.12319706421716702 3.9474507010895814 6.726495514470036 -0.8314248283538713 -1.3198596098961979 -0.0458913632154758
Ni 7.584622490661629 5.069885965946324 8.230490484201454 0.13799547754158814 0.5964044021457857 -0.6047440323597327
Ni 7.100597808230761 3.295624965437265 9.812437541588682 -0.9357316553937628 0.34986234845134584 0.8885547405976438
Ni 5.199748742567614 8.045640464403876 5.617912651245866 -1.9970563008997027 2.3460527018063275 2.5357463790531556
Ni 4.172317322890083 1.9155108420049438 6.755946520412439 -3.1443146702549845 -0.7202703822645273 -0.7327070653659832
Ni 2.5292680568510195 9.183584092941949 2.8797803339430295 -0.27499516682881026 1.6015216472222225 -0.0368297672338398
Ni 6.920711953316421 5.67402371585749 0.3009348200469119 1.3982219491561856 0.5065196640684954 -0.6027609404914328
Ni 3.152681949262315 7.370184708505261 1.6992087070700888 0.10737878109699574 -1.6574994481394227 -2.0590458552286215
Ni 3.952893048272292 7.101072269267203 11.081295203554278 -1.4556310832032735 -0.038471930822953096 0.2886199567010964
Ni 6.183790235304699 7.3312230845716 11.374531660705989 1.544282205983779 -1.9413129845908113 -0.9228252317447396
Ni 0.39956410573399065 0.6116500496548213 3.415451495664182 -1.1575085863283807 0.3239039767143712 -0.6549782459249365
Ni 7.7720904190014535 6.185734595238351 2.7010276036216028 1.2969058293135018 -0.46055168197881324 -0.9874643078813639
Ni 7.640404223495016 0.20746041397340564 10.827790671783626 -1.3131765414490675 -0.9535339736825063 0.6357245399016471
Ni 1.0257847607863522 5.236607852888809 2.2754016322506123 -0.3224847277693414 1.8930569777979012 -1.0543752107713003
Ni 3.1958113877905983 4.302133583723487 6.413406119048404 -1.4425655082685673 0.17134962752200167 2.053879994756966
Ni 1.638230230414031 -0.15059486328226476 5.071238645058061 -0.16677074990206764 -0.323819644530681 0.15557848073067398
Ni 3.188499105934854 4.5308889253912925 3.3785114478720657 0.14822229747591892 -0.3688969964852937 -0.15289013526523343
Ni 4.69212194936318 2.833899951719144 13.339023627355326 0.09654620925786597 -0.9848199282799814 -0.4405474709427445
Ni 5.012318026858099 1.2232442803641788 8.930698221150188 -0.8489247849108476 0.6742910873209355 1.2791096816723455
Ni 8.139816328558709 1.6514407141737726 7.203222800097282 1.7418113201146261 0.2507283238616456 -1.3316612305168163
Ni 5.38950524767145 4.237253362779517 1.6982690881547833 -2.6102543775640594 1.332646734358537 -0.14142095828336934
Ni 1.4454129864672687 6.1716589178239225 8.705474358098718 -0.015329174157902631 0.6110357789057155 -0.440950362808118
Ni 0.4558714669704945 7.764331585581999 2.2754835000372924 0.4204820676514372 0.34914089690428907 -0.3187242322856446
Ni 4.338053075129376 0.3259547320352562 0.9987851368655621 -1.1987711925225935 0.3700151692501369 -0.5254396409014499
P 5.572823967731808 1.4083957224672603 2.8663689019796186 -0.7658987216266036 -0.004438238277011711 -0.8684651689366205
P 0.7337781810663585 2.3267662258663058 7.895792644675066 -1.21505578861523 -0.7815204873242605 -0.8818467324498491
P 3.6572666099389775 9.604114724907863 5.359968652679336 0.5390544034714071 -0.4821957426111501 -0.37459096154627747
P 7.119287851803522 5.008578157512031 11.467802327628553 -1.1274629318959097 -0.10639096326242967 -0.30755587437365095
P 3.0811034548627014 4.014749743003645 12.402833855932753 0.05145188802238881 0.06765472303449639 0.8328541046012301
P 6.135488241163447 2.0156221206940836 7.192520447620376 0.9827540468898882 0.10302358945209354 0.30307135623973613
P 3.9093821802833406 8.73256701359528 12.610480333057705 -3.416383407465619 -1.1923298077726239 0.33532841650122897
P 1.2875942213262437 0.8865723107998928 10.539442093623022 -0.9845839010097752 -1.1505902619419925 0.9993536031197822
Ni 7.749204651361337 1.995424965593803 3.1953471602274917 -0.5640447548681575 0.38569401343797444 -0.297192785971772
Ni 9.249571389637616 3.9277094007105875 11.829500721391486 -0.8114198459868541 2.3413979766431354 -0.32370780154316514
Ni 0.5045474480463534 3.9071866350951017 9.420905782106917 -1.0551730240822472 1.5671336566606557 -1.0212979686013572
Ni 7.151709355960352 7.301518102427337 7.054738823269303 -1.171133119090351 -1.014507685152401 -0.6036114614171862
Ni 2.3265708595571826 7.026219063400385 5.947122558117414 -1.2362231667214645 -0.012949618182132534 0.7097399150468486
Ni 5.733749987503645 5.577429030732564 9.71903104856549 -0.42021184470918593 0.0012482705848043019 0.013044234778467858
Ni 4.68753549267758 3.3473505215669572 4.901854194416958 0.6303594189349918 0.17301595948083107 -1.0318374346801005
Ni 9.137468340831358 7.233846934210181 12.801487182539928 -2.300571943765709 0.7852429304811702 3.9331568880516397
Ni 7.402913216862141 8.891027696609138 2.740718595109322 -0.6331236119436902 0.07075521633669105 0.6549558773274333
Ni 8.521710947106167 6.554400123710913 10.955618847842766 -2.7082877128904133 -1.146164622070471 -4.255768114096516
Ni 4.620245753921094 6.303884696469842 7.393507724551508 1.21909499168161 0.24458055909269494 -0.38142675352118827
Ni 6.440948117055949 4.574027667077153 3.697196692576433 -1.421710519196429 1.1394296173394827 -0.3299131590229286
Ni 2.1007274062110666 1.7264706800345582 12.956261024205906 2.8413816393653257 -2.96525276169039 -1.2317301639471172
Ni 1.2912503622541158 3.0676510890059507 2.757262400229004 -0.19976674521211402 -2.1773549100848757 0.74227799688387
Ni 3.092769614464614 4.613575389938182 0.9691620225079783 -0.25360795940228587 0.08941602597098794 -0.9614272603876539
Ni 1.821809438886552 2.8294158297668934 11.043102020436502 0.31842726987051606 0.8052525408338778 -0.642190607241965
Ni 7.02901001067357 0.18406204235078177 8.523739965773771 0.12555056691001604 -1.0566910033886705 -0.002642579829169642
Ni 2.2473730791017745 8.600145868640237 9.523925227854715 1.0810288088030866 -1.3551469723435823 0.11225282135984538
Ni 2.4961767253486253 2.6808630095728425 8.68833142963106 3.4143938878394167 0.4849031142399843 0.6285897286290788
Ni 2.2255664777406237 5.135696502648023 10.689682506601592 2.192653231004843 -1.414971914921015 -0.29678963699608235
Ni 5.844494775303619 1.2233559182551064 5.026973290989592 0.44581257599642576 -1.0326961831359698 0.14315156782123087
Ni 7.277134526417278 3.260263663486013 5.209102137195814 0.38864821097029195 -0.8954447828492578 2.63280603761233
Ni 4.3498215694646385 3.490163293535825 10.358374737696368 -0.4357191963161658 -0.3338914269443862 1.5746443632154041
Ni 9.043562268246266 8.507877151788747 6.672261827057508 0.14491663014145365 -0.22047672406595578 -0.8750515639048866
P 8.524120464918683 4.130499629580197 3.2861664451284414 0.9076390109226046 -0.41433970219912514 0.6999409266785559
P 8.016093635938425 7.592576690390205 1.1005812173919478 -1.517621151752825 -0.06134395032512016 -1.0175611272667442
P 2.0439595386744873 6.950035506000017 3.4116669711617433 -0.43306067564739614 -0.7032031423695954 2.587263573095841
P 3.3543744055378055 8.138355732819075 7.678792772921915 -0.6054518570600347 0.3857058405125164 -0.5140799929142565
P 6.056764921744479 5.037724950201658 6.117419648516848 0.4652907393256955 0.12592723352314442 -0.23318928653661777
P 5.632680483584045 1.5517201681028787 11.10235941294076 0.48502292764730026 0.7135289497756357 -0.46894067737345696
P 1.8265633524085436 1.3121080415423838 1.3274861610176323 -0.2066313335424312 -0.4943596316671937 2.1989305793731226
P 9.302990120446374 4.992613939109414 0.3758550086482855 -0.806003045846657 1.1532534105964527 -0.8559022446699452
