# total energy = -340859.2646242476 ev
CRYSTAL
PRIMVEC
9.33519349664119 0.00000000000000 0.00000000000000

0.00000000000000 9.33519349664119 0.00000000000000

0.00000000000000 0.00000000000000 13.66299929815579

PRIMCOORD
 96 1
Ni 6.577848015826125 5.08151919511515 12.023070081296868 1.601468939607416 1.2923166672809228 -1.5920350478880259
Ni 8.90008007023337 4.104348486977086 3.805227418333154 -0.6342620964235076 0.4312794153772572 -0.3428121264727838
Ni 0.1776431299767135 1.4304970365981928 1.0306072224061278 0.8595874068310163 -0.19451732388771661 -3.2307836977825075
Ni 0.7525967601990425 2.9855348888300544 6.329001631433383 -0.16378364224928565 0.9933346506192119 0.04656242114057142
Ni 4.580060609297461 0.9009161805536527 6.864509401790629 0.381022318993918 0.9870639871191517 0.782625290352665
Ni 3.5934520205952993 8.206717912945678 8.027859340783557 -1.0965587861178858 1.1465472022208707 0.5233369927361502
Ni 3.0485287741382017 8.583383632906918 10.785954377289647 0.719654088836767 -3.343596248300564 -1.4188861623737565
Ni 7.905779282139698 6.929962177049898 7.296820342786961 -1.8055281415472968 -0.6944693620410234 -0.006464781788737254
Ni 1.2878086049243582 7.329937875021576 11.722047433749962 0.10114231326898065 -1.4563299090425113 -1.917474487410317
Ni 6.154590345424316 1.4813084944719697 3.5216513137993473 0.7240876991280885 -1.4249881615064361 0.31545481750575355
Ni 2.5909362622776833 5.73649503699278 3.573502712221928 0.3445195960821938 -2.1111299775183707 -0.2585725024964128
Ni 6.205980585291143 3.153353661234406 8.119319031437012 0.6133070914383953 -0.1972486067759506 -3.1047603050011303
Ni 5.618451515990776 0.32447825457495216 0.4316173361240153 3.58980585835625 0.037694686337296376 -0.5893978889209656
Ni 1.6989678646327235 1.5465521613982656 3.7516956850920393 0.15086719129793374 0.6034476821458123 0.9235369130997837
Ni 7.947750311829299 3.6335560115976415 1.6949359945875861 -0.782845119672955 1.2168221364870333 -1.9808377821583112
Ni 8.756383437668415 1.9762884560448664 2.928718101018706 -1.1409391120054737 -0.8406543173719394 2.2992730224486273
Ni 0.49849746245969423 5.117814427195482 9.843917603168439 -2.772124604840716 -0.8302117818823768 0.1587825894902685
Ni 6.990388884163062 7.963246732933556 9.719270366329598 -0.20837968369210563 -1.853757151757014 0.09492512871467522
Ni 6.71392713054706 5.893102242080137 1.9125598910132822 -0.9200615529566736 1.0510304626687834 -0.7582394053091329
Ni 9.258700861282243 1.1625769849764034 5.146783399467005 -0.06933905271545478 0.40095633891368365 2.3281843061663388
Ni 4.257118927562124 0.620926657338072 2.0899883115409605 -1.1173623531267982 2.09201382551421 0.7540721613053206
Ni 2.6246269753892877 3.844811439061094 13.635577251361276 -0.22371528560791148 0.13470035173008413 1.12910663814692
Ni 6.941220420334075 1.0836292540856205 6.451476568759598 0.5113461389228613 0.13959753192138538 -0.6584615764878466
Ni 0.6647572575601844 5.389347198677119 5.294630459033739 0.19347088490107325 1.4703470492572097 1.8164869545516455
P 8.754880471525171 5.811652679348426 1.4521173445966618 0.20533395488724637 0.05652107501518008 2.087818299375624
P 2.4060154154980316 2.0039112934228758 1.8232314250213342 0.18633915895229844 -0.2443185636805599 -1.9814995841120262
P 1.6032821319106563 7.385136873810414 2.88058397662246 1.2703303928178187 0.10579163911553394 -2.0884003971313385
P 2.8362931513639373 6.960945684064975 5.585406798264963 -0.7507541526756812 1.503524821560759 -0.30165982060419017
P 4.138421943019579 6.586725784784045 13.266676545300351 0.19357989967511177 0.37857154346058025 0.504843304807337
P 8.78303541492905 7.722072010506764 5.469872577258637 -0.7815659958502152 -0.2476085472857413 0.7534252717499411
P 4.963335646211601 8.87450164021791 9.86330586641629 0.5283272468618901 -0.8800207349847038 0.27519519865475833
P 8.091568301908927 3.266524211262662 9.167175824274734 1.2868062789856547 0.521739052121411 0.8069931776740682
Ni 6.285889841105865 3.1597669391251437 10.359532076312933 -1.4365383282378807 -0.5290304435765018 1.5567597696254996
Ni 5.500230626313481 2.738927083823336 1.8409384199313068 0.06442824567739872 2.025015762227106 -0.8644406211582597
Ni 4.242985444699567 4.349733381643649 11.73640682829368 0.018772138401180572 -0.6160383743266294 2.183850802221865
Ni 4.8796829778289235 6.438772304012138 8.138201327200616 1.6788666009612891 -2.2853345579906645 0.13086143759996816
Ni 7.936594755672922 9.248478824469496 4.00965321827861 -1.2107939280150826 -0.45507703201748717 -1.2895347336604113
Ni 3.619319841607285 2.9071472695454488 3.7007600691455593 0.09809529891254075 1.4535474612013677 -1.200153931802733
Ni 3.395321875103283 5.161839199441069 6.39360023649323 1.3919191468666092 1.1442031274687263 0.9253197160318193
Ni 3.1283726835988697 3.089024843264868 6.317292498306232 0.04242423060248178 -2.943624384787337 -0.6451772006741147
Ni 3.911651424064997 2.1043206340237113 0.192978985753866 1.1069558130814936 -1.0274835285867787 -0.7718886206614514
Ni 9.039491849011064 6.738590711605763 3.463365166541126 0.5178487159280694 -0.7954633226575978 -0.926542789805643
Ni 5.1749178054453235 7.148620412908335 11.392973463446321 -1.1424141538891035 -0.3400314784038531 -1.8577426187673232
Ni 6.443869319628358 9.323431092569542 11.697221420325468 -0.6650325448371449 0.7374368667414848 0.16635525963120382
Ni 8.365826949873963 1.8820310079185527 11.217896578145247 -2.1794369894248855 0.38980237917939314 0.5579913495852261
Ni 1.3807777963564627 8.500347087291034 5.059449864312394 -0.40763246538227865 0.1473128982877721 0.5401913452893278
Ni 5.215077807608283 8.96790958574152 5.106832505637019 0.8250551773821017 -0.7671778454493433 -1.1999063345683012
Ni 3.1377638881957863 8.740065519541764 3.557585273893694 0.5693363422844001 -0.7066731031960668 1.2233925906156993
Ni 8.814205625812853 8.910628838816388 11.973678506344754 -0.9086142303516802 -0.07241357787572045 -0.42153030641029343
Ni 6.710249064333158 0.784626742398329 8.896471084450896 -0.5822427659334231 0.840731707577094 -0.500766563634802
Ni 1.2723681949807193 3.827382632915523 2.106711377062747 -0.35282297374156657 0.19193105121777912 -0.5578049446060329
Ni 2.499068623671062 4.470530784709362 10.155502088569175 1.5923926883377608 0.013544057233021836 0.10607985977991409
Ni 7.132899947161607 5.276512715612569 9.502930059001393 -0.16659488644583567 0.8253631955408237 -0.25134101774498
Ni 2.224324545647338 0.6784006427673358 6.96472737092602 -0.36171924778993186 -1.4451828912867564 -3.736593737378487
Ni 1.0124297337469657 2.091120670504784 10.120866653881817 0.06662988131440784 1.9736860016048785 -0.6192298846807336
Ni 4.4162092941035365 1.447664457327547 9.183161409515053 -1.369682704065912 0.41355474440398454 1.10417336524035
P 7.564381922980797 1.0632225212338702 13.50680385902359 0.6665860053671938 0.08153019546500798 -0.6683083873749393
P 1.6816044048412069 3.8878746863827423 4.287517117948745 0.49859526701509616 -1.500885841276015 0.9273873971941253
P 2.015262888641416 2.270561758737329 8.111162872931718 0.05966939083617467 2.700151971157156 1.6646471149277977
P 1.7971274236154104 5.0285606427510245 12.212890037591892 -1.0852150789702923 -0.3469379757156993 -2.0665948712204734
P 5.825683475083184 8.712311989455646 2.594876647427146 1.6759237162828815 -1.6096460761015698 0.7052672239874758
P 3.4791519121612513 1.1534471657957026 4.947535831320664 0.8630828215787846 -0.6887851671720525 1.4580579474772115
P 4.461400965528662 2.1201717924785473 11.674281115975106 2.9349708228773967 1.529735932738488 -0.09147676515475858
P 2.0580180745796666 6.679844339311131 9.155438685567274 0.7783685719588401 0.1681624880432717 1.5846935199212902
Ni 5.455375021852063 2.8543287450828676 5.164681765842422 0.16406672070734324 1.1160968561508133 2.2137365340377038
Ni 6.25585852382129 7.178427685550439 13.322940689660271 0.9002018379182689 0.3409689026164579 1.6415339259491017
Ni 5.413095930779064 4.7944433265620745 0.21154108438260344 -1.4144875190854282 0.29607924119261914 2.129969221712061
Ni 0.627712409446918 2.8578854537820977 12.504458934745859 1.0773991824702993 0.3756320012162821 0.5159013623937114
Ni 4.5464072369596025 6.619361621037348 4.583553838681325 2.696839104733839 -0.4491429259212394 -0.5917743595729421
Ni 1.4763141659835497 6.685940220625034 7.140379304142771 -0.8464989490781744 0.37797427619621354 0.4147119979368793
Ni 0.5071511867751437 7.9028947073678815 0.021838751524878536 -0.9548781464152264 0.5433288624770449 3.0993810429670883
Ni 2.3860847775115324 8.91365344148975 1.0730944882927567 -3.196396735662205 -0.1943383751076911 3.061443901601683
Ni 7.935297163785276 8.146580596829038 1.4480864080708677 -0.9785639200679405 0.32180749919665863 0.6772020903201433
Ni 6.5683914648751545 4.934601920814672 3.9089843593002462 -0.36000740730514774 -1.6391533415320674 1.3896722598139615
Ni 4.030544447669704 3.674705544264848 8.444840027118799 -1.02882564443697 0.6000833936592698 -0.0074461718654000785
Ni 7.0364113878040175 7.198675720113772 4.236595504792421 -2.854544659109845 -0.011044944960251945 0.5693386562772453
Ni 3.7082002183142904 9.056789962448526 13.272879781338773 2.165684415725483 -1.6166693014969384 -4.221409948331621
Ni 2.0675213014978193 6.234126193501585 0.3049677002930866 1.2613870675816017 0.06001957508674179 0.7901933325079101
Ni 4.142921506255876 6.979158646459195 2.1003989192611217 0.544762766710094 0.2579842340931105 -0.972818532943731
Ni 0.6818537308194229 9.16968979186713 2.667605272450666 -1.8105489918006559 0.04790633676297556 0.38622777445425743
Ni 0.021735130877735615 8.610539710613113 7.456281316507795 0.5944369940067697 1.9098542518608979 -0.9875776935307766
Ni 1.7401080621064948 0.2439295380098438 9.069772415960388 -0.6296091710325286 -1.5314081782345883 1.1557671781572418
Ni 2.7198272780526676 1.1373066163443413 11.546613944059622 -0.48292439324705866 3.581990218966573 -0.9418999889880036
Ni 8.92217647309709 1.5947404299164423 8.081459220936758 0.312528644997894 0.01920511217354112 -0.37752587580488534
Ni 9.128932337324247 5.585825014930909 13.184917054146554 -0.16420736005026557 -0.41491485797630473 -3.0083143687665546
Ni 8.465041385714951 4.677323989710263 7.485998037773567 0.04283843532176493 -0.5959955967431413 -0.3583721856945699
Ni -0.002639059184441806 7.2907113922022475 9.36392249409949 0.08572340761074913 1.2512875172537548 0.37232864787466197
Ni 6.37681462517542 2.9290289629601345 12.787255550627734 -0.20954002254879397 -2.0210876308172936 0.7978657614515033
P 8.174427478849518 6.451617530180487 11.072535480590599 -0.03596022014469291 -0.2453889139266032 0.742493712439102
P 1.3919986988668944 0.37364951896197135 12.762703058370922 -1.9630776299614126 -0.8339499087685701 2.2022858689986005
P 4.6936419078369145 4.836955797470981 2.7056835264773307 0.3518377270101618 -0.07150983511452846 -0.41586899435945796
P 6.164308281791503 5.010067624553715 6.083463639594464 -0.4930414270764025 0.06323036871455562 0.7644938708592769
P 5.881013166580129 8.231437505164998 7.288417735174948 0.37063120556758106 1.0889310943692987 -0.6869676543473394
P 8.503987812731191 0.19412348046915626 9.936169851744637 1.1774788588027205 -0.551588788492992 -1.6380531664893532
P 4.8641958919181025 5.115994064475403 9.973702930474621 0.9265371333786881 0.526853490529841 -1.6897778485571544
P 7.564895358619793 2.7548529238256623 4.749258189772355 0.17580174975608434 -1.3534143059231918 0.4369271005813378
