# total energy = -340876.64959058946 ev
CRYSTAL
PRIMVEC
9.21323359447358 0.00000000000000 0.00000000000000

0.00000000000000 9.21323359447358 0.00000000000000

0.00000000000000 0.00000000000000 13.48449865343460

PRIMCOORD
 96 1
Ni 0.9646071142732017 4.345034594243979 8.249438928828678 3.5794736231923068 -0.7388931395720371 1.962748785867084
Ni 7.885348527261587 7.995437453587309 11.202517025138043 -1.1344144235130786 -0.8341566254627376 -0.904040752048385
Ni 4.457058299591243 3.0042143058487123 5.106336971580267 1.3263079366247028 0.2592659290190116 0.9729249766146083
Ni 3.7910981471431557 0.45201413089269377 0.2933447459827466 0.3338636590302444 0.516940088070871 0.9945587528343
Ni 6.91775632535515 1.4541983390576096 4.0011607908053115 -0.258395096378284 0.007559557514812788 0.9755881252690681
Ni 4.575918224147954 2.1912293742303284 7.969689230103964 -0.5973554532051455 1.0291634873923632 -0.2604540357898417
Ni 1.6715016628770496 0.29495337654065695 2.2950754135798763 1.7157346776322324 0.8858324565704745 1.012586042649656
Ni 2.2542571041654083 5.898901692611294 0.48480402869110756 -0.2542679615837879 0.6772555692658981 -1.1510836566386433
Ni 2.017569137196807 8.351722403787495 8.051782825311323 -1.02932572400184 -0.5007277399770667 -0.278131912685579
Ni 0.90161992256524 3.6755549866233728 4.507369003414732 -0.5512617441708764 0.9436948761048973 0.5527010477205642
Ni 8.773117274679276 0.04949072604769296 7.922695290317403 -0.12382150003405125 0.19672744416515794 0.14744479587994605
Ni 9.07266713338111 6.924712316599264 8.519033801660328 0.24864110231531372 -1.0360116206624481 0.23896501267813042
Ni 8.406089694292817 1.1444310044753483 1.979699983805175 0.49488207982956706 -0.33476534490890736 0.548503464699449
Ni 5.5852187338187695 6.175658011792679 3.695157062081621 0.946363681186312 -0.5920389260882384 1.6068446020970326
Ni 5.639797928693117 7.808123204601766 0.12635949657354448 0.2549467328183674 2.6769588208701443 -1.1057659065384504
Ni 1.2421649847635117 1.3834314930363631 0.2751311048032905 0.12955788829719622 1.3107915861566586 -0.6356728607281052
Ni 6.352229630591948 6.286907805531326 1.4883646939313488 1.7475700769752742 -1.7172565135933973 0.2707456475238369
Ni 2.7998187220729864 4.970189335804408 11.406361657554301 0.14678762191192138 1.3297300749323744 0.7171079253761456
Ni 5.943935977646035 3.8416143060722656 0.37956679109273683 0.4644065369485292 0.3225132670144316 -0.36171436269392543
Ni 2.4226197319732794 0.7384719848820955 11.621897883200734 0.42256954630808513 0.5683310409483373 1.1357711946512892
Ni 4.2535379729919285 2.3120240778085814 12.302245420982342 1.1125819010190194 0.6631921491942965 0.23000857481579096
Ni 7.4767600508457255 3.7726256141041503 6.291812931012607 -0.42361289997093504 -0.2629420923190181 0.7005338230675484
Ni 3.09876050736805 5.017121546926949 4.77231211468459 0.3770846745024087 -0.6194204034249849 0.4144302050304024
Ni 0.48746296786071197 4.917627839052526 12.597555349656968 0.34280672715614513 0.04401111547362743 -0.9497914759209385
P 6.576498158888938 3.9571943195257924 4.440580431591113 -0.3366831307569105 0.08985851282504526 -1.4777240584475713
P 4.032282172028482 1.1804547472097675 10.217811242124396 -0.05834810092158983 -0.29173819061510403 -0.9121757224506936
P 6.9065806731973876 1.6717688466466911 11.996902281096007 -0.46563423870804327 1.1079899107729627 -0.7341368558339744
P 2.419063423867017 6.513525708354474 9.270525006710713 -0.0031791690589300084 -1.0306102471412184 -0.3113320535866316
P 0.6886993338912637 2.337802704962266 2.8311510863418388 1.0251903616772282 1.0581246505114033 -0.782566926310904
P 2.8450372717764463 3.8752794610470915 6.789606697525008 -0.8840357696813678 -1.5069310190288308 -0.5039488180175257
P 5.373636827963031 6.901467328640456 5.758433971677336 0.570873604864533 -0.3659114314944085 0.9901251425429787
P 1.2276172891682053 7.261354653114083 2.238615797761259 1.3324359038993117 -1.6471227328907891 -0.6896169190447284
Ni 3.4343986014383545 3.1651787072075455 1.060059897962633 0.6581633285211375 0.10134363064650932 -0.06853918252197874
Ni 0.57626011171604 3.7246338811364805 10.430340268377346 1.4713544074758014 0.17417115613119682 -0.21317479108790385
Ni 1.429727991051825 6.908865555089494 11.290489584600856 -0.3380548142934565 0.23213076336511637 0.20124641508143404
Ni 3.71140367792251 7.444357108851619 4.555076968792576 -1.0562955677224648 0.5027964495806373 0.5734344236131736
Ni 8.962992802560004 7.768644499328879 5.942295100771099 0.08946667670326527 1.2835551190382086 0.691993132586389
Ni 8.867580557097689 5.625692468302734 2.553451332056616 0.2553532242281667 0.9012523906699705 -0.04444511768725249
Ni 5.661845196305256 0.27926692529267183 9.135330019272127 -1.6130952109924348 -2.217424524412252 -0.9716515092188234
Ni 2.7917387163496907 2.7060556453957014 3.483760342217945 0.0051054395473654 -0.5339769889484997 -0.8401496098213789
Ni 4.5238634552350465 5.855756120430913 13.154182060921078 -0.6135986545368852 -1.1222531055601963 1.294264792146229
Ni 4.597421910987375 5.0518001575797244 6.856894626600853 0.8944263688870726 -0.09891625215193932 -0.564439162093099
Ni 7.93130413563992 0.43983884290713504 13.309645240595328 0.5310922112015369 -3.1076939337081573 -0.6398226212304207
Ni 2.4202427177468135 6.058253778118842 7.078202021671541 -0.9539381510994605 0.3926249362298529 -0.3316417116782611
Ni 6.804101877689729 1.829785013306032 7.652911546200317 1.987453744812932 -0.23604166838374835 -0.2810246608523418
Ni 7.8636697889868845 4.366464575215912 8.993365147904834 0.9053671841692923 -0.35094761109572464 -0.1507239808518501
Ni 0.9121902652862628 9.0851326382199 9.987253760684053 -0.44591284901971595 -0.5036382287556423 -0.8069121879244877
Ni 7.5584261520216565 1.0450294289352848 9.880914620366747 1.7246672042351716 0.17418941096364196 1.5650011836986852
Ni 6.971239145450624 8.17358453530412 4.3697463289657845 -0.117006791105063 -0.17373689680725563 1.3675227203001157
Ni 5.353561192306176 3.219343306577277 2.7448636272744533 -0.33038238534986325 0.15412375056201844 0.24918720462677085
Ni 2.1199650136035424 5.065269904863029 2.5780746197374365 1.1228678563260597 0.5955168573345099 1.73180998592754
Ni 4.969525982997022 6.621357392488398 10.932799616301695 0.973634343976807 0.7605441421829096 -0.1877452952712057
Ni 1.7326130402574593 8.369080135580754 0.324717648478717 0.5402949607467276 -1.346278723319675 -1.472053233315039
Ni 9.01342604238819 8.364141842459105 3.199615009820957 -1.4716166599982528 -1.1067079587367457 0.8974394446817834
Ni 5.451488650496494 9.205816782996923 11.616652789405668 -0.21944108371258983 0.4535778217641414 0.1243010107736311
Ni 8.257885621242723 5.801692866628977 4.977950563650821 -1.0134401631198353 -1.19206575547796 -0.7007906762733608
P 8.179342806201566 4.870953598466191 0.5857921230288353 -1.1787800941126474 -0.34781703588654295 1.1159284488937489
P 1.7270758869624758 8.757749601308173 5.7996963589434145 1.410103788195436 -1.3514016463685372 0.3344935793047594
P 8.21066779988367 0.8563230603775746 6.024173106316057 -0.09950657743777055 0.2208027399468068 -1.2125435637163375
P 7.4482450933615745 8.363653541087002 1.6674257284050018 -1.009616675608687 0.07953887606659205 -0.3614549383849517
P 4.46838136348398 5.281034618698671 2.192202291681161 -1.7171387570686105 -1.035987195182416 -1.9337909651821534
P 5.4169943045124365 4.605971791615902 11.584681026736364 -0.008358656377340443 -0.9904691561459588 -0.3698531897509759
P 9.126647468082123 5.0384133293973425 6.799193988238418 -1.550994327896632 2.19797772854155 -2.2791235440839457
P 3.578751542912237 7.798145272790673 12.651844327678086 0.3010530402581267 -0.4480460933126348 -0.945040077278882
Ni 1.102722696710971 3.736721643404398 1.02047431918189 -0.8773439594834891 -0.8640683254205054 0.48660209920896197
Ni 8.357637299653351 2.6676917413685604 13.470946846297917 -1.1669576475564225 1.9500989583135575 0.5537248609993882
Ni 3.7040883705743948 0.1093306772139468 6.997524500443283 2.0555460696054793 -0.6806082877882149 -1.1272929819769488
Ni 3.107319601230013 3.0908924060137806 10.319201033439931 -0.7647041870978701 -1.3999931821239953 -1.1814558411725975
Ni 2.41450287331624 1.6925446880446746 5.889017735781246 -0.018963171366064114 1.5804185466950202 -0.24725862014549027
Ni 4.326939803775846 4.885657919029907 9.34640243331886 0.04512748846625777 -1.227929045033472 0.31394995082545285
Ni 3.3260509762320196 8.178780798961975 10.297383175340347 0.35096149505279556 0.9177622153995355 -0.028645688761150666
Ni 4.490576042831093 6.93421116027169 8.40967456342273 0.6677028925804566 1.686330256328186 -0.560604361728041
Ni 4.058254277084321 0.6916954774046226 4.42473551272803 0.4585274524599329 -0.6957693117993695 0.6659452864594015
Ni 0.6440216009904915 0.8902111756015492 4.4553999175727785 -0.9306830372262617 0.6848043281474334 1.0099072102659123
Ni 1.34191666317414 6.60794292460571 4.570651939915987 -0.042274849508811066 0.506952637840856 -0.7960292224633968
Ni 6.5317402708572745 8.263680745073911 7.009673991375221 0.11078035057937695 0.4975840521417624 0.04841232986511662
Ni 6.827540343550691 5.9192629385046605 7.550321270568084 0.04209307251530815 0.40283427266268684 -0.7231176219053352
Ni 7.028867920592258 5.98127721276179 12.470383245894379 0.09932839998869344 0.08330374242566298 0.1829707567006978
Ni 7.941374199785373 3.428658757007781 2.6149948100851694 -0.47869287166421426 0.2824482806727458 -0.045149342843128694
Ni 5.4582235241381465 8.389726991710635 2.605434237748723 0.3774214890165371 1.1856457108842289 0.11309125810074072
Ni 7.641640076414822 3.9353221033489354 11.277382838714926 -1.0166041626701137 -1.1880484067884507 1.3533243173125467
Ni 5.802697109073492 2.665084396306197 10.206106750367415 -0.6512987401908203 0.8568988042552597 -0.0017635196583259951
Ni 8.908127997449142 7.2141276185215935 0.363358870832279 -0.9558628789259989 -0.740784185947163 -0.0207940539272158
Ni 6.163966418562506 1.3132266542547073 1.3254286606172303 -1.0843820415460357 -0.008049609777353878 -0.35778957371822256
Ni 2.3870750773775273 1.6874129170208712 8.272092427200901 -1.8972347633246747 0.08881953003756961 1.1141338188871717
Ni 3.42007202344551 7.516183476717996 2.0659865215492164 -0.4953194244773019 -0.8353881838769937 -0.42441302727472713
Ni 0.31374653010323195 2.636154843317431 6.744150446398901 -0.3246259424820603 -1.3087082212650687 0.3191260957097536
Ni 0.163592936858099 1.7612754094765843 11.50192684269165 -0.42868080141214554 -0.6569019453102105 0.3321698162675892
P 0.26438847461701614 1.7668586289387473 9.16682914306617 0.6999036456827172 1.6704670640436843 -0.233771641402649
P 5.661384534633461 0.8451971596803661 6.117539092632254 -1.2711418329755204 0.508682218937453 -1.0568234152014766
P 0.4374277397169566 8.782459493383291 12.010817948877609 0.495155902316244 0.6645491774428233 2.3295084242944006
P 6.9880348700042925 7.449203269638909 9.113632854530552 -0.963601128110521 1.1632092362575837 0.2958437281430453
P 8.786034227956426 5.771537953593234 10.768383016374425 -0.742102133427638 0.3177150742948399 -0.5936106414507325
P 2.165229629474182 3.170651367868478 12.496125020114318 -0.5582176066634192 -0.611279005264773 0.4218676351450541
P 6.0106674274223515 3.861256919757632 8.038123285419237 -0.3063171168705434 0.2542571629505105 0.6686950812903967
P 4.194177109964342 1.1084901808418524 2.381794051972062 -0.012510730872501034 0.6445894464914447 -0.9958864705067882
