# total energy = -340861.29281018587 ev
CRYSTAL
PRIMVEC
9.29452707584452 0.00000000000000 0.00000000000000

0.00000000000000 9.29452707584452 0.00000000000000

0.00000000000000 0.00000000000000 13.60347988069314

PRIMCOORD
 96 1
Ni 4.1986818455781725 6.067588202111899 9.063794305612408 0.6587091737222784 -1.9761380626897966 -0.9391247402357116
Ni 0.24197093344850756 4.1347819708981035 0.9419380610421161 0.6305085429183463 0.21043450933860533 -1.0875216156162817
Ni 4.064552523176999 4.060072561053975 1.5669708512327216 -0.470874146950744 1.702118372400378 -1.8220996727527328
Ni 5.684170364977039 2.604726193449648 10.698211823114711 -1.2571434618138992 -1.2543047068135238 -0.4660954946151779
Ni 6.835102376869134 7.956180367310702 12.440559249673 -1.3846578373185057 0.6240342480479124 -0.4121126126408193
Ni 6.007285309468369 4.4620515690595415 4.981118383797058 0.9385259303094483 -0.23312912272264366 1.6118327993402433
Ni 6.120948082917466 8.895122802227815 0.9006006512036284 0.10813725652957505 0.4639133993621946 1.1099107819447596
Ni 7.918593299207982 0.9112689095538512 6.5028444059454005 1.333570017503755 1.7955684592314238 -0.6231425894715784
Ni 2.928547522010168 8.39483557975082 11.995058617930793 0.0024425480032216 0.9967405909769673 -0.7040418362208068
Ni 5.400761640796 3.300616741401849 3.0841128125531068 2.8617049243037105 -3.0695307923748745 -0.47485601441662734
Ni 8.922625308290117 1.1966982639538635 8.612622153356776 0.4628978136134867 -0.9872789313434351 0.7118726451191353
Ni 6.395415471906909 6.208112159244692 6.831219123394031 1.5619487700256067 0.18448745045554032 -0.573037188174755
Ni 3.496257244985959 2.910906509334856 9.209147699091929 2.094394409931245 2.668332512653714 0.2242498179551428
Ni 5.978918412374031 1.4862134925225094 12.993745344405143 -1.6239835757701646 1.0484714436923555 -0.502477889898954
Ni 6.180293639256701 5.53899914423115 2.97727129263531 -0.44736372253362955 1.353033268434689 -1.7916051037083016
Ni 8.68199929293124 1.6811197284557502 1.4277537046279316 1.2983387051052866 -0.6293032097563356 0.8945526100522917
Ni 0.5075518249569874 4.687304436386297 4.578182968939916 0.04832362680605226 -1.4516006218876418 1.1159410472992395
Ni 4.356809637277372 1.7031570525090505 1.4070352739880274 1.2678878448145972 -0.3375274810350768 0.777502367303803
Ni 3.4366421473571647 4.549066932951148 11.114451424243423 -0.8835858266281428 2.269060760531305 -1.19280957562252
Ni 1.8276479501766627 4.860944794026011 2.584402780216857 0.45192434532111847 -1.3342307910162052 -0.30637111003693046
Ni 2.8818425226985545 8.421148386328168 3.2169241709936056 -1.6727792571166287 -1.3262567716717932 -0.8460757454978268
Ni 1.7673171739514522 8.81345179149127 0.4888447300088313 1.1299998393851507 -1.5603418305498031 -1.009792539064919
Ni 2.5111210097546715 3.7707432230298523 13.31765775933248 -1.4495020874874005 -0.5878917366890843 -0.06156095143193268
Ni 7.701714800912024 0.598023823524015 10.69007725288635 0.14972510727369054 0.9506080582849629 1.1355138272248446
P 7.934040803457913 0.9277425296095535 13.200477007328267 1.0765257787264104 0.024604943032873753 -1.6303542551831989
P 7.4162519862139975 2.724765012575914 9.641371098691524 2.3771746200221124 -0.4195644409331742 -1.0585568529528155
P 0.8525609577823338 0.5542484591940973 6.495321415608521 0.6689293087883899 -1.9810635250158724 0.46509045038943125
P 0.9708598414118569 0.04174172177282705 2.441756882518325 -0.5380740418360087 -1.2468024848992074 0.27284289637249787
P 7.714689960919788 2.984742233619723 5.133015124443818 0.13772036950333058 -0.14940629048169107 -0.748302348701079
P 6.498194353974137 9.104110246908737 8.219984145213534 0.4477694426124805 2.8760881896085757 -1.1609150409067683
P 3.3981906882224098 7.771628234707439 9.813863582218803 -0.21063916915024367 2.686315065274064 0.8772904805377343
P 0.8595086168839122 2.817366387330462 2.990956554523155 -0.28344689714058924 0.7206501342014492 0.39329213750020653
Ni 8.559339417127187 1.35671284467998 3.957130095307566 -0.7098047068465131 2.4239442720774833 -0.36459219846235275
Ni 6.027333604695263 6.085368632695605 0.46370768112559574 0.3313511770210358 0.34447665865940025 -0.03695755106095571
Ni 1.6841590388587147 2.906798328300879 10.596593827498037 -2.941347672938018 1.752916685999168 -1.3328601359209238
Ni 6.820063831817156 7.895700878649873 9.809837193024416 0.2378247284261001 0.11194480320112334 0.8614805100886712
Ni 5.171763078997089 9.23492142309016 11.215212464449847 -0.7500054474351148 0.6082512741820428 -0.2646678167608732
Ni 3.9547469785267704 2.061554022351004 6.9744766009840475 -1.9590361129021876 -2.0710037989214465 0.14458650049554453
Ni 7.156609368150333 4.069404266389071 0.738295898968978 -0.8615805260016453 0.5557704306745074 -0.6293605453568323
Ni 8.017719432075317 5.865804016031277 12.22758352335932 -0.5887240027823926 0.27343810675433555 0.23684693789386307
Ni 4.081989056253335 0.8433909772209731 9.009476159049822 1.2778004759426187 -2.1794472738375306 0.907803818635243
Ni 3.482213214347183 6.474158706567204 2.098567618123867 -0.4668359723256283 -1.9349129946017385 -0.7439042196333833
Ni 5.029854237307593 3.846419263705506 12.51601779841156 2.323108434305328 -0.423563020569606 1.4850365329485844
Ni 2.051878419508538 4.376857932504268 6.756739288372389 0.8106551999066877 0.9051401557601508 -0.35757951458994547
Ni 7.902829781032361 4.135618478348461 6.873893086247646 -0.7748844700649816 0.8065254940090303 -0.681759884894155
Ni 7.478859921609626 8.562267193203438 3.2119859886783297 -2.192334414212844 -0.2109479586399141 -0.8025950486063727
Ni 2.089047233886079 7.740324267009625 5.681303003327758 -0.820403280432387 0.47353266761951357 -0.8600514909516286
Ni 1.661099316810533 6.876704680733568 10.80268695640072 0.8116440461825184 -1.2807978680080458 1.12252050028897
Ni 7.5671765193129 3.301118645872063 12.197070519928456 -0.6387008489211516 -1.4075134017604405 -0.90359080899516
Ni 2.511260427663064 8.86287079275293 7.803922069554842 -0.036629221187259496 0.015116801036780415 -0.19673232926116443
Ni 4.9378105341866165 0.10166167989463987 3.6783128675762664 1.3214583218418854 1.2257940009683403 -0.5202586109211428
Ni 0.11239128212455561 8.695309055919147 4.241511027036464 2.2269625458096742 -1.9776686404017103 2.1361552959181145
Ni 2.9011565502745813 0.763670887749204 4.648826023122586 -1.1929175619552939 1.5953371156780654 1.9701731033556131
Ni 1.1965123734093395 6.635474521104988 8.202231598211508 0.32483625872065347 -1.680993674606621 -1.0829594501668962
Ni 4.998968523334958 7.780746165916333 7.641224158818524 -1.7796479313464253 1.0810946290440155 -0.382226109494032
Ni 8.521036670428051 6.380274687055443 3.5833609068862144 -1.3856415413880137 0.27706439065301314 -1.1757855302606977
P 0.1140773093633868 4.277536614565183 12.320209063884658 2.774390518056757 -0.44566499467496795 -0.3836402162327393
P 1.318930591505511 6.560672165988597 3.793411645481812 1.4823438166077696 1.1215475948527394 1.3580302074286483
P 4.5712901475489724 0.10635448669114407 5.801163367531282 -0.9371922990996892 -1.02043973436612 1.5821681823962752
P 6.62070551734257 6.7239491257711075 4.675475291585523 0.6834727538202036 -0.11155013886586594 0.4140129149873256
P 1.0704785842221798 0.8935907187696345 10.593438335504745 -0.7094964315774749 -0.13701537301650596 -0.37959201430529466
P 3.8554814277510427 3.330126865345008 5.5052600104000735 -0.33321471259233576 1.4005269431402783 -1.6528467798587598
P 1.7892894363141694 4.380910346374887 8.94938982889066 1.96581199817344 0.36707382723362586 -0.2132956329364843
P 3.061291959854638 6.441888108037867 7.113844318929901 1.3451785482769605 -0.49959362637262344 -0.9469198108000982
Ni 9.111722464706988 6.902060151006619 5.986591974051975 1.2715233846846554 -2.657198607524082 -3.334255944736245
Ni 4.261373431718836 7.583451236485961 0.0938589242882519 -0.4817967074005187 0.08588950087496822 -0.3220188438765164
Ni 0.8544551824310317 6.873535246949437 1.6275200488477475 1.1905621743492398 1.2506606823030333 1.6486404550868963
Ni 6.621337545193951 8.683458533705751 5.646831460751259 -0.8773115635836567 -1.7893487035739568 -0.7491752382243355
Ni 0.6748198547304242 2.5327679636644715 5.943374281355629 -1.7481089801978797 1.2450222530703332 -1.753595714344064
Ni 5.031759615388963 4.453435542320862 7.152723326317062 -1.3204604767049903 -0.9113835655667014 0.9839984608199503
Ni 5.196086856748033 6.827880529214383 11.19925562010792 -1.0794362675049862 -0.9635419927378116 0.5636624318280745
Ni 1.4953686018403085 6.216021801914182 13.182765356246037 0.7730690141227977 -0.6417054400754303 -1.0393160024453327
Ni 0.8575335298483464 8.360826904630185 9.487175821461726 -1.9634383557349413 2.9973897514342505 0.4342778358839489
Ni 8.778996979063777 8.337321045275147 13.557391500077644 1.1566521518653565 -0.9543027335277308 0.924271220162647
Ni 0.6360560994808689 1.967372577968003 12.428737540494007 -1.050197939465159 -0.37121176066139944 1.6464138797492225
Ni 4.387918419903436 7.022461456694707 5.20363029504481 0.7028704416205249 0.041589907626644496 -0.00639253378990512
Ni 7.117023976693982 5.711310384477519 9.752361695563094 0.2561934607412749 -1.4528805170413301 0.04826449143334269
Ni 8.144589728712834 3.9150593472709314 2.793733192952425 -0.1685736074387613 -0.916923264438008 2.423101978681846
Ni 3.442943836816523 2.326113445317325 11.553585304835691 2.1678539125729763 -3.761857911261915 2.2420212399150095
Ni 3.887250121810166 4.637430003290553 3.9459887455215297 -1.4862611493843048 2.7124215325531287 0.05056100077700324
Ni 5.988045638110151 1.8786563155940028 7.544381691290664 2.754095515253147 0.2753479221825387 2.874922708545565
Ni 3.0394219372914093 2.634041132321057 3.142499173682598 -0.9328522769634385 -0.36440270815936593 0.854416147042722
Ni 1.7137249299652306 1.5457077612973629 1.29924943010405 2.128546630332921 3.355061054407054 -0.4494424594395292
Ni 9.254030971067209 3.4968799783101137 8.490898236444403 -1.4634120127002732 -0.2675582509347908 0.8623302596834762
Ni 8.23019232446606 7.961022815995547 7.497803097549327 -1.1589476327677524 6.006411173570159 2.6789203154718897
Ni 1.8349627431036755 2.260958809461721 7.831713635413878 -0.4841078720321985 -1.8286045637507862 0.8718397418358083
Ni 0.3117839863498789 5.196096151275259 10.168492550723256 -1.5023979070451674 -0.017094750698757655 1.1522697065269447
Ni 5.736861039822319 1.8109642738056484 5.210024000323707 0.6415735424832564 1.5026424189558059 -0.9721870700073193
P 8.368978205007554 6.106048955773881 7.941194801063912 0.15855813218428821 -4.560150218727875 1.5190931083126613
P 8.649291851622271 7.784835757895857 11.337969932789774 1.0805331001135907 -0.3668095178286457 -1.0703060230689438
P 5.518541889806302 4.290353767610101 9.35402521277747 -1.213608514645742 0.0586427493438732 -0.4067991708477059
P 3.9154125393055272 5.350245885321648 13.358359423508697 -0.5000841928557969 2.657285253700617 0.3598523697845222
P 8.3075320855152 6.257865763486497 1.1379103792482008 -2.6304077125834824 -1.1442188111980098 -0.30503516483432624
P 4.989878475707743 7.77670304657294 2.445035062271003 1.611348146394341 -0.35039250992320303 -1.2506030895922202
P 6.716922463188106 2.146747658906277 1.5323097003008073 -3.1540036154079742 0.38742616563773274 0.6856635908239352
P 3.8116019647161914 0.749273665075833 13.288614220656076 -1.0015223286363268 -1.2446787536879855 -1.651069633353679
