# total energy = -381170.6950663174 ev
CRYSTAL
PRIMVEC
9.28360298758699 0.00000000000000 0.00000000000000

0.00000000000000 9.28360298758699 0.00000000000000

0.00000000000000 0.00000000000000 13.58749137330100

PRIMCOORD
 96 1
Ni 3.1269216932563757 8.445702029290926 9.56275433233996 0.6468365906544086 1.524207803831407 -0.4920389539538172
Ni 9.17856820878349 7.666519954970659 7.977990402155722 -0.8337768735258158 0.22989673182827502 1.325662075510588
Ni 2.2793101820198958 3.643944105512208 8.416880155752725 -1.1142685446928229 -0.10910579109043145 0.5889165784091729
Ni 2.164407029026819 7.672888506554504 12.574557493016165 1.6101433274529624 -1.579348453559293 -1.1026160480555591
Ni 4.707074457884204 7.575735602290745 12.471686817731284 -0.2032027674768565 0.21320101634014893 -0.3666989603927104
Ni 1.6605116312601362 0.4946192217570936 11.750312810258604 -0.47586491529711594 0.5562535409585129 -0.40344413833254394
Ni 4.625545857287516 2.848237218044355 9.075886918997604 1.0725835062492108 0.8554790410895976 -0.5129391944415941
Ni 1.1231117106565778 7.429797364830038 4.940234929595202 0.2988290360236144 1.4255954560731319 0.7094231551373782
Ni 0.5956443167870656 2.7610177688749316 10.249030750719513 -0.2392468055846073 -0.20502105163251788 -0.8721058510130013
Ni 3.341447188882458 7.023147707356034 0.9000146644804017 1.9479289472454324 -0.21211806768861532 0.34925171145054046
Ni 4.732075200472097 4.791759483464138 4.5191724786315195 2.3362120615668216 -0.0793658408238375 -0.2748367868740751
Ni 8.264987415397153 7.362741901141826 5.817212333499348 -0.005657455396093482 0.4277814295263278 0.008594426537230361
Ni 5.181188057573663 0.4507068517181057 11.006139202443702 -0.534697412054292 1.8935884248213388 0.8831294558170145
Ni 1.7065025999866212 6.432199965271982 2.964423364957093 1.6515619996090651 0.39052871582245646 -0.385959094173903
Ni 5.229388523788422 5.159445859600828 10.19913788369756 -1.837247584137765 1.344235467637401 0.3786643602847027
Ni 2.465502121619892 1.2565170842132163 5.747712497169699 0.3793811838460692 -0.04164775744777344 0.1423817795347419
Ni 5.45585273273349 3.2844737179348527 11.598622452446074 -0.4959688851358426 -0.3854569577265039 -0.151909516519519
Ni 7.913723732776238 6.150591155149012 13.52573594975442 -0.26629301106912207 -0.21737571654312884 -0.25705683718283473
Ni 5.976402914088245 7.115909467451924 5.195299133969356 -1.4164762673806832 -1.427623028026122 0.10571424891037923
Ni 8.0240593531465 3.622749640109995 11.66858461219974 0.4081243174170326 -0.17457610487909933 0.9665969775140514
Ni 2.694528604963126 4.7788924098559615 13.15550400970477 -0.0830456036682699 2.22162724963969 0.09302174104437527
Ni 5.7693321515843605 2.203815923302945 4.1507072082122 1.3845470227722543 0.4353533283363148 0.47726642363033284
Ni 2.253706005244029 2.4736252741503066 1.0461580695650197 -0.24402005860353457 2.3023403485200413 -2.1560052407645065
Ni 2.5456010473712265 4.51362274082274 10.640350394738116 0.219293502391132 0.6068952743747805 -0.20828198177197677
P 8.630649966103407 0.4872201902522474 11.562669843526603 0.250507208989775 0.714453261362118 -1.0994916434939646
Ni 0.898771590053176 0.06420354087981914 9.52436941946281 -1.0183496846063105 0.6301781561621211 0.07615890385076561
P 3.834434353251155 1.8673967217061829 12.512095556038867 -0.7032864461120211 -0.3319319892251703 -0.8491338155978602
Ni 7.589224677292679 1.1463485686950095 7.339473478853562 -2.7321771179135013 -0.8129177706886194 0.3879822952515189
P 0.537884524674516 8.675591887703106 1.4424481545719499 0.7342196453557678 0.06068651924677935 0.20615490812664494
P 5.6032763466569016 4.118243377259506 2.013041597315506 0.39871048030230044 -0.06681191541822687 0.7358762071225843
P 5.607825312073933 7.639031206807736 0.8461558423030294 -0.09304410964187847 -0.6359371701330854 -0.25526632094131524
Ni 7.713522836412361 2.875168950033764 5.7240569486408415 -0.6518029335207485 -0.008053980652728065 0.2855675430280179
Ni 2.9750790843564183 8.639125895543714 2.5948032143380204 0.07232230371349481 -0.4652981955248632 0.44944605898395495
Ni 6.723565842034341 1.842628069190587 12.933525637677068 0.9000051485264307 0.895223153756755 -1.189383066439474
Ni 1.1797324046942907 6.576652826269984 0.8228855632941867 -1.5754599171381642 0.07553232601036024 -1.7112280480111304
Ni 2.186659825158709 1.3936730333381835 2.8553837355505416 -2.3485003920158714 -0.7354871992142817 2.3954700758971903
Ni 0.4419477723895957 5.702360240322177 11.946991507685293 0.7020484599398619 -0.7144900281373243 0.3548757425055372
Ni 0.12452746411111225 1.4419477683760762 13.535247000917174 -0.26491644243656953 -0.6263803796825858 -0.9818338490684638
Ni 0.3082286130552108 0.7133947507870889 5.15248501415248 -1.3991763426496548 -1.0117689460649995 -0.45647005571027194
Ni 0.3515653997149008 4.322547626101604 0.2884758911821099 1.139806026842295 -1.3959143840689314 -1.0724503231054563
Ni 6.586317056880454 0.009994726873422205 5.068419204885435 1.586263178401255 1.0248766870915509 0.05060933751643542
Ni 4.211998482864829 6.778914682475864 3.2966380228041126 -0.22378084873852427 -0.19830764416808427 0.36361286526821895
Ni 5.619234860028082 5.224282542197875 7.477495588128344 -1.7725624852545538 -0.679636667903565 0.39880869644306155
Ni 0.3423764895724957 2.96142290450243 4.321080816844683 0.8377425430417831 -0.060049656993728835 -1.901194519303371
Ni 5.03224193277598 0.4599226843088973 0.15667286748461376 -0.8667281316408557 -0.6478501195205875 -0.12035436742105723
Ni 0.0077035336797006745 8.138414773568954 12.923253331077179 -0.8845253077232766 0.5959626866226768 0.5158738515898857
Ni 3.046999155959987 6.22846201620629 8.486746694396604 -0.6922299311875433 -1.37902377896118 0.3448088451878384
Ni 9.094514468200206 2.457471805118396 1.9402525804812554 1.5523932651266876 -0.3289217416439368 0.48925650611267346
Ni 7.484589189098046 3.428053920261016 3.1930608653391563 -0.9797196309389385 1.6120302600630303 1.4093782228833212
Ni 5.596443614928461 8.6438419658128 2.9152917533722777 0.23765966360314553 0.47930762243007774 -0.6710918636573475
Ni 3.543179879723499 4.857765900025566 2.192138079225221 -0.06417576334696046 -0.32336044550607534 -0.33953217016993137
Ni 8.395663409703571 7.3575709343310365 10.887792761138018 -0.4949201321563541 -0.19575608139082415 -0.33539783628658365
Ni 0.43081858924278305 1.1942519596172263 7.484805497045428 2.2474357260623616 -0.003500814064406874 0.5908220229620018
Ni 8.994520781451524 5.328416715836345 2.1470819693099505 -1.1566920039643562 0.21223171044834416 0.5766603867496392
Ni 5.520782251359456 5.376487211610616 13.470462306496323 0.7576413667138178 1.2438809403770386 0.08068378830431265
Ni 4.8080800573481035 1.145058147893035 6.263629232321105 0.3476000347797304 0.2245033287268456 0.6510837959665368
P 7.2700729770748564 5.534327027978742 11.117937918629726 -0.05490333690609899 0.2629001833374892 0.38879373540922074
Ni 7.6710317859761235 5.197499347854736 6.636878343310623 0.5985972960320466 -0.5161888117271433 -0.9213378485659358
P 4.333483710308265 0.6996197408160841 4.135787530004623 -1.7255485783988604 -1.175210117373202 0.05505811731640841
Ni 7.5940428671935765 8.402848918341904 1.3233172488219005 0.6692440118153312 -1.2145166282823083 -0.5218750634786431
P 1.7453359108834492 3.8436251201141385 2.772840437157769 -1.3246549744023122 -0.20355757971311392 0.35160864171849127
P 3.2257827804522448 0.5552337217589033 7.80004880044576 -0.251022972283929 0.35608673209450287 0.13170578787813447
P 3.8472550088448725 5.909728078118602 6.150405483091174 0.8110701759569193 0.9079066627616945 1.449361191034162
Ni 4.414594548774817 1.5975873708588213 2.1037786036206714 0.4110780007287179 -0.03978345054552503 -0.6147656782617928
Ni 1.7128247335560067 2.9526406161666907 12.30394882395981 -0.12029780315150897 -0.9815718536563288 -0.4776058092476227
Ni 1.1219234094864141 3.185872571619956 6.33242351483097 1.0420231169638505 0.6925099243218074 0.28645508783929374
Ni 5.258687574515265 0.3778695601488173 8.66869695583529 0.37253742145135843 0.472929743928192 -0.7679466052945677
Ni 7.502014511726147 2.0632343247108658 9.756756567052912 0.9069563830332832 -2.670425904847633 0.6289023747734911
Ni 2.5400773036505444 0.22367262955547393 0.3450418119627609 -0.06927246114357746 0.4095821329094817 0.7736212870818419
Ni 4.532264215429681 7.60909158748135 7.420264961380632 0.9356594073949305 0.7669824416090855 -0.5287537928763474
Ni 6.856005720890222 8.841220646897538 12.394916991976984 0.6601271371157276 -1.1226606254112603 0.18093315744537872
Ni 4.395776685712931 3.5080043083660803 0.3272999184760461 0.26701471972649504 -2.3021061210220477 -0.09064552750271486
Ni 1.4018147530743819 7.2032310362531575 10.317471327959193 0.13884548424670926 -1.0345633182516958 -0.2367641483720697
Ni 2.8873304698221567 1.89910022558203 10.216054464887184 0.050250154404803786 -0.46203700827508815 0.3878275148412095
Ni 6.975132913199114 4.026790605171374 9.481106901626255 0.11983346192058072 0.9621029462984397 -1.2324919818138065
Ni 0.17214677678483678 5.2698650323971155 9.524396341911196 0.2613400379392209 -0.28486486053403837 -0.06704357181305873
Ni 7.3359679904015795 6.205160172947615 8.90257876349099 -0.30100496062901066 1.9691374630022476 -0.38879553518143367
Ni 1.983144682562423 8.206296477914544 7.081854426963557 -0.24646646326149813 0.19971429470762378 0.6982910497799587
Ni 0.1958793792176963 5.484371960817415 4.322398160095044 -1.2625355793637483 -1.5592431981689858 1.614701122026974
Ni 5.269075926151304 7.657654114208892 10.06439102952304 0.7389399336495726 -1.3620622114061767 -0.12191297015742875
Ni 7.4804579858111495 3.825095048741901 0.9350704773605146 -1.582951597529519 -0.11259452096998027 -1.9630310929941934
Ni 6.86868712244056 1.192088880143413 1.4639981819649233 0.5131325413993227 1.6501705185781774 2.1212053594765017
Ni 3.553076200406267 2.8752060844453315 3.933443049733006 -1.2779218320118313 0.7495390493216576 0.9006749208999457
Ni 3.692608751871561 3.6530513199491645 6.622420988527064 0.7849068872979901 -0.2954881445758395 -0.6198451496672293
Ni 3.2445820763083475 8.106943359765404 5.117565670234877 1.785349866827209 0.2606836353021446 -0.36048383272093404
Ni 7.460776747680317 9.025797239594343 9.644007209930756 -0.23024383075504867 -0.15397256969613485 -0.6175486403235687
Ni 2.4320533004003675 5.116787704312536 4.871686662561973 -0.8610529356329494 -0.7585618216455581 -0.08963354129843273
Ni 6.466549295972021 6.273208982145261 2.433858961162842 0.23518523392072402 -0.7223380634268335 -0.49684306021067975
P 7.385087533302636 5.659219337683506 4.338458793098035 -0.4754964762141037 -0.3256487273196198 0.4527339857066074
Ni 8.9332118679534 3.5469768733062867 7.949932569135525 -0.6205797138404086 -0.22699832723455743 0.7003620733763745
P 8.107240435057946 1.167635870126142 3.5002868492820416 -0.5421052744825888 0.26541703622207197 0.6488734185787793
Ni 8.404863460169446 7.715221735741579 3.504621363472271 0.02242336200052267 0.3134385584066731 -0.5185619399450101
P 5.879064337766648 2.8447094489454323 7.237323211153091 0.49834844111161275 0.682295959903283 -0.1043803605903041
P 6.744695322216311 8.122084916082098 7.155784398593223 -0.01220862625104994 0.8021980702782701 0.9446428418404633
P 3.4625703558131096 6.537717395741345 11.030895786275538 -0.25672336510281596 -0.5821052119142943 -0.8413140624431253
Ni 0.6508520464646311 5.80504617190951 6.734164931456026 1.3441454790267562 -0.7599090797020719 0.6407957837769673
