# total energy = -340895.7313044046 ev
CRYSTAL
PRIMVEC
9.06288020712924 0.00000000000000 0.00000000000000

0.00000000000000 9.06288020712924 0.00000000000000

0.00000000000000 0.00000000000000 13.26444127311055

PRIMCOORD
 96 1
Ni 6.504909239186605 1.8377979754176959 11.408851680586851 0.5749760570686807 0.30858354430721696 0.6965164743780391
Ni 4.730886749647974 0.46265639390818364 6.141330060956568 -0.16019952444245314 0.17775347416581647 -0.4497237381253738
Ni 2.6770387802170603 1.4965714841809963 4.821558144215869 0.53965192784609 0.48000104895267653 0.42028280715643745
Ni 3.398208385637079 4.311248221488486 4.913772040943294 0.5972937467292745 -0.11190469399180729 -1.3239021553966877
Ni 4.94096430580496 4.574524882677462 2.666378114586885 0.4874053118365477 0.011081968845774464 0.1481677900888997
Ni 7.170459950640471 6.044388059783624 2.540246389821603 0.9660459901065879 0.061391001512971693 0.996370095011426
Ni 5.011663831930097 4.502094346490807 11.62420020769556 0.3942295617128114 -0.9517308590354964 -0.6273468573609131
Ni 5.666964426213404 7.855051772771035 12.29881651791663 0.31357816930833093 0.2557633151823918 0.6812037552803687
Ni 1.9003499725098236 6.3389044679990505 0.3366026099100692 -0.6356111542522345 0.7600358350879233 0.31887181360710243
Ni 2.865990763319606 1.6564316227941576 0.3435221187161891 -0.9550694364904262 -0.3851196289917432 1.5899411414734745
Ni 0.37285866096296066 0.0822682923216154 4.887999929362465 0.18528294977364218 -0.49806304866071 0.2061492516996901
Ni 8.759228112077077 2.1895555331019545 1.3231242760169049 0.02487490886480877 0.15291044698020761 0.09958473897387367
Ni 6.913065098508696 0.6909458072307209 4.825882044217702 -0.08328523048290173 0.32222890300479345 -0.381718059509362
Ni 0.8412772339136211 7.6333556045781 2.6752126099165583 -0.8863749593375057 -0.9285634197800976 0.5214541738911406
Ni 7.64027058194427 3.8978993319818422 3.719163933394213 0.27335557434285823 -0.6815346562572262 -0.10636190979670715
Ni 7.696496688863939 3.8908484114171253 12.817164308830193 -0.07614836232780434 -0.5349936031384722 -1.1352916839117093
Ni 7.907317401172991 8.971335753332388 7.029450602226039 0.6469656600331052 0.08035083044492614 -0.1691994139482183
Ni 6.976994653346115 0.5401104844252006 0.41569526911359106 -0.9132576426609627 -0.02145225633650499 -0.5784956401861651
Ni 2.0689376644698 6.551293058531362 9.326480109236487 -0.4875611206881216 -0.2121088117172347 -1.1063760293186238
Ni 9.129673328121807 4.702565249950364 1.281936205720673 0.08844492030697026 0.5694265880053613 1.1226305435042732
Ni 6.517116938416263 2.018276165810717 7.307632075703875 -0.4000047736336918 -0.050245783529429586 -0.5415766556726286
Ni 3.5742548277574184 4.39004089936721 0.5318895460649762 -0.36592582967211174 -0.5931223889604044 0.06568320113042236
Ni 5.9419140767177465 5.47653519368663 4.772440054004306 0.19249515125136524 0.4786843870237821 0.5868584103285636
Ni 5.124306366247404 2.8631631447897963 9.606969898225676 -0.5100942687936312 -0.15606827588289895 -0.6684397707464811
P 0.17607906848799085 5.541633860031568 12.273587272842006 0.8035646116084936 -0.2570483525424025 0.5226073136589774
P 4.163867668502079 6.141949961941949 12.57311182849196 -1.1175197046402687 1.6653302570377513 0.5062970065347281
P 2.250430897411984 8.488619581046384 1.452018366576693 1.259223998492012 0.07023919593222097 -1.6857692416183936
P 6.399652951990435 7.941547898567509 5.940586364811923 -1.1310491065852715 -1.0880795450022809 -0.8032594216632489
P 4.857014849261295 0.9960195642454258 12.758230213395438 -0.02319315028701167 -0.8710033619774418 -0.3154237071575019
P 4.024317443752067 6.228110761182004 8.226990551423818 -0.19089823907789058 1.0610611074319083 -0.45445456794213984
P 4.744517321022439 1.1355335374758249 3.742734671446547 -0.27144215937022925 -0.5873764876155626 0.7015062142831466
P 0.19031141508803104 5.663810544007078 3.5669410836755078 -0.22824325538525206 -0.4189286071213882 -0.4530443178581746
Ni 1.626968200228741 1.1331318743014676 2.6706358555654246 -0.5678096212272286 0.04160019203928965 -0.8252580374215271
Ni 1.8617874185215588 6.616011083920363 4.788409754681798 -0.292402049451348 0.050295662930758545 -0.1879484124209473
Ni 5.891415709896921 5.664744020637111 9.449601145297914 -0.3979725736950114 0.1757657543118263 -1.5116099125617386
Ni 8.55217755780777 2.376214607588982 10.201561885189173 0.7576560220018371 0.5735161846937027 0.6660746129484142
Ni 2.285730814635084 5.314028694141724 6.746572744382347 0.008882132980978253 -0.15642437367073705 1.550680396200639
Ni 0.4887638320454326 -0.06194297156263034 8.97745319726707 1.1709827095554155 -0.2878622525994656 0.9277021002210669
Ni 1.5864480641813774 1.167398623215599 11.538312201140592 -0.968119841916481 -1.0585720224614672 -0.7726905477374564
Ni 3.974036586048919 6.845872906906112 1.6700594753046523 0.1785751987361634 0.3540334491098999 -0.3157373817431788
Ni 5.683794194193712 7.927400743038559 8.008419264221518 -0.8134157933709604 0.030200691953096374 0.7060899769990872
Ni 5.504920133543563 2.806755780272062 5.015775660542195 -0.6588115036280976 0.15304851521996868 -0.41259700847640557
Ni 0.6515947826908747 7.458795474761892 7.018958506162064 0.6533422529834103 -0.34657390750806116 -0.21762485643945745
Ni 4.922385402003329 4.709806490993049 6.971591364347806 1.0858380572662718 0.506002872333077 0.12847828207977227
Ni 8.29370422296751 6.9325774789403605 9.215390952534593 0.007408376648929176 0.5360549545234511 0.9072312339612246
Ni 4.800960937059787 0.4891363164094556 10.36824274721751 -0.7290010772693059 -0.7805074726787138 0.09398461917827684
Ni 8.021690945551816 7.2092490766263175 4.71529678363843 0.16748988745627927 -0.3046998929820946 -0.1344509547234394
Ni 7.426232547269569 6.258607352056389 7.182681244189984 -0.6843803532361374 -0.5921744232248383 -1.5086600859047954
Ni 2.244458459555752 5.315741578443435 2.666258484572162 -0.09589134928268647 -0.27109248934029445 -0.34332043356777003
Ni 2.466354011106557 5.2499813218655635 11.512036193437144 -0.27419401108375363 -0.2655705310808007 -0.9695486039432075
Ni 1.2050911407331533 3.3414385059232155 3.7685339716670856 -0.7371756426602982 0.2225562323028038 0.11772901398306822
Ni 3.600301544599316 2.659366164405752 2.5671867066219587 0.2751460905843777 0.059760922108716426 0.41472176812889217
Ni 1.0776942379333794 3.407117196581959 8.290262141180262 -0.28518881953236047 -0.11906084542061429 -0.7000129175670718
Ni 3.6709376305651293 2.7750719521303524 6.910070722988666 0.5349496372744141 -0.983249755579384 0.6941271482102562
Ni 4.096630162499978 7.094259256414072 5.879489866232254 0.5239057207554267 -0.03834080456172751 0.4356394921181659
Ni 0.8912055455885328 7.383437628366494 11.246733978589795 0.049343840540450504 -0.11125960420864064 0.7894896215726661
P 0.4227407519503659 5.478664970463891 7.930503873117427 -0.5025275121899668 0.6888404458900201 0.2199761302804534
P 8.64633181712248 1.7036582899699153 8.131606459306239 -0.4413378280545238 0.704712122814954 -0.8611398389198007
P 1.9234331276233632 3.3202857442290648 10.44976607081108 -0.4584775730586039 0.17610513992911606 -0.1704173455157194
P 3.9960412584539733 6.235225121906043 3.810595703585989 -0.36753662580265734 -0.06045177752815394 0.3594867589149874
P 6.779822638171335 3.880951746562793 10.41149806041967 1.183896075182974 0.06683068447130426 1.081541486773447
P 6.469763390921861 7.791729430887131 10.197834322684972 -0.7441366473591635 -0.998475314279887 0.09737564713769682
P 2.1925190948303124 8.56996799105782 5.819773644261849 1.5035019387426236 -0.13947026231490173 0.46458805683171606
P 6.843371552052818 3.900020045879199 1.611178850861325 0.6494202922211848 -0.07721974101511217 0.8027791395927206
Ni 5.6023732811430484 2.9098641649311663 0.17422842841175024 -1.17833760725859 -0.23245857901818026 0.6381220935995462
Ni 1.4901005879300866 1.2614531908513715 7.079709709017418 -0.37321696401688625 -0.3428748613899192 -0.5458076630348406
Ni 7.144657931555962 0.57039319133387 9.242595905428123 -1.503346644111682 0.29975231916883216 -0.3102390776327689
Ni 2.6435695647344133 1.7227537779260313 9.169111356308724 0.7216330669400088 -1.102477465595166 0.35562264797389076
Ni 6.429877656467724 1.7375081464084978 2.5071913479505334 0.018103394468930112 1.4103884093153902 0.08120546513573758
Ni 4.196349030075273 7.074511241104924 10.441422783572161 -0.2095688189042004 0.3231241611255532 -0.07460004400407798
Ni 8.106909205281935 6.84813862688192 0.33599358438057175 -0.27200934472760896 -0.03484538981395935 -0.03971017410542839
Ni 7.432105293446865 4.04432828257841 8.351199133073633 1.1496204418295557 -0.07066059974035574 -0.09879643874462339
Ni 3.17484464754195 8.32258762121912 12.567885265651766 -0.23163094091056236 0.06977511181160886 -0.05712759825092742
Ni 9.261991374709037 4.820428003091935 10.079675213370566 0.0593585444639752 0.18463168934288846 1.0546598318912546
Ni 8.549830271912834 2.475462205409308 5.722439220389096 0.49585267127295246 -0.46644362198321604 0.3803636023639965
Ni 3.535257255533798 2.4704685585826254 11.645794331640998 1.5680921639191834 1.1589142084266557 -1.3701850976236274
Ni 1.0807484284607696 3.354724687861358 12.540348611353775 -0.28401613938049797 0.19705011761189933 0.2239816518954207
Ni 3.111232293501144 8.415436825827761 7.914109123372475 -0.07211558701932741 0.12994663909518264 0.3427933574197064
Ni 5.571758872829921 7.942218551680348 3.5381700651346977 0.2469012368060716 -0.13252596978658465 0.5540837870007038
Ni 3.131406264165745 8.534813079913173 3.687620579891004 0.3829246782229534 -1.2093759646216333 0.10701985509568021
Ni 3.3494591546375783 4.34252422003455 8.990664157302017 -0.17916552402199468 -0.30326753141094226 0.5159291303078534
Ni 7.171194043912633 5.861027873581374 11.442397024260686 0.5398869266750315 0.6865855884175723 0.0920606626826866
Ni 0.25557593213519697 -0.3130427473136196 0.29528765929519196 1.686136395149825 0.8831546526279951 0.10473028773055511
Ni 4.373183942747193 0.2566136318841174 1.668812423029967 0.7926808748164542 0.06789255007691533 -0.6562774243523343
Ni 5.915459530280203 5.642086820879024 0.5804176427948381 -0.3381494308897918 -0.2671705285780689 -1.5073354535561008
Ni 8.118373748359526 8.837377325482672 11.181618092773041 0.20283355706289583 -0.5444825164655139 1.1070329461763322
Ni -0.0006652153848974464 4.913141264502029 5.6316309763346615 -0.08411158303893902 0.006609020676085392 0.616779366257712
Ni 7.853601711986517 8.835755069979994 2.565356004881505 0.09597336747353148 -0.5810546591625928 0.10072168079179428
P 8.727879610491788 1.5479852018720484 3.579224004808362 -1.2827969007159454 1.3647410437899206 -0.384299447083293
P 1.793833945007103 3.3453174185217995 1.502675333795825 0.21749167329570288 -0.5431712538532582 -0.07212689987323707
P 4.638762575431591 1.1831770971271311 8.264688506669314 0.2454681039039708 -0.3169650835026928 -0.8238806974580263
P 8.603935664935147 1.4695550391894527 12.392927275407803 0.028040451076983965 1.0343427176004574 0.6474798806653623
P 6.235587637102172 7.679748486802761 1.3790775902514871 -0.04757980666149225 0.5098309878299155 0.1925781978834748
P 1.8114431206590886 3.159863707061903 6.013102998357658 -1.2268216709019064 0.9123382161704867 -0.7572407888412893
P 6.928326988265743 3.950971556695186 6.201006406255399 0.0819891373792975 1.096713052307563 -0.8476184073945983
P 2.436546199104817 8.642588847722443 10.160150868047323 0.10640973231550704 -0.04383216669360193 0.519659543884563
