# total energy = -340865.1548604002 ev
CRYSTAL
PRIMVEC
9.24765700452035 0.00000000000000 0.00000000000000
0.00000000000000 9.24765700452035 0.00000000000000
0.00000000000000 0.00000000000000 13.53488079360933
PRIMCOORD
 96 1
Ni 1.9710825913508212 8.907287681068023 9.724432842883406 -0.23895961336149169 -1.8094477883166775 -2.177979173932436
Ni 3.6865876877819512 8.567815442366031 11.40818518443679 1.0137047296351316 1.8519321827331332 -0.423267086595742
Ni 2.7867906672773395 5.273309913631917 9.150824726648588 0.18804508589981161 1.444412331669319 -1.2515443704595672
Ni 3.9473623659033237 8.490431049071248 1.6992366183378955 -1.3435021890158023 -0.6650667405091901 0.05015990868384264
Ni 6.639309063578451 4.572485479901995 1.7542832962880877 -1.7239928038759667 2.722209208067512 -2.1995363312779217
Ni 7.128565601778008 4.340434024244008 9.186502187132728 0.2517477662650955 -0.6141411573039165 -0.26268421067194114
Ni 3.4084736528934036 6.134026335897551 3.6727578168244523 1.2441509062089735 -0.31518176635002493 1.0538697318897916
Ni 6.913169176273451 4.8162074786214095 11.783291419635292 -0.9357038874796209 -0.10346684763709922 -1.4334126381247057
Ni 9.11244695033724 0.7408677130566134 5.285330018125771 -0.9239230927946087 0.6995411201369759 -0.99895328235757
Ni 0.002193544226759443 4.465453098449577 2.2956781243294238 0.9451069259610757 -0.11522373106271125 -0.8270341554853434
Ni 2.7357343532978335 3.930522382611043 4.988631891845588 1.4627592096076227 1.6627061891513428 0.04717151547948005
Ni 5.209926472948068 0.2821783801147735 9.077425148730324 -0.4913961781634957 -0.4589090041690677 0.7831644506855867
Ni 2.9393585115145964 5.891340074755697 1.2793171623617652 -0.7324787514052611 -1.4900887506605112 0.8788187442568025
Ni 6.443517670791979 3.01962817377544 13.021597072988488 -0.31567130439193375 -0.1667077578746161 1.5535183798700665
Ni 1.19052485946272 6.744843324606186 11.019504313612403 -0.3815177705730978 0.5599682708059389 -0.6539546897564286
Ni 6.726005847414326 5.785398916822492 6.396517379147451 1.7687333413164505 -0.4628595041763835 -0.9213131659755874
Ni 4.511025551862184 4.084088973798089 2.8570506656636283 0.6262685366950698 0.669779315493511 0.01778997699356936
Ni 2.513263470232269 8.108271625922706 4.9225952983849375 -0.07955353135461138 0.6451833713217018 -0.7354807714563785
Ni 3.6449639838837884 1.013191789933466 5.520363843147712 -0.5472410530472575 0.5863858415675192 1.1356722071795795
Ni 7.6968988544928285 8.252479588283949 12.637734231431137 1.926707575972811 -0.30296208435538147 0.6937430253979601
Ni 0.4700870701234631 -0.015488900612982259 2.8895755998960717 -2.036706568301473 -0.13367962377505366 0.40968549125656545
Ni 7.42256711129376 3.354938966853309 6.6683245120012185 0.5587536816725474 0.026271017881387013 1.2072859148618242
Ni 4.875420226024195 1.578112657236505 11.863038589278883 -0.17679291002476002 0.12367931802923215 -0.7494693724259867
Ni 2.0660652758071714 5.269009753153658 12.613601545874008 -1.794523048686045 -1.3992665883706161 0.8588183898754757
P 3.4251194353898917 0.8876603955332831 8.108475999141135 0.22453546751636166 -1.163681547908312 -0.07585937033247579
P 4.457093216573562 9.00448055553363 3.8257288589044016 -0.67262449825179 -0.4032052828488604 0.6300984519641213
P 9.162689470505807 7.88342409502292 4.797465252296058 1.112061509739175 -0.557901360974581 -0.6550564074610395
P 8.605074252187338 6.133739658532334 12.19492774928803 0.8858368274458486 1.1813002894313398 -0.009285796177300137
P 3.7774181742711215 4.040051631437936 11.36147619398595 -0.6475446724650268 -0.010608114533149473 -1.3288530716440599
P 1.0498864926812799 9.187131027804817 11.830608905912948 0.5562887650718226 0.32943493383492944 -0.5797092008782919
P 5.155060124308254 2.553592502158483 1.1783290494869598 -1.0758423795061407 0.1734993268751528 0.8139837500592886
P 8.520985307609246 4.536123692804111 5.396912246793897 0.42145497308766766 2.484085203233438 -1.386082485580174
Ni 7.453703972219135 8.101927733260156 6.127281094923696 -0.46453946298196774 0.7345209786462705 1.5217056062348437
Ni 0.161340171612906 1.0785912198307797 9.756104218380058 0.48060500108526266 3.117754146157637 0.35106202518640184
Ni 5.487383924193699 8.683179962723639 13.193044008873844 -0.8333091898607777 -0.1697164627939529 0.018775737945606375
Ni 4.410891922488865 8.36097309953328 6.990440748153538 -0.6260584775667928 0.902107539581414 1.294908339267499
Ni 3.8494944124809156 7.432859753470756 9.271204251366107 -0.5760052696641434 0.36409520422127617 -1.685620117635039
Ni 8.946451508219484 1.600279290927662 7.542014472191476 -3.3232372250282385 -1.5390849780535558 -1.7561732452632528
Ni 1.8604528713477722 7.413735598913679 2.655422151815055 -0.30057970016613395 0.21534994436235166 0.7668001503949503
Ni 6.8668754056193295 0.23503012595916495 10.916693487554232 -2.2616102177905306 1.3055146540284355 0.059437220220710546
Ni 0.5693689902923784 6.9957045144852055 0.7824470282014525 -1.4074619796972148 -1.011678443233722 -0.8511495604763083
Ni 6.985892750469219 1.8160178797390911 9.083691361074557 0.4513070234520937 1.8915485115731743 -0.4888710977487967
Ni 7.583910981969443 6.507261770096587 10.02596286991604 2.1559275934490354 -1.5612067496532598 2.967420715875986
Ni 2.806099774973266 7.525169865070724 13.209705512387133 -0.5404656819966369 0.8020512602877606 0.25280166145090655
Ni 5.631184989649471 7.407604402360805 2.9294219041298875 0.16827767346489728 -2.2468510572034854 -0.36619862371752415
Ni 9.060641576145393 4.337890918584821 10.987047812041334 0.5847956142622638 0.020577052820403268 0.49174559108311444
Ni 6.073685374347781 1.5790744135585242 6.168238042756307 0.2988940849335949 -2.2378840778181845 -0.3261197534187674
Ni 1.849993771345812 3.567598085902888 10.092054024552654 -1.2073846452232173 -1.4007164334432651 0.6400092833199299
Ni 5.210518322992387 7.355466112519027 5.235995617868956 -0.14817833161186095 -0.8441954977559784 -0.5873417777228852
Ni 6.738166516293706 6.334645005608005 13.457488157269998 0.22963807885024967 -0.28395777533873673 1.1167308901903865
Ni 4.987474085196388 3.660943935080417 6.028002873817559 -0.9580809696232403 -0.22843094591602595 -1.0746915537311492
Ni 0.27235181984768 2.299198707327431 3.5512824447592473 0.03608311887580237 1.10470532648442 -0.6348742760862098
Ni 7.200549363418377 8.922648039249506 3.9701596897979585 -0.0029683385997045656 -0.20540260334165272 -0.4766961529491597
Ni 7.182442451124975 3.870042706207136 3.7591096630563734 0.8728360443108065 -0.761156836066244 1.5044568464567252
Ni 2.922481537594546 2.6987344778709175 1.6412528845427674 -0.018186955321671906 -0.10435953465469767 -0.78231547242173
Ni 0.6856508782186794 1.5948694116163031 0.7859583635425171 0.16352036128557 -0.13978188001804961 0.5401844033107922
P 5.63087981697037 3.2857387499526305 7.959904067468729 -0.46772171736469126 0.19959319574872722 1.1444867201474163
P 5.61775739176897 5.0761406199610155 4.566668703685167 -1.4162798350991608 2.2277950690132986 -0.46716764463343413
P 1.596349036727102 7.240822909402936 8.322787674486339 2.1016827160625415 -1.437506348578105 -0.12039524796132169
P 6.704125891088387 2.648371738162098 10.984043248300717 0.30428851647628885 0.19544137836388276 0.06526822508019083
P 7.903214080879856 6.133184799115785 2.5830509133487958 0.03794485467488949 1.3610293992662883 -0.7813590220457317
P 4.898049242562477 6.512181523589994 0.8709896443630502 -0.19448081422282637 0.8907707744123562 0.19858120954444508
P 3.024529431954961 4.222970285760455 7.189078569746909 0.15006680688382543 0.5140702227222436 0.5807453554522902
P 1.6942077424925677 2.264298050026461 5.385095590752778 -1.7798980996840186 -3.160678970545621 0.08518527571909201
Ni 1.0239190719867584 5.810358342910281 4.414117505230406 -0.48771230155400525 -0.17210296074825845 0.09090418048074021
Ni 7.520009672496814 2.608468098455239 1.5266670168997198 1.776328122944573 -2.35965049509542 0.885283783155856
Ni 4.856776949628129 5.637565872939791 7.506931636048739 -1.5607948589268215 0.10962695370122409 0.438173057173297
Ni 2.5324893490157128 2.8422396183045304 12.761010122303048 -0.9819631755574765 0.625351167087123 -0.2973861329295007
Ni 2.750752548172443 6.491559248608233 6.513295866251563 -0.43979696592996514 -0.9312761907255702 0.8309579160197819
Ni 7.302634248406562 8.220445704635152 1.6223044354675984 3.4988016619625357 -2.312828392535559 -1.2530029572829646
Ni 9.472375006196028 5.3203250015275545 8.843867249756403 0.5495766431589696 1.3096129924675253 0.4449170607653499
Ni 2.6157922427536935 1.438768962427014 10.761854418771899 -0.23805304238682226 0.297496690365436 1.7029609229063316
Ni 4.123114086095412 2.6442750261365737 9.552161015998777 0.833977419572396 0.6215726738812972 -0.7771400988683778
Ni 4.739775593991702 1.8418743285503028 3.425746426530593 0.8423782420415815 0.5206203651359356 0.6463593939076738
Ni 8.704421830720545 8.478418342702948 10.494648920012716 1.1500593291391872 -2.1548441305768695 1.433553277467628
Ni 3.390449969512484 0.8845226655326951 13.590780185376321 -0.309015489638313 -0.7021163370633198 0.15263970981732422
Ni 4.304608601248788 4.488951394740452 13.377429341587444 1.4965653595237904 -0.2385348671192473 0.7370928531385047
Ni 3.606928370879313 6.30955611232302 11.306375879625492 0.41497116513553695 -0.8014113127109166 0.6204298185261057
Ni 8.724822161935686 2.2277328144758415 12.138243311293325 -0.31525761389328283 -0.7283428748600166 0.3962576478864337
Ni 8.913011980715428 7.83435602728605 8.29694972098901 -2.01525019819991 1.6895099396077484 1.0919287435450422
Ni 1.2235389947474218 9.198422416931603 6.85474063017939 1.8737968440167085 -1.8926607708007468 0.940607238318509
Ni 0.017159952222490824 6.525664607412148 6.613534918914027 0.5775947256384504 -1.5876937402001947 -2.0451017343437035
Ni 6.41225134266941 7.315839902520443 8.512451569782712 -1.6872823358288105 0.8451748309501123 -3.9377213674938694
Ni 2.4734338117809496 1.0530491913556126 3.305204143050885 0.08147748785020162 -0.4670118357818602 0.30737255471825126
Ni 5.884321103136344 0.48173449404253366 1.8894553730508201 -0.878713586137506 2.653901681940365 -0.1083840824330585
Ni 1.7573969823806255 2.0689320494593444 7.716817382781264 2.693728327019 1.6050314601476938 0.359883994353406
Ni 0.6991811250912415 4.0982933748617585 6.841895634686265 1.3876506013982426 -0.6607709413473136 -0.24624020618330492
Ni 5.173971582755653 5.456533740633541 9.836393300720479 0.3057234491506025 -2.09831637069347 0.07526621683316716
P 1.6018051543231733 8.86780943358052 1.0825436684080012 1.1057756767304634 0.5461177380760917 -0.33438867829577895
P 0.5166222046237844 3.643909750992344 0.12229194017322748 0.550409166362594 0.3699958859764273 -0.5498059855609564
P 5.658521063571482 7.378797950984938 10.47560522007104 -0.5911842913974269 2.1180238764247266 2.2430807915277753
P 2.3216427707268625 4.272001362869556 2.9254694555526655 -1.518222789892566 1.5058850942628195 -0.3731236329721316
P 8.963171271971511 3.2390380823930385 8.779509106030815 0.8428063307179356 0.3759441331400622 1.0271186890481925
P 7.211304388442497 0.9605171359890233 0.026104286017270474 0.44207547755149673 -0.8761741075451038 -0.08339450236725637
P 7.204433379334225 0.025371871587424995 8.07635796181416 0.260936374742899 -0.621804330276129 -1.4656442444649016
P 7.422659587863184 1.753771900859168 4.106130764120522 -0.23898840971689808 -0.09063241487659231 0.38090944756513756
