# total energy = -340881.3329143831 ev
CRYSTAL
PRIMVEC
9.13682756301672 0.00000000000000 0.00000000000000

0.00000000000000 9.13682756301672 0.00000000000000

0.00000000000000 0.00000000000000 13.37267070315674

PRIMCOORD
 96 1
Ni 0.021165461263983113 7.739176265872169 11.337336659646095 -0.053543223333778756 0.15324083373643285 -0.12114035365746234
Ni 5.156898623389675 5.1500003185097665 11.8566246047158 0.3758523447572043 1.8780795305524622 -1.2515482271143092
Ni 2.5340260556337597 2.685779626164084 7.970967532981974 -1.3103069332107562 -0.21657996011471087 0.4962632764478099
Ni 2.4410862447219377 2.465307974836688 12.794797723114371 0.12440462623103092 0.47606083335800586 -0.307118015505284
Ni 2.335126454401017 6.975054232214422 8.43660402605854 1.5429886839833362 -1.3334360630290518 -1.0076369261744968
Ni 8.39950393736335 5.208539973298603 6.135782704772891 0.25137649896860575 1.024880543746293 1.316386563745933
Ni 4.675497447876295 5.571929882813447 6.874730037191418 0.7350498545665469 -0.19270726726217133 1.0243704368790938
Ni 3.01139789015106 6.826882298125057 12.653796371369047 1.3029996009160656 0.9241845739861116 0.43261047548385495
Ni 1.221484215609486 8.818080285917462 9.180712752419664 -0.059177538801420675 1.5099919173423413 0.928568304876104
Ni 5.436485549648204 0.7823591416581402 1.6980748513622403 0.16495786506304494 -0.462102571405701 0.020115539802952456
Ni 2.8015615062146746 1.6435599691556548 5.857938171548267 -0.028788384986602033 -0.3735848888792663 0.19576610869315314
Ni 3.4554751246916906 4.483413920074562 0.3567748462922567 -0.4332409099790022 -0.033425112427665014 0.2640687497242936
Ni 0.5980090247840278 1.2611289108067332 6.780839996203424 -0.2813902717218767 -1.4888003708663908 0.667085827821748
Ni 8.699127926670409 5.562701686881384 2.2446563280044787 -0.7040451786549166 -1.678094498681955 -1.657655771211629
Ni 5.7764760435372935 0.5175300194287866 5.905692714972543 0.11024504690119724 0.8350246298899877 -0.38299846888368233
Ni 1.6006260160024253 8.779733020247296 0.12326037348662387 0.5166570096128135 -0.49173633511173376 0.6364627036192523
Ni 6.822341294780269 1.9832854950427345 3.4124516306274373 -0.07088017195032954 -0.9827185656662624 0.5422230310073758
Ni 4.866575924635924 2.8613529063923155 6.818015920568152 -0.7312988721645469 1.4126065000126318 -0.44213744113768366
Ni 3.6759650496743976 0.5511407536423365 3.7649148079490597 0.35448467771470565 -1.0090890852399912 -0.7435720331049452
Ni 7.008421926812336 6.511013029246508 12.782374378551179 1.563986883501558 -0.17320365001160493 -0.15975883736060872
Ni 5.7914969882029474 4.248990332917206 0.7764896435722423 2.479585001370239 0.5148415536706296 0.6943770594375331
Ni 1.1674581536824702 5.031248969471136 12.751937778265152 0.7105474985498086 0.7710054467255496 0.08032846184742294
Ni 5.795508055543716 8.069664458999531 3.8966093870444825 -0.8362597878486694 0.6462331527424547 -1.2021539929518974
Ni 6.578059070582621 1.534786035916838 12.802647171753218 -0.864091722459273 0.8476909125037466 -1.286074800136269
P 5.294517521536929 6.448288707391448 8.892317924301226 0.27460435914829484 -0.3427643039539839 0.4806834197316819
P 2.6548697382055018 4.250123299546489 11.177841455043257 0.4992475558871144 -0.8257025811581133 0.8958623300026507
P 0.42635727098553955 2.209138737859224 0.058698635590042354 -0.9799245478608929 -0.8833605979912141 -0.5480260108423982
P 6.685279743120002 4.170934414256205 7.190271293957136 -0.46096665802904485 -0.6239216337294481 -1.1621512273067147
P 4.809863635378188 2.4677200973377422 0.3948544029121153 -1.8340799850430605 -1.5751225884034035 -0.1590193880914229
P 2.8270167080629185 8.242222586101446 10.726432829991849 -1.9260817694633539 1.688035669055067 0.19059202069138145
P 2.8397534458146962 4.613166009610423 2.6457831631020996 -0.3217797312825168 -0.47431094054643475 0.2528134885254485
P 6.942125105343973 8.98765980720368 11.473778734391319 0.8206634760723093 -1.159567011519306 0.5328143360989662
Ni 8.131392866640141 4.323903182864712 13.168002412896762 -0.42275826528012356 -0.6118004249858818 -0.16262844559891992
Ni 1.8877051409384706 6.200863414480306 1.3536886296880861 -0.5579553541409681 0.4512152350692358 0.755692213407247
Ni 4.6492564788496775 2.922752388237326 2.7026973762510216 -0.3300846516037864 1.045835034510773 0.23498597342572433
Ni 1.1351137837819738 3.481140473576011 5.799125325612532 -0.0344970053356051 -0.4068845314726605 0.8096370430548187
Ni 1.070845338053134 3.571101678672138 1.567678615476665 0.30662333525705254 0.8517370575486621 -0.005606547553500022
Ni 7.750204416852368 2.4395329840205013 1.2718811295917343 0.22882021093464464 -0.14037966150304856 0.14818527359039638
Ni 1.6366433906204356 8.742975562589189 4.94910523411706 -0.9854357074871094 0.11581585612075537 -1.1457936118842975
Ni 3.11662673425954 1.5284724880068823 1.5016303157205324 -1.013217505586068 -0.7812502643820093 0.017005790529377167
Ni 2.9219300737483307 1.5543114366166575 10.390030368323076 -1.335173614545449 -0.0954498908698937 -0.18908098336349372
Ni 0.6630851660776145 3.26118962142498 11.35851948088262 -0.27971802622577635 -0.4578260555175341 -1.1470783921339922
Ni 6.652917099564195 7.351153468998078 6.206082370437132 0.4263264422473561 -0.38811753527780257 0.43012370450625925
Ni 6.539181868908437 1.8961110223815374 7.955669742438357 0.4141625531913125 -1.1577746955055739 0.8831500246423049
Ni 8.508597659570112 5.110099792138165 10.840502468539796 -0.7560969050448334 0.5435546053346059 1.2269317141172096
Ni 3.4018053990432398 4.293057252699718 5.162465692480175 0.33138768668592605 -1.0226745372339097 -0.8596393431148744
Ni 3.351498025972016 4.77892633693664 9.119305961112529 0.9095035749351691 -0.014987988768399994 -0.15222062000203462
Ni 7.909249175851786 8.748539890631394 4.480512977293938 1.3007180039707404 0.625350909976807 -0.019308470520624812
Ni 0.7830361805874134 0.9407277754110517 11.585587008094528 -0.359350233337123 -0.757002190467922 -0.47937447111227116
Ni 6.664283313167646 6.876248577947764 1.7527962258738403 0.43376130125884654 0.8441597594220366 0.09399027560523167
Ni 7.383781080555894 6.1403684785731905 4.1777559697838065 0.01749841389507954 0.5510421719609027 -0.5316455126018457
Ni 8.35148990803366 0.10784471786625162 0.16359581285462726 -0.17644144022261227 -0.5867537664298991 0.00010515811929659308
Ni 3.6129666229896733 0.0626996524203891 8.578167292704677 0.0060019832197057916 0.43984684533129403 0.5178155486972889
Ni 4.153455662951219 8.007872093565334 6.044366916714008 0.8111719916421062 0.36060493167983054 -0.07112802629507749
Ni 2.1462590899340217 2.7025639785672513 3.6946279338435373 0.5355201650659035 0.05881758435884064 -0.24300627262703955
Ni 7.704565962713107 2.3759954845041023 9.99930763887678 0.1384132818052971 0.2510697663614644 0.1898998797203633
P 7.0869164132008 4.101284377038271 2.6890707114855976 -0.388888352005556 0.28331140000398947 -0.5186971799712937
P 4.3767871413347885 2.347406350770019 9.022540560461346 0.6798732093944033 0.00822804433674712 -0.2588218995030575
P 0.2775082979669014 7.047353949452453 5.03844787598091 -1.0141999241039954 -1.6229438216517404 -0.8112930906010026
P 4.957752327810233 6.191443345167477 0.3550160069685715 -0.5577897750973813 1.5193759296604028 0.025141275152317993
P 0.10632069501331297 6.927359991852673 13.340803579614311 0.1911188397291289 -0.5915375609717877 1.2657671989271684
P 2.43788835504251 8.842521299895944 6.893090492365161 -1.6822581431413415 -0.2276081929044145 1.4525753270960853
P 2.039303385398651 8.79430626035783 2.493441180870761 1.0065866305331117 -0.6401941456372264 -0.5510249455697219
P 4.960475102451574 6.353768225295223 4.822760267613937 0.0550005246055956 -1.229909565798611 -0.18726475609036136
Ni 7.588994229698593 5.407923826397088 8.6924763161372 0.008747150065010742 1.229905709143869 -1.1406902292194614
Ni 5.757800367809437 8.534071135073667 8.259790878317455 0.91681553521555 -1.3132942979738544 -0.5739699844016696
Ni 0.11688378146584519 7.720326990418858 2.496503845500887 -0.3184007875079549 1.496504681489184 -0.09438571127143745
Ni 1.0408948169983805 5.04655315579411 3.905113946226229 1.8686027014102786 1.7151338108234397 0.4298740503892983
Ni 3.190443164888385 7.1625876198437135 3.4882078097675464 -1.4176540897388683 -0.2336225174192944 2.568017066161403
Ni 2.5644425548989442 6.305315628238067 5.861722645563178 -1.8341712592052863 1.5513866782390442 -0.4739391590293128
Ni 4.726499219849339 5.783091106759881 2.5784913411020525 0.500042540984584 -1.638420577131101 0.19053391375993636
Ni 7.94631728565018 0.0019808642357140253 9.427799982707553 0.06067186395876002 0.04560339966141178 0.05658792369737351
Ni 5.822105360848898 4.217166762193073 4.486517700429137 0.09938882091298366 -0.1456329394821879 1.028805589832312
Ni 4.573877650691741 3.0428011668030392 11.588355466874146 -0.6170804424378985 -1.6192817994191209 -0.7851670829379123
Ni 3.7724682233718676 7.880623494807081 1.485436202383911 0.8653896153350903 0.9801580040279377 -1.5749618944558232
Ni 5.474887636284302 0.6966684898081976 10.147757332526874 0.26976142923369667 2.840839650818927 0.040517757608388286
Ni 8.416361384387763 3.7212837148457147 4.430125200139345 -1.057409883832566 0.6408024686451868 -2.6815071023624593
Ni 0.4017819456405211 7.496118376580359 7.245339867919645 -1.3391819643738938 1.2757662191214094 -1.6051898401024292
Ni 7.639794991463214 2.095595380584233 5.6368077549469096 -1.762499958812229 -1.3113356315855869 2.8774231063699154
Ni 5.446188860618353 8.253077137356188 13.114899170562953 0.6979120691739852 0.08106225468965395 0.4095793046960043
Ni 0.6893051204006242 1.2702474648069297 2.441060661604502 -1.4158010956905294 -0.3507167260318412 -0.43071814355714855
Ni 3.9770600682339916 0.7211250363936946 12.354449227939954 -0.1101000366829007 -0.7598460876746204 0.5009802223075049
Ni 4.792832588628323 7.842577744449548 10.810627783154583 0.5301154491105645 -1.9984675794249323 0.3103025838808527
Ni 8.586680988714077 3.2069534124618873 7.716205367463458 -0.23756838944091987 -0.8903961646817569 -0.6943418353242236
Ni 6.9739760865510725 6.985543310362945 10.458150900591477 -0.371846823142237 -0.13786332283909805 -1.1137206426091528
Ni 2.0373481042803725 6.238434049799753 10.691196654138382 -1.49452518916531 -0.33399015730577963 -0.9734939617442009
Ni 0.6564408650065293 4.452997420809377 8.982944290450673 2.798542689822929 0.9131126324426662 0.7576603928772112
Ni 5.851123925482789 3.9667263161556128 9.326127191922597 -0.8187958267359511 0.07588173892997899 0.4775816408779065
P 7.664985225309448 0.07766760348564146 7.19634271593422 -0.3356266644679381 0.1853240874242228 -0.8562686268704285
P 2.040472899338556 4.771744790399412 7.178343165452871 0.8713363198368284 -0.11460203831831231 1.5644982759203379
P 7.309178882748676 8.976211362151329 2.1341847721872687 0.33060864242805643 0.35231080999183845 1.2398957304770453
P 0.2283329778421945 1.7704430948076875 4.5872137643377195 1.4180454116400159 -1.1077752236589955 -0.7992364165467849
P 0.18945212143694792 6.708944126747767 9.25241766217732 -0.444573304272686 -0.15323851974358768 1.089631462870433
P 0.5351577010245573 1.8490106758173963 9.426596662505323 1.1863100839411052 0.02833175706515766 -0.35535705301732995
P 4.545937231721199 2.117085199229986 4.817103657612413 1.8888095153754567 1.6789977272225152 -0.7149124603867236
P 6.734390191768355 3.522073461472685 11.445788976551436 0.43371810672573696 1.4388433222219736 1.3881769062153577
