# total energy = -340866.95241230895 ev
CRYSTAL
PRIMVEC
9.22804136933730 0.00000000000000 0.00000000000000
0.00000000000000 9.22804136933730 0.00000000000000
0.00000000000000 0.00000000000000 13.50617132874221
PRIMCOORD
 96 1
Ni 4.39625737986897 0.843002806543642 7.943708437956749 -2.6301521449292506 0.5394819779271289 -0.1821135509067251
Ni 5.469192525607203 9.220511319950372 10.304709290219423 0.6061414269278916 1.4208114044209272 0.9143848142868704
Ni 3.8281976072610173 4.967980684913412 9.505859893370657 1.305943256925422 2.433704179677725 0.8390463494548712
Ni 7.218017107732652 8.37680995067262 4.230133255750812 -0.5335293598881199 1.124318215619341 -0.15227769849221515
Ni 5.664079531970427 3.1886481979138295 1.5575992625904331 -0.1643351438773815 -0.004700747909779001 -0.5298578245738036
Ni 1.9117733371972718 4.540851560592744 0.16945360145590474 -0.9944597653625905 0.13940547051523733 1.2065238398848188
Ni 4.615561783781184 7.965147023741258 1.368539764372404 -0.45641092033756236 -1.9831376339360811 -1.6165813697688223
Ni 2.249916458281018 7.045111295988359 7.967614602012081 -0.29049763333978357 -0.657906475315325 -0.22343812068712485
Ni 2.4596144710940258 1.9252185935195987 0.9114859473941919 0.1485097468093507 1.8584717836238638 -0.7494413474015286
Ni 5.836016399367539 4.646715651553438 6.287892362315238 1.0106978244880078 -0.8800225347569167 -0.7246942223638357
Ni 2.495179342656309 3.2892984454825442 9.009480777958954 -1.4491130795790979 -1.3825266499081157 0.08153713744354345
Ni 3.208359294347934 0.7335748459935977 10.407639786818505 1.4207293862300823 0.8801780864981743 1.8861628217812292
Ni 7.473560030229476 8.43491892737934 1.4419054619286114 -0.2451073781304424 0.0479454175310271 0.22650030455221637
Ni 1.8871436946960432 0.23919175593709036 6.9124046781983 0.39985307854717583 0.8350840223730134 0.8376787796833832
Ni 6.803834925498617 0.05625321758083143 8.119100284054669 0.5602297519974416 -0.9419555248162874 -0.180469844655715
Ni 6.65554952821415 8.644884553392998 12.75763250849305 -0.5272808078752467 0.37425723235594255 -1.0729696859440359
Ni 5.73113970883683 7.052742886227593 10.633841228874374 0.41570058710239377 -2.0145261755496917 0.9966408321743093
Ni 8.869735010187654 3.7953180957466386 9.99984802325517 0.34313994212584775 0.5869990496714859 0.7108012664318274
Ni 1.4135975221246515 2.164880056764037 3.5163184148107476 -0.1384922146723486 -1.5090575784535303 -2.1665102540608885
Ni 1.0262412562454575 5.936961944261109 10.187542694149883 1.662740641933704 -0.31241037425247487 -1.5448848725647846
Ni 3.1078751515244503 7.563155084198913 10.566890865700653 -0.3755669523063016 -0.8224429365702352 1.3885761985363054
Ni 8.893829426287581 1.03093832931894 7.028328257091025 -1.9157099393107264 -2.847561542923793 -0.8822455105501644
Ni 1.0315473800514545 1.6379496646836131 9.898348795877498 -0.893921661336512 -0.980950418022246 0.583772315204072
Ni 3.004299614831386 8.029614120973774 5.501671540124747 0.7472335411169324 -2.8408013413818236 0.3967530994656135
P 0.6289380845393338 4.14881667772287 1.9180650158249741 1.8687736797705041 -3.101990198455161 1.9268291891523395
P 0.7798211754783886 1.089748637172192 12.428217268967064 -0.816922263862322 -1.4900062182490337 0.9496863178016419
P 5.151249587151853 4.249872959113261 3.5779063631259214 -1.3271643710877272 0.8023636493218569 1.7428996680827984
P 6.174805483349407 4.507888996705749 9.743838161863419 -0.9076238414139529 0.9227475844292689 -0.14364676229009454
P 8.161925778591838 1.6922382322500154 9.15371321945978 -1.2588786993374514 -0.048646557363109764 0.08216757193869074
P 7.644961671225286 8.132552922810119 6.384407524531836 -0.04409904720174341 0.1818343291034094 0.015206275426793165
P 7.1240848743044 4.065515147989416 0.21056544870477073 0.11969102280544547 -0.33980907798040183 0.4787268102259432
P 4.127158464553 6.523191730389077 6.876086798457634 -0.6762800927265062 -0.04319324755802238 -0.3620169815360088
Ni 3.2487135193977177 5.478042217311466 5.054265640432048 2.5664222108704573 -0.6286457786779946 0.5855587176805335
Ni 2.40349875133008 4.750042031128656 7.09907319088914 -0.5074270063741132 -0.6705077090191034 0.03533569918681656
Ni 4.3955099085154306 5.200370451533285 0.8602324826448199 -0.2060183825487807 1.3425652790238296 0.05682137986441827
Ni 0.6239447913368553 7.513738922492626 5.858180309206224 -1.0332191455189754 -0.6563681842939277 0.008433732589649991
Ni 0.6989217049218055 5.944510482127727 12.411334567222593 -0.25876122146845115 0.2891776289767794 0.17448508782718983
Ni 5.922713848336831 6.373642091432573 8.017182103597357 -0.6611188116050356 -0.6217721914866131 1.3239520347980165
Ni 9.232286300778986 7.466177597108088 2.7771116951496713 -0.044360271282930054 -0.36943075750157667 -0.3830074677447468
Ni 2.2861365207828244 2.3963562472851376 11.891738622448266 -0.578283781285675 0.17577835271731662 -0.6183387403250319
Ni 7.354647488726728 3.7494639580214217 8.003608577499545 -1.7815474623619834 1.2512168119168192 1.294258878608958
Ni 2.077010646536724 7.8062955190518055 12.926864636955314 1.1402410574971846 -0.3204586984782481 0.08989579382088389
Ni 1.0822000993055736 0.10305968917870759 1.0212248929394747 -0.4502829530629536 -0.9703204491122258 0.5790191167898028
Ni 1.0938551155959637 2.4693685108556584 5.71421824931847 0.4304180958182265 -0.03391670735210288 1.0484364766893621
Ni 4.175374980877061 2.8917267377716303 10.693363018719701 1.3415435226275347 0.22758299609343385 -0.5394336411876968
Ni 7.035827886338215 1.8518187522102048 13.339072941133518 -0.8759612202033494 0.37005656401103365 0.9048840738852868
Ni 7.613337173341543 2.165332230792722 4.036899914406779 -1.542238950301505 -0.5414105624084096 0.19099054168138077
Ni 6.4468204597483245 6.1836644030950705 0.2357976823095325 -0.3248465431332986 1.427609144069051 0.559001021796663
Ni 5.0953737964643535 8.853336780616772 6.206396760284103 1.6048142019305653 -0.24743834025646416 -1.0677341485767096
Ni 0.2139955116937953 2.898103314380229 7.9757048259089816 3.0635218671766333 1.971607778919611 -1.2468621344925495
Ni 4.196147302072364 6.133528454159449 2.9376602366529023 -0.07587325428954675 0.012724646655520021 0.6612260266068613
Ni 5.569362915023028 6.517830238334669 5.156778106755633 -0.406499637329416 1.656618073975734 -0.9039142537728497
Ni 4.334909360630242 2.846823088310792 5.526023418579784 -0.49727937641715 0.8717358692680921 -0.4207553759174818
Ni 4.079412578340428 2.5524577956368733 3.246032773370514 -0.6358577230454017 -1.853597743361014 -0.9699689793100779
Ni 6.712920261608732 5.071565449647879 2.5911048330273356 2.1875665605105548 0.29230511886216753 -0.36053782588732103
Ni 3.187789990063468 0.8202935194581144 4.671528009274422 -0.27650131906069153 1.2750031157031396 -0.04481201410836799
P 8.284972482642562 7.348704630064012 12.73906107517206 -0.17361862606183648 -1.3900057318939802 1.4191581850882204
P 2.851123355604 2.239867121194529 7.063025692761546 -0.3261611481796641 0.7028727556133701 0.2039357889881391
P 1.9590485932983561 7.287587311860327 1.5296410655555992 -0.5901756476272546 -0.17818002018027376 0.37684144814335097
P 4.585081563031255 1.6573008675030498 12.5014205529946 0.7469622897334167 1.6410896393228316 -0.5926331080288115
P 4.3377423693405746 6.922239924724268 12.761414159859482 0.4642792673420455 -3.450802251265121 -0.3192222549679857
P 7.5741087693427716 8.559460574137145 10.188610378540066 -0.3576471346030873 -1.6513439700609882 -0.2721183595016475
P 6.177260142362267 7.087994004382218 2.6302049672506236 0.5424009513461369 1.1670939160239706 0.5212070908773411
P 8.1186185802935 3.5308424291729366 6.077101749400264 -0.36514652830392597 -1.0867806236851993 -1.4275628642121478
Ni 4.424569010889491 7.920741688516113 8.741586122045911 -0.17888373111551775 -0.14833234069122198 -1.2501076380130405
Ni 3.7571509165090657 3.541916078855018 13.117328643074687 1.5453147610133515 -1.0643125244896703 -0.2538853814333885
Ni 7.951175769059032 6.16243067982968 7.255474650586432 1.642041975933772 -0.14115510621649238 -1.7632471213908987
Ni 2.3324151484125215 4.19074889785235 3.2253684202596102 0.34868863985821885 1.6648008668968424 -0.1189916827455757
Ni 4.82940318718357 0.9354096447281877 1.0619916114399157 0.2440653100191732 1.2617477933551302 0.6071323300862511
Ni 5.802306364127004 1.956520109954281 9.082738507430761 2.619580797171308 2.1645536445551494 1.686340026520199
Ni 9.14158388184134 2.227538457881812 1.168231283685661 -0.22554179729368898 0.15812387286034701 -0.0485236586320003
Ni 4.812931133281475 8.705761942520239 3.5350374967941653 -0.07311163238400957 0.17829597693284777 0.7171714316242294
Ni 9.051739670754056 3.8668723287756857 4.171948609104597 0.6309026930329716 2.1490771461861056 -0.4547301902010298
Ni 5.298805969165583 4.664415034961965 11.839806896655867 -0.34696600074015727 2.4877122584630644 0.08045675989517112
Ni 7.897339375521314 6.259195921968265 4.554375255266985 1.133265654620616 -1.2199902498023698 0.36736436189085114
Ni -0.023441070768685183 3.12043451587221 12.259835043117901 -0.14363982031155906 0.5036066041867585 1.038305044682315
Ni 7.7094195404164 5.162747726738415 12.05421767021274 1.3193124791434763 1.5688015312813821 -1.397183480589342
Ni 4.272620081168537 8.888034216287291 12.634320959654096 -1.2228729706668036 0.8770251426914896 -1.6245206792205569
Ni 6.955340909232289 3.1757658521170087 11.297236820007784 -1.077846297310047 -1.3520945586705035 -0.6626625019430716
Ni 2.0589513695135304 6.901218446411118 3.706012802277216 -0.32505043161398856 0.5170406182044773 -0.9263787534239529
Ni 6.448592243697457 2.01063334473405 6.481193068361504 0.28788179298349126 0.03378146732581924 0.29026289162115815
Ni 0.41716283960679573 8.107286545452169 11.219414901258679 -0.19550796993576008 1.27093331650914 1.0927553532113954
Ni 4.573961773142166 3.4097612979407823 7.7381713490117825 0.004323309965702231 0.24038837538821822 1.1746832983354543
Ni 0.3071230599118164 8.107840227936274 8.991274775077473 -1.3948931418932689 0.24923297026304175 -1.8524728857279518
Ni 8.820180427860342 5.525040632170499 1.1001920116265347 -2.3123205996612044 2.685599013043646 -1.7166913851185468
Ni 8.886068643468722 0.5540839039050267 3.023626824743178 0.10365068151313117 -0.41461326757548594 0.10573147530155985
Ni 7.9624893478175585 6.134054452519347 9.642812333009655 -1.1581667887376699 0.19544574923925695 0.21215637712571847
Ni 7.968967432881575 1.1175804100398223 11.40863589020124 1.3908176862723145 -1.05605414113562 -1.3713256389859736
P 2.2586646415298617 8.98145890743845 8.997784235482257 -0.6300012642646248 -0.9476168368671228 -0.9868618984106745
P 1.0420304350838245 0.22141947100149045 4.868948113002421 -0.6293011528738065 0.47059749625058955 -0.8629504097659783
P 1.1631761626057908 5.367001195124399 5.03820700278475 -0.747582696926235 0.21727158686509676 0.06247317883355692
P 0.45202638002254747 5.183732292885958 8.1069174237961 0.5734724759399608 0.24623969196267267 1.487319158335174
P 6.844761289115309 1.3443779835702436 1.9535329929525396 1.4502808746349538 -0.5058876869114514 0.8955558545058254
P 5.666737207894127 1.2736542742673527 4.632427875051134 -0.5121462662266535 -0.995196129307983 -0.09857275276959153
P 2.9550772419945357 0.6830061019162346 2.4792332871141123 0.48899579625211914 -1.0658125060739645 0.1974722927509825
P 2.417553058384921 4.623811652794334 11.379759503046932 0.3080546683869404 -0.17922491650502034 -0.22535976318986994
