# total energy = -340873.727221162 ev
CRYSTAL
PRIMVEC
9.17733991431606 0.00000000000000 0.00000000000000
0.00000000000000 9.17733991431606 0.00000000000000
0.00000000000000 0.00000000000000 13.43196462433587
PRIMCOORD
 96 1
Ni 5.23404800955667 3.962059525535222 6.246521512059501 0.053223378100514786 0.6193388994547722 -0.7680214243965611
Ni 8.098259075199469 6.3721666368208 9.785803932900976 -1.0975841420586065 1.7112247055770207 -0.45052566520137893
Ni 2.6221403717586735 2.719594543891802 11.332252696427553 -0.4720475984335548 -0.2873482890775245 0.34687729768109293
Ni 3.570921300060701 0.0963969425795231 3.271516093041204 1.6567587133186563 -0.8668173489205523 -0.2908956401091506
Ni 1.2172456516667896 5.075133192280348 0.029668504348053296 -0.21506480902176509 -0.22326842787848 2.0854027479555954
Ni 1.894147886170537 0.19023432506789542 4.897993095746171 -1.1083560358631297 1.2591507220519154 2.055773355124937
Ni 1.6072825963563047 5.355225605266796 4.165158645639959 -0.7923412320888483 -0.8480007304346815 1.8963775575307016
Ni 8.811063063294402 2.786726785077774 11.470077986671017 1.3147809098217098 -1.293732830902159 -0.14819607222367379
Ni 6.009661711756427 8.819616344057946 3.9798910969124393 -1.6874147476416166 0.2752988141121581 -1.7282937452441653
Ni 2.086945442265533 2.477533027347551 2.950088941257543 -0.6848020141545884 -0.5536171317769304 0.36362469234276085
Ni 6.594974094307202 2.0787225457374907 4.32937704763007 1.0913826412335847 -0.6678041940450112 0.5482381268532042
Ni 5.461884649294597 6.512258730013398 6.352446368897298 0.8238027930322392 -0.8588173614342112 -0.25386686949062726
Ni 8.57639848268944 7.809833637606479 3.8291982584301727 2.00606930303159 -0.9012503337874413 -2.1094934703562123
Ni 1.3229961390469611 2.5131319287228604 13.419956186966767 1.177830071494552 0.9115460592864947 0.2606671802419123
Ni 5.513094205797361 5.621074786767169 10.709923513490775 0.4619655316072044 0.054525384741389966 -0.45751700891754754
Ni 5.912583810558176 8.953890003769764 6.551091725960674 -1.5928066359467279 0.9809475898087686 0.16829335719418112
Ni 8.893851846307205 4.258597731577754 9.28620239837922 0.23869761794935665 -0.926798871680507 -1.5016702848505235
Ni 7.8553807754063385 6.31209176999874 5.578872789351763 0.533115926499785 0.7204141069312431 1.9448343674805089
Ni 7.818120775513647 0.4525759272680259 7.832648504535847 -1.1651187945754709 -1.7893996114165505 0.3379576265939599
Ni 2.0591839891435146 2.959205710689415 5.5719952908494035 0.6182904035855996 -0.2651347290949627 -0.5790072897152608
Ni 2.758221967425877 1.2876358485084032 9.227155393623164 -0.6870499296485006 0.050955150891628366 0.11613724401591612
Ni 5.10830009858877 4.530990356409037 1.5350716152834816 1.1311686628822712 -0.9490666819397718 0.1865134797466336
Ni 8.810888693836775 8.441023542192616 11.578702816900051 1.3248413793815055 -0.4866905451577102 0.8204891552779741
Ni 0.966896997215371 6.360649075277616 8.386126530528056 0.5755720387814669 -0.796237481819461 0.053362989002172616
P 6.29289277498014 6.687224714731178 4.188556273651392 -0.08372154668937194 -0.24985903388281486 -0.014215372268433581
P 3.75646875765441 3.438060950689639 4.037232034185723 0.5782434149660428 0.6330300237886195 1.7157735012899678
P 4.340331120504927 1.3440397793804446 10.919542215842746 0.8664766777516819 -0.6511838118795108 0.2347841418275634
P 1.049557297469923 7.077830654492947 12.733301193377805 0.6858183712342447 0.41239157733381876 0.03662073654682725
P 5.613631964128506 0.0006323187173907671 1.5568586201468444 0.866353007689624 -0.2294575874083274 1.6089354231877904
P 8.534880197094726 1.4762026509210024 13.398411463876105 -1.7527706473396074 0.5656856329056903 -0.720559631370172
P 9.051234047824392 0.9712562336560184 3.9793542225297487 -0.5913046190253752 0.32846999881849887 0.583324429033376
P 4.411216893699793 7.929726405734098 7.566225739293282 -2.0638471332720068 0.18191223352919636 2.2152964223256557
Ni 8.422099867370267 1.828098571089821 6.213224287524854 2.579533551441435 0.3651347012293841 -1.132676100665733
Ni 6.970134571059265 2.9673827205180827 8.65359734798435 -0.22640054574955848 -1.1260328843176028 -0.04207610323444366
Ni 6.533449207784883 2.099472511194973 11.93589865084671 -0.4936695475787046 -0.04648683070762962 -0.7501789968985015
Ni 3.9737881658955327 5.822095239390208 4.589540867077852 -0.40512718246192164 -2.712304033138658 1.1578448866218767
Ni 2.718328070989046 0.22225222842396086 12.109319171529531 -0.6703902096046326 0.14839584693930574 -1.8141606204113143
Ni 8.230688089596404 0.16728638671033938 1.917748333393209 -0.6960264221154981 0.29697321376179825 -0.3288965448329561
Ni 0.9809199725444434 7.405865490986642 5.939225628215438 -0.6058871448252404 -1.4727464027273216 -0.562815767557063
Ni 7.60115928352765 4.005615180582197 5.846639117152034 0.04285386194073265 0.22179749975990834 0.7006842326024836
Ni 0.33676340444885255 1.8510419207774391 8.708386067038385 0.23969006376961302 0.47674243280606277 -0.3081945363989144
Ni 2.1828486439597787 8.387804148257215 7.595909845119123 1.1314257731983999 0.15182646988740947 1.2560733686781722
Ni 5.404728176552801 4.140852460980896 12.518456913700984 -0.2012258462561438 0.15153670656113255 0.555515634351224
Ni 5.266581679413713 1.0104985389617211 8.825754148966379 0.6378223029709403 -0.16952208739495966 -0.10168841558043777
Ni 6.9910864379939985 8.930506141768143 12.914122320935865 -0.4547574438945394 1.1316733704328317 0.11941694320845238
Ni 0.20948930185973244 8.593404093477902 9.359043862701458 0.6012864128284354 -1.5617227700577296 -1.8670888358689133
Ni 3.021483139081487 4.624011873382518 2.348229814912058 -0.698227543531875 0.5125656131522592 -0.18314764859819424
Ni 3.1115679072949525 8.214389133978319 0.7419961885034714 -0.6585291965009884 -0.516982254162716 0.5369813229924624
Ni 3.0495749764390068 5.680130968863099 6.783732703123189 -0.10938835532785678 -0.023165125262553654 0.7296664787674466
Ni 3.6519847431769947 6.107969376497935 9.490811190893401 -0.9316004068342085 -1.1335880709570414 -1.6151664916991668
Ni 5.989893721665575 4.516425918027337 3.9296827881900422 -0.6829981281766302 0.45194825658051846 0.503287530284443
Ni 8.415721616157109 5.373864782553017 3.4795636348065666 -1.3219365470298847 -0.41001047869615187 -0.6416236789949014
Ni 4.751558542965927 3.297078655529161 9.954455907784723 0.08111393386319579 -1.0838331110211012 1.891225323905801
Ni 8.974236166272744 3.223320374953405 4.229027424766364 1.152874687100795 -0.9848060443229104 -0.4660386732353135
Ni 8.94617186093485 2.4884081750994826 1.9136791008926128 -0.9505340105139178 -0.3832882322099592 0.1679650273204849
Ni 7.72587015508967 8.857069068088014 5.380938676128703 1.9369824755362575 1.3924853037827243 2.446625001504451
P 6.3959451244370475 1.9617940583895117 6.575308890422949 -1.6592123170654716 0.2709150832221657 1.3978295988137732
P 1.8424152212948948 4.140008145712391 9.806798015599135 0.08984617152987108 1.2869116942152674 1.8134332553269865
P 0.863856578300301 0.9066991540389849 10.65751172546438 0.9049666062967641 1.2839685524265436 0.8284156092139022
P 8.251841858008387 7.260055915051888 7.698691463049717 -0.29782682001134514 0.44144709993887843 -0.5736619662429475
P 6.809402640487684 8.169199912433585 10.69530951747375 0.4365910573981578 0.497533401409485 1.2839001610824532
P 4.071728737042038 7.2522643534979725 11.844561175740301 -0.8875378692973553 -0.8496647484006657 -0.6015563786603704
P 2.433133057032072 7.300711530698347 3.582560002490236 0.5070693659243783 1.0045467172849474 0.979726572917474
P 2.83242993765551 1.000788913373921 1.3231925341202868 0.006004554322867078 2.1579875613018573 -0.5737671243622442
Ni 6.3139088832939985 2.132198905189392 0.8629214073670337 1.643055761910267 -0.3205800545474608 -0.3168398707787382
Ni 3.65110371854899 7.940610730825904 5.577300711031167 -0.25040822151806547 0.38219782735925795 -0.6549507351211108
Ni 0.8344294379909615 6.640438636048186 2.3177390209112008 0.4976719838698783 0.46450346753770966 -1.877195328175296
Ni 4.045362239581027 8.400707488121531 9.958566438314756 -0.452531382777498 0.8457430447487563 0.2613472370280725
Ni 8.401404965952036 7.221492732896938 0.4043545126285768 2.1088054431502523 0.06491752660899143 0.03090286022644355
Ni 4.722714163738653 0.8086108277204905 13.20336637724571 -0.6621922471748725 0.4510571122248167 -0.4157674357845872
Ni 4.531375804683789 1.5042302468993973 5.171910994464686 -1.3136167143102797 0.3679289761450696 0.0946479637938886
Ni 1.9772028120397163 7.263167033269529 10.779527212305098 -0.7661172653953128 0.42813238510784324 -0.050653560490809546
Ni 3.909702801548076 2.567434248763516 7.424813944626651 -0.7022711174736294 -0.8476047805478435 0.5889296910352955
Ni 7.198925654144197 6.29272758286239 12.208138014102081 -0.35134613208572396 0.08186700997913643 -1.6670258995726193
Ni 1.802640630276439 3.7326443833387866 7.806697740571175 -0.27601203812909886 0.04645983412443611 -0.8075469932950092
Ni 8.285862256925189 4.058807042497972 0.1277504065286351 -1.0362571610143507 -0.06406212058723161 -0.20716817988250774
Ni 1.0365530068669808 0.19999075508905836 0.3431581748737856 -1.1253751961289458 -1.8137813826950246 -0.5666652232101402
Ni 5.242179132685961 7.4535693036571375 0.25152794262536216 1.965485210961641 -0.209714086232813 -0.08012894424210716
Ni 4.4975573072442385 6.884656827463073 2.8317131874112693 0.6795230251438361 1.4511979871325846 -3.51537062206481
Ni 7.659986032126705 1.0389574699142434 10.09078988029849 -0.5519978510059526 -0.5733423781199996 0.6342191590007141
Ni 2.6785443026307147 5.121148374413836 11.671746359489232 0.9313165570452026 -0.1615411260720121 -1.6521644090797547
Ni 1.3369089862975327 0.11737267059793145 2.687521576496487 -0.8735045311327407 -1.2546656896973682 -0.7981105304724577
Ni 4.450771228561247 2.1529764026664995 2.3923269330116614 0.9503946567225761 0.09914482322297764 0.0207940539272158
Ni 0.05464830575394487 5.1737712412573575 11.333193373764747 1.9540296608265315 0.7391173397677012 1.7664604861218738
Ni 3.5198861130155623 6.034091790503803 0.30899460945493407 -0.28005278385737575 0.3958254454450215 0.08457103917386079
Ni 6.960388236111965 5.159032433418032 7.814407623800202 -0.16724126178058293 1.1205834311672571 0.18983585925164725
Ni 7.047756511722415 7.302546998673357 2.1214577465996367 -1.9793640258262624 -0.5749716861933065 0.9214666608343162
Ni 5.957561953285782 7.369550757101078 8.997280466698989 0.5444051262603592 -0.3807035022019185 -1.6773589060675111
P 6.636951246895668 5.596250082405167 0.6409601006171118 0.9011369481380287 0.46962639058657185 0.550545177719826
P 0.5647808377823182 4.597571957202506 6.142154967532487 -0.018615043998026003 0.5413462848293774 -0.4785586600791952
P 3.4231385960528127 4.005110426889069 0.1098114602748799 -1.0484896985248007 -2.371020684605575 -0.5637447071292355
P 0.8583795418628728 4.284826568940639 2.211546185749052 -0.5017278991068069 1.0876123755578753 -0.05161001086680789
P 6.831006098553546 3.1761029612962863 2.5799044181857305 0.7551162862991189 0.8893558963427006 -0.8889404060718367
P 7.295599752387947 4.199229519926073 10.810958683643147 -1.1414317353711763 0.09791249347777331 -0.06428349256941833
P 4.865118946579763 4.475256371347874 8.344353114884814 -0.08481246576070556 2.155497447890152 -1.6951375702071707
P 1.852345103039696 1.3009246366474718 7.133998727730199 0.2454778740959837 0.7613175300138243 -0.477372610190894
