# total energy = -381169.3828401884 ev
CRYSTAL
PRIMVEC
9.23203117855519 0.00000000000000 0.00000000000000
0.00000000000000 9.23203117855519 0.00000000000000
0.00000000000000 0.00000000000000 13.51201081782389
PRIMCOORD
 96 1
Ni 3.8311360855885828 7.650953700683359 11.714953930236497 0.48212889392895675 -0.5363148930530569 -0.7636886013491622
Ni 0.6026651632476645 2.642188922011941 0.4704033886290024 1.6972798133611544 0.24563394005787376 0.10644495642881668
Ni 1.8739177331427324 0.9701664835095591 4.307426740640016 -0.1925619999335587 -0.8055860129138965 -0.6435880018101238
Ni 5.106808952116959 4.096538524214986 8.705870232425504 -1.0544441163360228 0.22538058912547637 0.3370664822382582
Ni 4.219758447282559 4.126265665316176 1.1984709271667005 1.224035109295705 1.876055558143898 0.16149124667068315
Ni 2.8323318406827838 5.226123725903226 12.80279280914664 -2.2085130808552353 1.250696677747291 -0.9969586205250442
Ni 5.632222323033399 1.7806649839926942 9.328503356383653 0.24564936667684145 -0.44769719461364826 1.319268256169102
Ni 0.2605029995635453 6.436138385129842 2.137086943373987 0.20441478550708664 0.730205124879736 -0.9583529923377044
Ni 4.238379454612093 8.078498306750818 4.110381032092975 -1.2352250644742533 -0.048638072722677526 -0.383935635985971
Ni 6.189504666335339 8.630592248407147 7.783161929519913 2.8335168919052687 1.3676355917288963 -0.2932176033741079
Ni 3.8210085471451025 9.13618444791233 0.13570070631437436 -0.9486398788149984 -1.0201749107405076 1.4710147647481957
Ni 3.44075040589761 0.8015046554953154 11.738803036946655 2.3043157270788575 1.3497849367007204 -2.574836145965765
Ni 8.68925257590931 8.164116165934805 11.542217083563228 -0.10126161245566431 -0.4591923397374414 0.2198429471366988
Ni 3.316653439847238 2.9731480155947265 11.14028859501548 0.18726835563478714 0.13765480637271776 0.940557101806864
Ni 8.94951277304709 6.5787178780387805 4.53829307301007 -0.38379268265020355 -1.415014595233492 1.5998740843164705
Ni 5.250533216919234 8.306926459628691 1.5829047162154561 1.8494821785307438 -0.40433605401919404 1.2424598916597958
Ni 1.1548901997498437 4.15554043687887 10.68397420950279 0.67577975605132 1.3060296459916412 1.3279765825763774
Ni 4.329508836540618 1.5422754692365035 4.927911570891879 0.01205924515737923 -0.1116115882314207 -1.2357930211625814
Ni 2.8974822862576595 1.7672600744029652 9.054250169256099 -0.09747746282288373 0.16748937323564703 -0.23062306847133832
Ni 6.102391218064895 9.225439727467084 3.684536043005865 1.0962168293974348 0.6009866221998295 -0.13677266087808057
Ni 3.2986048184643724 5.100854291865322 10.31063732219429 0.475413172471678 2.0097233548444096 -1.0817335481795949
Ni 5.341828775412921 5.713611911837155 2.736763698058156 -0.8553975371193849 3.075129626618891 -1.1753049910798532
Ni 4.827004544509855 4.648170864301421 12.138325658112114 1.2542013484664398 -1.6451108446670828 -0.637216036845509
Ni 4.372179285661644 8.986865572082934 9.02067234785885 -1.2929766694624247 0.5858471954552298 1.8201572043143817
P 3.6612944039616893 0.4984124486870462 2.7141442979301975 -0.5013311778890205 -0.428123900467411 0.0638137520218514
Ni 8.523232955281141 4.153703262630691 1.3993313110873482 -0.5423778114176853 2.105917837189812 1.864925766779324
P 6.416686494974498 3.998023517168153 1.8277695777941239 -0.8891388952358881 -0.44663327212550824 0.5326256171269279
Ni 7.392216788726229 2.4951503579378236 0.530659934359859 -1.7163751394297084 -2.25447026431164 -0.6554855245786582
P 6.773790701476094 7.029647219637084 12.316373692448586 -0.4077615347609751 -0.31563916560241767 -0.16122539460380622
P 0.6485548217171323 1.0039095582688295 11.090064497804704 -1.6117433249502304 0.8479012287423398 0.32253743538414775
P 7.352786782625861 5.385717852678467 6.06439310003434 -0.34306949389922853 -0.26336606723031414 1.0240037975682945
Ni 1.7171763040694379 7.617441426709035 4.440046718076917 1.6507204775443765 0.6447465408945993 0.8512400633075856
Ni 1.0527193082694484 2.5436277548081185 7.064687394807757 -0.3129433639378094 -0.8396808977150765 -0.6520294477092576
Ni 2.1803103911757455 3.2094233951608016 4.837029607404818 0.737413469702717 0.8456391721810403 0.3526247416878314
Ni 7.578759215151896 7.301779809152546 2.9646028473328436 -3.159307029898759 0.9755721844294681 -0.5580484280754067
Ni 4.643120943126778 6.358293896382874 0.09310042063197302 1.0745336879970462 1.523967405685827 0.8994474762507476
Ni 4.602546165133072 1.5353514456880895 7.222480352257271 1.5667942710433662 0.17010649914351994 0.46209100144147514
Ni 6.70021141123495 2.841351535358518 4.932113991584196 -1.9932099305704185 0.2976774389176744 -0.6257820839769546
Ni 8.536120871112589 5.551488208458893 10.78669256044508 -1.086863670317309 0.7049293810320827 -0.374684035480716
Ni 8.39952373454948 1.8003199788387916 5.810205733150087 1.5053490192536914 -1.334191710248154 0.8825036493075576
Ni 8.512911544178305 7.042922880787242 6.9660089808051815 -0.42319175327311637 -0.04855656875246476 0.8948943096624266
Ni 4.621176404494004 3.9187203674603195 3.730909459920582 -0.6034980757677736 -1.4192435457131751 0.5600682867189128
Ni 7.8220509385803645 1.3527510966693186 8.184386937275143 0.5055189907181229 -0.400193235495414 0.2958308726272389
Ni 7.074450268011021 3.565650558679599 10.223741749864837 0.09627367232276968 0.05075126241093841 -0.986063056658463
Ni 0.6798467921402641 2.802567771456002 2.903974250736652 -0.6485484311391928 0.4953711036508436 0.7991379432957076
Ni 1.519620064186093 6.769100829525968 11.143923245776826 0.4919281394075657 -1.4989408017345023 3.193205739528733
Ni 8.871825228833888 4.028563077032357 4.9816890769877 0.45247918938332393 -0.7370619999005693 1.419113447893214
Ni 5.339539231626245 1.8845530333130962 2.58714478120833 0.372140700233572 1.0992376185016293 -0.857299382127788
Ni 3.0496815558831942 7.3543562279635015 1.9261507203856871 -0.7647270699160055 0.7344929536218124 -1.1864026436549115
Ni 1.5895157738994816 4.816636973250029 1.3317223755512158 1.724076364728708 -0.6444192394621675 1.0987984740816819
Ni 2.949818672252271 5.702311905406144 3.432226471307943 -1.1177732154119717 -1.1960555933636432 -0.14525678708969178
Ni 7.912423293934262 1.7006232717730299 3.2632313669602357 0.01951467299415994 -0.697407875844057 -0.7151202055221556
Ni 2.798782638582869 2.672959282661092 2.1924994422303734 0.6270879472725717 -1.4893734697610415 0.711126253871414
Ni 0.36735730057208765 2.4486116876610846 9.557464197473184 -0.725528545339673 -0.9299667278855274 -1.1910650821275874
Ni 3.5273468604097733 5.56878903529853 7.598492682264876 -1.9285070910753948 -0.008456615407785436 0.2689934407194206
Ni 8.767512506069183 2.8096764356323733 11.810105708245082 0.6621955896089822 0.7174054020119064 1.027543692400753
P 0.8470204166931689 5.0187538366439295 3.579007461706059 1.645624808189024 -1.5441153413886115 -0.16942232859230177
Ni 9.138123174505886 0.6704319665207008 13.45235576869242 -2.3203036178666814 -0.31205916156064323 -0.08139392699745981
P 3.2136332014782374 7.29302784338735 9.534993433050731 0.10069982641492335 -2.415193265357731 -0.81251924969862
Ni 1.9673828190149218 8.825775856221236 10.246400847727806 0.6022642033606724 0.4152624711237107 -1.6194005843851724
P 6.406974397943923 0.745292662719872 5.790261775721236 -0.5584754883104962 -0.03218789758645424 0.7035371286702464
P 7.306045007658368 5.9369347513519966 8.874770246849812 1.7444032492115182 -0.029976234647116115 -0.5605375130458474
P 5.817961562727451 2.3697886035859406 11.586711782088475 -0.40273065720528706 0.012738273502274836 0.6516455820072777
Ni 7.592256445055604 1.0298700305596826 11.036029418032882 -0.5727327695604588 0.2727248827373948 -0.931019337519758
Ni 6.847877753444123 3.2191539562541727 7.599222935948449 -0.9780306732722897 0.39261465181720767 -1.7069757004926795
Ni 7.010343041984106 5.05572812239246 4.05465741377848 -0.47616084927097996 0.09345317215483906 -1.0457013371463861
Ni 1.8080471891188217 4.102576272749202 8.488326644565737 0.6282721973886599 1.546073750666563 0.8950694017877101
Ni 0.8139762067107185 0.2710007424660805 8.406362823409033 0.19621142376068787 0.7028971810934024 -1.4644322264346714
Ni 0.28810031102124345 8.591633075908073 2.919634545596885 -1.2159345916757576 1.060287462490677 0.3299884923455543
Ni 2.5537645252829964 0.6011935774428415 6.631857450765008 -0.33495457810157797 0.13212024970773376 -0.28509446004634126
Ni 5.879982349658444 5.8809332488924255 10.382601930143947 -0.4668704251079895 0.3187584279576897 0.969843252365491
Ni 5.506555911645386 6.395840568078073 7.575874205340058 2.992429579215498 -0.7851629691728542 -0.0741236185882917
Ni 8.168593701162779 8.726023756967086 5.002822120060599 1.8355077186285225 1.935016095838506 -1.0206513361562937
Ni 6.932129271981223 6.03789624671927 0.9672667024474835 -0.6604603520854303 -0.8874237123169941 -0.5604819772175638
Ni 4.238250206172523 8.202346007953448 6.959036950693499 -2.1743446625036427 -0.9407625329494507 -2.485171494319081
Ni 6.247149470383735 8.46548659888737 10.49804940597764 -0.8660902409465407 -0.9428371560902924 0.36207431713650545
Ni 1.7892230770985338 7.309497787401177 7.237370695698919 0.6667682965813291 1.0896157791411494 0.18757020314592213
Ni 4.959936564608003 4.027686034049558 6.035004774485452 -0.13753782117887925 -0.14964617440663905 1.3299475902598192
Ni 1.701251049908086 5.515224789128 5.832959920936455 -0.06338772022802631 -0.9170500198238594 -0.7077547662960197
Ni 1.6510103350407948 0.44429151102322395 1.6789889293952256 1.621061517027363 1.0583246823373516 -1.0119226980340443
Ni 7.129537799362201 4.519559434897482 12.430050464660166 -0.1221929632916928 0.23149570088427873 0.8210373144719602
Ni 4.154035615761014 6.0844718451216 5.2406743305894326 0.5370833957879654 0.07070507982504597 1.290841625397293
Ni 6.216969959744048 0.09519886136871232 12.877622116439058 0.14212286944640037 0.04493928371485163 0.6512401190387429
Ni 8.226275433336767 7.794364076418106 0.5163779817873307 0.890916555961601 0.05104591083322177 -0.8438558550283725
Ni 0.6916637923295571 6.630509574180917 9.169236966723037 -0.8777733337114237 -0.1543690338036051 -1.8431678062769417
Ni 4.6325133390506075 2.045596589017805 0.20045879055483992 0.25800223181523957 0.33911102347211275 -1.6973178656879415
Ni 1.6951671412168796 9.061552706091826 12.465506081243745 -0.17854203150538284 -2.704027909172795 2.7318901828007016
Ni 0.23362209374232304 4.99330112607996 12.959573012751807 0.3635676138525803 0.6936980310926375 -1.0840418845977977
P 7.409979217135759 0.15859799058740917 1.6422500604473416 -0.6065098660109037 1.0637319693958518 0.5923785688158443
Ni 8.742124419724998 4.248183871956647 8.051158568969122 0.06744157858242579 1.5459056005198148 0.14675676867398596
P 1.2178341898206246 6.986736737699714 0.0888896911113976 0.27899657467871947 -0.023546676971688482 0.07408633759245305
Ni 6.380183042827261 7.658099292985321 5.424139720950186 -2.25461038943393 -2.3643630700797407 0.898922456985213
P 2.5601715550731288 3.2938872504200534 13.5398458838439 1.0524921348159744 -1.4393462300003212 -0.7647913474950376
P 3.241901681618562 3.2420863222465193 7.217764630619231 0.2580210008683169 -0.19189968375921146 -0.8666574263039203
P 0.627239907625695 8.907534726280907 6.231685817792277 0.6415565732023919 0.19649553066000996 -0.10094202433271647
Ni 8.170670908227304 8.552193837776306 9.192856195851387 -0.13740283826291175 -1.7295610419923635 0.2503501145866205
