# total energy = -340891.16578658303 ev
CRYSTAL
PRIMVEC
9.06426112961255 0.00000000000000 0.00000000000000
0.00000000000000 9.06426112961255 0.00000000000000
0.00000000000000 0.00000000000000 13.26646239274692
PRIMCOORD
 96 1
Ni 6.711894962299792 1.7863755046059113 11.473685766117576 -0.6370828537017545 1.2599166536836623 -0.6729561705595958
Ni 4.452600701371244 0.38195436449766945 6.124024153694255 0.410168601540571 -1.8957648636473672 -0.5389654433020267
Ni 2.784577253370244 1.4971258700559125 4.939408624909604 0.11203247781892318 0.08817006937902878 -0.6484008498177349
Ni 3.216380521544004 4.092948951201245 4.956416804354611 0.36447495615819814 0.14013823491620384 -0.3810446875914212
Ni 5.251080522033209 4.5982724407981825 2.8091867221366025 0.057277236454914254 0.07237244022513986 -0.04107800098723248
Ni 7.464255822710107 6.253198031573625 1.9264491564048194 0.36865248457465544 -1.1046582752965686 3.1268093143813696
Ni 4.766622961386604 4.595235913344507 11.472424927404722 1.3428375588486101 1.042810388751836 0.19685291399942872
Ni 5.536894801643078 8.00299924281959 12.42621723555252 1.0106212056138013 -0.5192096008313382 0.8681635785358016
Ni 1.8325579146849513 6.303876315136317 0.49396506406797924 1.0127099698220299 0.7512683733079384 -0.8849446546488823
Ni 2.9464649558259177 1.9267627798373483 0.393703459678131 0.2032120234482371 -0.5193008749935637 -0.06283878970309177
Ni 0.6147390912269869 0.2951441235145524 4.606155628638367 -0.13112677544621287 -1.0507993204945838 -0.008816312740049332
Ni 8.936989766264999 2.5735884487755802 1.417640458431946 -1.420156801556064 -1.51352846974069 0.6489441239157147
Ni 6.847940456485525 0.5631598201153543 4.733380690390751 -0.6643530022716171 -0.13673435144097743 -0.8031010417085136
Ni 0.8838089613885725 7.224968395099395 2.536547345971263 -0.6782937807224254 0.11171314680629148 0.4792937384730068
Ni 7.597101632743161 3.776089577475435 3.889527898162025 0.1311432305064451 -0.42839232363744933 -0.9695637734518593
Ni 7.695213194410585 3.7987139730705834 12.714882225264422 0.0667509802733044 0.2994813248956326 -0.5882576046689353
Ni 8.116973261334575 8.952607488064054 6.879934578734002 -0.8888545312262499 -0.7210748804436936 -0.5760559203964207
Ni 6.832785012000313 0.813178426389967 0.47379980249725495 0.46868228150574764 -0.3071331850139356 -0.27949176914758317
Ni 1.6007666309673438 6.511402572007684 9.428156692945068 1.0300690299257678 0.9064879280372969 -0.6738046346028203
Ni 0.15471696553447015 4.890585795585024 1.4003947953472784 -0.15593534984946045 0.005620688620887095 0.1702821054894358
Ni 6.319040823882585 1.6802239433820376 6.904264868259842 1.0852485033113892 1.3205409522339386 -0.6099885685881237
Ni 3.499131080917031 4.419062935464974 0.8230339974358826 0.42204555548381506 0.05018356283292648 -0.9094269560609628
Ni 6.2702660351416 5.5106265731035196 4.926501117166218 -0.2727822183378915 1.1716218858013112 0.1628397902787776
Ni 5.4566126414723115 2.9888585047836544 9.151364978790092 0.818819737995351 0.1037545540808471 0.8936781778671382
P 0.3044839381063959 5.606671483250232 12.319423018219792 -0.29694261763417895 0.7616052364575722 -0.07661707443410676
P 3.9765094536790957 6.328114149199388 12.688296747587911 -0.44372252623661645 -1.3721411929087337 -0.45762730924316675
P 2.337056556525816 8.436706005815058 1.5105853912975937 0.8710370434288546 -1.5576208320742142 -1.9727732599826218
P 6.473767760104216 7.850239251247056 5.819903692456195 -1.0835657162923273 -1.1785870042652347 0.4215449616983127
P 4.78848595905307 1.1002562639910085 12.42388228190456 0.30375244146716074 -0.6660846402507432 2.348633575159626
P 3.6548369573326838 6.1357524010742885 8.276667412614756 0.10272019927906181 1.293758799044088 0.17845204289473784
P 4.742421384367755 0.6618333659682353 3.7406247496687124 0.07656513815024879 0.4839026979999279 -0.5251771312686826
P -0.060504848973228595 5.488255976817931 3.756703842355505 0.6895768098354124 -0.2608409868156153 -0.6789684381919469
Ni 1.7459579645583276 1.0786470656341032 2.379432883387547 -0.9918169284231046 1.5430853574622005 1.1622586994188564
Ni 1.8215539017632723 6.228425406108264 4.778327641687893 -0.8336992262103449 1.1743397989531066 1.2371595624928047
Ni 5.688041354747689 5.632495562998061 9.399580703540714 0.49834792689098045 0.14792327817826137 -0.7225218973028653
Ni 8.701862834478876 2.3170154753315555 9.913536088941044 -0.38518287812951085 0.10449451757066519 1.2041316855035586
Ni 2.0249377913321633 5.196649634393438 6.947514083461242 0.6961773458710655 -0.04293922256568734 0.637539995843831
Ni 0.5094712954560487 9.32358956455374 8.923248346504483 0.7712306753624784 -1.1205412650754123 1.752586556353259
Ni 1.729025924906189 1.1948962136740813 11.617043399696984 -0.9060192159309944 0.08936434679744609 -0.7247626137079259
Ni 4.054688705284929 6.680034084688835 1.671707163694056 0.1111809284519053 0.8083700034169368 0.4008483525809096
Ni 5.724053663922179 8.016314642310485 8.205851060264509 -0.8097144332599733 -0.5770997882799029 -0.39282188273200735
Ni 5.144928960809335 2.531711562698021 4.74435207197263 1.0395713129892483 1.1679014995269306 0.6806270568412924
Ni 0.6635129735418656 7.37090299809695 7.115268175672195 1.3094461278723577 0.08461654769981557 -0.4826785957848396
Ni 5.016651538348379 5.037145832595426 7.018303243028323 0.8887393458046242 -1.4170611933498758 0.10730987553227325
Ni 8.310458977830589 7.420430120505562 9.340252395652522 -0.8372460630213386 -0.4129646762284694 0.2792326019489256
Ni 4.602532643494384 0.2244093495138057 10.522360749829152 -0.34978958623188144 0.9588011356187165 -1.8678542532800284
Ni 8.37269419423936 7.202806276818088 4.7990630452790235 -0.3854585003884007 0.5273795382366401 0.1481053122820804
Ni 7.416441845641032 6.468737095218275 7.244642373720897 -0.8694925817598703 -0.8096650680792764 -0.4549492481903713
Ni 2.2240524139437965 5.217035157507817 2.7739512201345904 0.20891935824565955 -1.0662166834909186 -0.5548373773372767
Ni 2.4299924251304086 5.138502399720809 11.214816815348131 -0.11590558762108426 0.1993923925918308 1.13361738153308
Ni 1.1219379764363595 2.9132988246229328 3.937578452444655 -0.6903013467062628 1.1468225673694443 -1.0357717367375001
Ni 3.8075334990778273 2.683846120257708 2.7956148040578297 -0.8896700851490098 -0.49397319486205254 -0.5975434008462354
Ni 1.129497570156854 3.3642004908411547 8.23185279952903 -0.8494634310231369 -0.04417849428942714 -0.6332696506032512
Ni 3.8896103829376325 2.6500998763471557 6.823724376648987 -0.7640315865108777 1.029159887847937 0.8618162961615351
Ni 3.899499491749454 6.875631774010837 6.1173247583479515 0.17198828954726508 0.7113905632763942 -0.5408827149293974
Ni 1.0992138739695974 7.734570215914646 11.797666023328782 -0.4933054793710666 -1.3233825354477917 -0.6311690593204807
P 0.09145204906976605 5.549004654413559 8.18088355318645 0.22951646567072087 -0.31008995364941433 -0.5446190420433781
P 8.391529728713206 1.705785159559249 7.8543562386185775 0.17789025685399684 1.471335638422724 0.6402316837433812
P 1.7866927537428627 3.1526497020610345 10.39830636659407 0.9356321537014209 -0.4606262439704905 0.25014648321624666
P 3.917401407334558 5.965607156796828 4.0157450140850095 0.8737600987869726 0.39596325657446646 -0.2847638161797999
P 6.928014138652009 4.191948810452132 10.610609489041819 -0.49784861865705865 -1.5562758880105456 -1.113672820090353
P 6.478870939078603 8.137775740457519 10.436340912410097 0.7869164615288512 -1.1854510783749197 -0.452269387365363
P 2.2575629870668994 8.399071193911588 5.803320626854703 -0.10451020129994905 -0.18672790975028486 1.4761317742597868
P 6.958506312843548 4.036460476301818 1.5164762545577248 0.007082874988710382 -0.8358792645807992 0.8724647770143168
Ni 5.298713213881168 2.905023154279034 0.21751688540701433 0.5018950208122904 0.3813966716142012 0.39986464851140163
Ni 1.3666458321584087 1.0208805299258166 6.9899928364729025 0.7370409168546468 0.45190763315057014 -1.128304968181231
Ni 6.826131844385394 0.8233285859201943 9.109814406110539 0.24462118252264325 0.21101660709432044 1.1504082278381735
Ni 2.736708890734835 1.726351967894743 9.036782748358265 0.5516237554959855 -1.0388313494994303 0.6479077122314003
Ni 6.290551851384366 1.9722019205098167 2.5782438532538126 0.6933632734610382 0.2465058011398658 -0.31026710265722696
Ni 3.9429354307286024 7.027575982088354 10.386485663751268 -0.10318968271631261 -0.6716911878042431 0.005768012832028776
Ni 8.126925819973787 7.337111432881119 -0.0034525770361347055 -0.07842635972870364 -0.07660293336671968 -0.34617230119426834
Ni 7.524660058385617 3.9904502871828376 8.236244434010539 0.1347474029179357 -0.10422583729031083 -0.316595615978416
Ni 3.1754825756604657 8.421931260294187 12.63661051819582 0.058782617355847146 0.405585867265895 0.44242900423617354
Ni 0.2707639805529049 4.649929664554895 10.183720863212484 -1.7768418293561978 0.7545642704503908 1.1989205736162643
Ni 8.453375181896579 2.1390477737629845 5.683192881508969 0.23402309529182277 1.151178530345295 0.3331877160091423
Ni 3.7667987098932922 2.5844021122150886 11.371268680448672 -0.6620999445713823 0.40156234792879875 -0.990965379056087
Ni 1.1594005673797692 3.566233805512739 12.686200184005717 0.2766877240398848 -0.4171643161321138 -0.23359346395357192
Ni 3.15858679305255 8.47706009603525 8.055104241072456 -0.1678925222113367 -0.5181991572889527 0.366356232341311
Ni 5.64064433368718 7.498645629155617 3.5095631389660924 -0.40035084411920085 0.5455474673949186 0.631651655383854
Ni 2.8640980156123286 8.41761667203165 3.7618641261745425 1.3791705889516894 -0.9846520352435494 -0.8909741486724139
Ni 3.542276963542395 4.182603557303655 9.036119244448985 -1.3749647784004577 0.0819953080268846 0.6013285789202805
Ni 7.237993738236506 6.131066178108466 11.425873601900712 0.26203757822687773 0.2850643781393542 -0.2843691518445425
Ni 0.3233956123731101 0.1501721450411177 0.44380525623767675 1.231757160530311 0.10377923667119546 0.7140930498092218
Ni 4.579890119377124 0.19219315286946342 1.4589925237943773 -0.45494976241100354 0.11724898902285613 0.330525852906263
Ni 5.948647924361523 5.481439652504008 0.30420838457030114 -0.9855197825604836 0.8530190095848793 -0.9601620205219852
Ni 8.385112231885735 9.148196113125001 11.256553205379324 -0.35442451390073154 -0.45697502037114845 -0.2724148076961438
Ni -0.17075164334208973 4.711421611557094 5.935442202429401 -0.4155056974827683 -0.09790426594765719 -0.0869765632915599
Ni 8.040896918293676 -0.43907915052320934 2.6124188367123025 -0.3125571842429843 1.199265872770825 0.08949238773487814
P 8.450039533828063 1.6140820304582388 3.4483385876650376 -0.9961965455480392 -0.16741044036859554 -0.8646560796031755
P 1.8507226938406718 3.308727213179973 1.7436773964767012 1.0103324707287888 -0.04209538650815331 -0.1845509567036241
P 4.73467144116509 1.2130338000466345 8.196710659415892 -0.8920141599011542 -1.5691964527269555 1.0908527368720438
P 8.722547478208094 1.8234483323239237 12.554530915057699 -0.32408395393566125 -0.3583451891113764 -0.3262413665982962
P 6.364072072807544 7.886024953895153 1.3779344628772383 -0.814024887709869 0.8897737006064096 -0.6704033222307552
P 1.5569499930238544 3.0011224499920823 6.059986962187602 1.018466412689833 1.0323274869426413 0.5058156960229353
P 6.69831669923828 3.758124212062941 6.098658725555849 -0.08847268822111214 -0.18192637459658345 -0.14062648740653202
P 2.296122353598055 8.523940454215584 10.136558606513319 -0.3415597421229215 1.2247370204587358 0.5532556346724536
