# total energy = -340874.6170400812 ev
CRYSTAL
PRIMVEC
9.17801345670410 0.00000000000000 0.00000000000000
0.00000000000000 9.17801345670410 0.00000000000000
0.00000000000000 0.00000000000000 13.43295042170289
PRIMCOORD
 96 1
Ni 8.933474525469821 2.9062455143992487 2.064268321311814 0.6168428725057958 -0.6784660446342315 0.9452871602926817
Ni 2.4066862386344487 5.040225437384248 4.529792051203757 0.6301732710661148 -1.044299057482221 0.04945079843195999
Ni 6.547034984655271 1.2978445355015393 10.063187031341828 -1.1302988586828082 -0.9438738248849229 -0.7846042684559068
Ni 3.717618621412134 8.367080955269612 7.03458115852684 0.029016441837008095 1.7289465483368158 0.7596668817842788
Ni 5.175123880066428 2.4144324820433316 7.1614414969702755 -0.6275815990795386 -0.8121502963949754 0.8257794571426359
Ni 3.969142081862884 3.5689164463994336 2.743250418935537 0.06598273464871217 -0.4864424337026461 0.26259087962718647
Ni 8.56695055564312 7.00656894346967 12.702936991839012 0.06037361599205087 -0.5313994580293105 0.04268391202177165
Ni 3.4030238520682055 2.800689180932944 5.2928374102381905 0.00026430940498018996 -0.30439238904400484 -0.21357794006359346
Ni 6.0193083854048535 7.481219090547612 6.719188819808229 0.5115073470910739 -0.5188581310291903 0.9539229815908089
Ni 6.831562581715432 6.275200580289998 8.730920356142406 1.0044592997774635 -0.011207181569729085 0.2188888107535456
Ni 3.9831293744637577 6.115622459258901 2.925293563653746 -2.700845140569439 1.7767868077485465 0.5796636923523372
Ni 1.2752023761535372 0.8883298325568917 0.9109967725413916 -0.20027248120393895 -0.7048514766062957 -0.1624978335583266
Ni 3.122305130617862 3.7473094951416788 12.134695887517703 1.251094427406342 1.5216166460654632 -0.8120114568242661
Ni 4.536168934995809 0.5744316744389515 10.96601628965388 -0.6773337308020012 0.6045396296584105 1.6258419691351418
Ni 0.605593783735373 2.466205656296303 6.219267930310835 1.1467755161815927 0.235867090479097 1.3789926686129284
Ni 0.9562480503887325 6.160998558090083 11.107518313061995 0.06825276162981149 0.39228786460540827 -0.7094990026806361
Ni 2.6775661295938886 6.958402728529129 0.3390505041630153 -0.6292399606185678 -0.03521485733823613 -0.10150406748377357
Ni 0.8300457755145111 6.6652110867083225 4.884033085539808 -1.5910230616837437 0.38342784311161704 0.6466116191277961
Ni 2.6768686005665483 8.660520403455395 2.2286474612139844 -0.09663568364787872 -1.1506108307672829 -0.6897968962660185
Ni 2.8397049163964043 2.365320931710474 9.866448051379185 -0.16260376300857157 0.27599584017918277 2.0742840123346147
Ni 4.1071335151005055 6.406703157970653 8.56752234588527 -0.2723276472989761 0.041407873522825454 -0.20318554108567588
Ni 7.003898141536039 0.03399169086390799 4.040765463751794 -2.4781259003262095 -0.4353852100155147 0.28990139451668134
Ni 5.818456737584959 5.134703908534769 2.4280994619724403 2.8110107403829523 0.2751764296016809 -0.41895431815300105
Ni 8.592648993492494 5.227741431563023 2.6095249263809115 0.7008354134683672 0.5052184287585686 -0.44283009632933407
P 7.449233713438659 2.8806663907256036 11.376178042551519 0.36203137971371196 -0.20231290867273544 0.4921549107063911
P 2.436055881890877 1.8154569638555245 12.09340308690052 -0.39763395940867 -0.21467143023808835 -0.4027941634533708
P 4.2290450686552346 6.1303072808871155 12.298349964351983 0.1747715087193571 -0.2794246633550736 1.144079200296352
P 1.1682418066190348 5.385759290296121 13.03916342124265 0.9415696022317783 -0.555333857357721 0.6794389500704622
P 5.727603581773903 3.509681547156626 1.0871531393893894 -0.9572222211673708 -1.4166644721320893 -0.16599119142356575
P 2.481340200586881 0.8571658876577667 5.801610493773342 -0.16079293505207792 -0.9559898914221664 -0.5964792212477792
P 0.110131573204845 3.759011462376662 4.324617559017057 0.5938818928342482 -0.052860081223825094 0.10281301610318423
P 7.781386022641821 7.463826754931697 10.549393215239823 -1.1590597328655845 -0.5657725361925419 -0.5305628210606282
Ni 8.957181334385869 7.011240552350146 7.271242661688486 0.06643704857731139 -0.2895229281313401 -0.37352266818276314
Ni 7.675692018972752 0.2831022515608723 12.108354070920743 0.16853761199450326 -2.860374892638377 -2.746184230825871
Ni 0.5471793989010418 0.6669570643129198 8.107242214571887 0.3930082877112006 0.3644032223799982 -0.37649717743005484
Ni 3.8285532707997723 4.87321312540387 0.6553973562874602 0.87623812801382 -0.7815343712813314 -0.3524031125953285
Ni 7.893871756313939 7.468571787920313 2.875296335016436 -1.1819338092502807 -1.0845347650738162 -0.8985092807071944
Ni 5.78331412382594 1.7094325516998206 2.669745544275513 0.2527708082129711 -0.04684858492242254 -0.7651502734963532
Ni 6.0238515020960826 4.295952787198783 12.452694782075323 -1.2353711031338144 -0.31378642866439505 1.9090276421945445
Ni 6.9342186629101645 8.763185662663647 0.9474288971996384 0.5524444516250678 0.18648494050154335 0.28133293612138
Ni 7.752401855953133 5.302881828231889 4.971239816580307 0.4377400834009364 1.3018397762800094 1.2483646871800047
Ni 1.3034064116932254 3.20023564339609 0.24483452419909882 0.3899607591341284 0.1314787594689929 -1.5245047662465359
Ni 5.8424572429335715 6.875828140910979 4.426654124299349 -0.8991703113299612 0.6749870849466956 -0.5977030663525512
Ni 4.996207684553679 3.0107739103515785 10.758476623383684 0.19346291448127326 0.44322244667174643 -0.45917279935341565
Ni 2.1456727122064656 4.768739797532645 9.315213806106053 0.4476581138455968 0.037921457636121786 -0.15756311526087058
Ni 7.172892904436227 3.17071915192338 6.167054211409018 1.103173720331242 1.6006945233352368 1.3021102563325768
Ni 8.423993817092459 1.8408066371912286 13.358679441434735 0.4956701229485012 1.6665471601639879 0.580909134723664
Ni 6.0442634041593 1.7170044128518682 12.873656303479164 -0.8565825585664215 0.7521975699904271 0.3333489241773549
Ni 8.426609550944985 4.5402623290246735 13.439129318923554 -0.7542289985981591 -0.1060466925491335 1.0391211128257072
Ni 8.99824376686376 5.196022216846081 9.27744077367288 0.1799016308570708 -0.4888885812502935 -1.8161390842939236
Ni 5.142532754065311 4.448225209469843 4.744262953282468 -0.1785219769007248 0.2349990860518469 0.6848863463382785
Ni 0.47213720697681383 7.620945168340067 1.37106122053711 0.2254536084552569 0.2784134484817398 -1.4680631383190395
Ni 3.1063353870971797 7.055506111545693 10.753036814771782 0.5433260342635675 -0.5179664724528563 -1.0146413825167881
Ni 5.220389842735398 0.18734620092869692 5.656078404629633 0.006943264087052558 1.0307642562205797 -0.9917734767796791
Ni 5.534296261065503 4.986772686657551 7.172981013365997 2.199136267626025 -1.6050687411435325 0.8461716476457426
Ni 5.193489085115213 6.893688555216294 0.9045005745736104 -0.6659306311713821 1.148521552338422 1.01218597899776
P 8.077936817410082 4.934779240080156 7.202224000035882 -1.7341304065306005 0.3505570605255253 1.5116057987966807
P 7.991388149938796 7.5565889375544195 4.978774965678285 -0.2867019137427772 -0.23016386944673264 2.4829220361632722
P 7.981650277596588 0.9423066478554469 2.3670069327936636 0.9353123084681568 0.2620159809603229 -0.8887120921111147
P 2.2409404925195027 2.498989520581291 2.0493577205510665 0.11061734263895143 -0.450283981504218 1.3187208683060643
P 4.520832474407843 0.7571218691101528 8.832003325820214 0.15692265346339426 0.6912143454388353 -1.189672572655435
P 4.725997788581026 8.513497804916422 2.961387937414543 0.47235587370259297 -0.754276821116959 0.891894346493838
P 4.298651123172967 4.332940181674847 9.153225538725227 0.6216791175521745 -0.7817737409856472 -0.3727233122099194
P 0.5487561816233713 8.821071393919361 12.590945953095495 0.35049381138775765 0.4576213957058958 0.43575442042947526
Ni 0.4727071616162589 8.769536848017848 3.49315836942083 0.06087035312281129 0.2739957790300184 -0.21376151682930927
Ni 0.9465010000330055 4.8418518532141155 6.6234116597449635 -0.7919270273695652 -0.9982112619852229 -0.35116024132716295
Ni 7.0505866963002415 3.5417587044007557 9.213217624083239 -0.17892384032483377 0.8186055651020161 -0.6148487248939024
Ni 2.7666754628365937 7.949499696244317 4.538658012261791 0.9188796168334306 0.5100361618621861 0.8907712886329885
Ni 1.3581257282853572 1.688726953204039 3.936445408706314 0.78177554075786 1.0855102416132079 -0.41528406839026544
Ni 0.9182510744257292 3.4604873947021098 11.214001625893582 -0.9546500895648203 0.11043402298355173 -0.23302704992714063
Ni 2.649848528770635 1.9288513208658884 7.730031365805254 0.5658854076213222 -0.9027523722542646 -2.053832429348482
Ni 2.532021191231254 9.019564292265224 9.272322195534096 1.595390337513504 -0.43928531640086926 -0.3773924355508146
Ni 8.395991697850159 1.6528133863095384 4.634502171823736 -1.1744956078046804 0.9647437263553967 -1.069242614801436
Ni 5.450849762163178 5.729044529896172 10.601754700159276 -0.7790157186245358 -0.5608159635182148 -0.8608565033514272
Ni 1.7742017930937612 4.749098848604909 1.910743100195597 0.21514605588166172 -0.13314637697940296 -0.03693852489756219
Ni 5.382959996173242 8.044427890057202 9.682040650378836 1.0463384565097527 0.26955394120858095 -0.40186136722645627
Ni 2.744024125475074 8.832259392397356 12.069747674860169 -1.1952734637819804 0.9303899314658751 1.5081486934860155
Ni 0.5363594387651035 8.628709408603278 10.207013845573963 -1.1290277052798683 -0.9593706349689414 1.5398480814718254
Ni 6.218764975170068 7.3156293706624655 12.337922805235962 0.060523254196037705 0.2994808106750004 -1.689963225095083
Ni 7.706337406108131 5.106940417643928 11.225634758027182 1.0755780701011606 0.9327383770933936 -0.8212334896431663
Ni 0.30301762309278557 9.069933230449998 5.929613494899724 0.47201700230593546 -0.45336519153270305 -0.707644980191033
Ni 3.5791866435256656 1.148912910150898 3.7011404159425747 1.132949666042094 -0.6035890928196831 -0.44998573353750887
Ni 3.798596234678216 1.9941987771114398 0.5284700183453457 0.12538524497674536 -0.2870127601149767 0.15310713637204598
Ni 2.3639625857098645 6.5833248501039945 6.896422685443198 -1.6990621020725578 0.37620767121409404 -0.7881068822925266
Ni 3.2517977233381554 4.2496405309888035 7.016097557103677 0.24251802013671137 0.4110720871914469 0.8597401303587968
Ni 7.129379942349126 3.6741331933655856 3.573715629667804 -0.5816519264269595 -2.73975750136392 -0.3174628490747178
Ni 7.764470943728822 8.617732504436187 8.535511270338466 -0.9070653978073218 0.758163814876191 0.4271944466746062
Ni 8.724794032119384 1.674326649994872 9.905525279533215 1.1167810267020315 1.0037237071630196 0.4725425357921023
P 7.8008066992451335 1.2063672747712848 6.790732352979536 0.5637071690230808 -1.1975573747201504 0.9230491748300877
P 4.228228225452165 6.147066333570314 6.089626653771556 0.5132487552622128 0.977923201160148 -1.810968338726262
P 7.394918229441304 6.401278951981731 1.0532468040511955 -0.4884962309078813 -0.3817458274235038 -0.3272032162909333
P 1.4882424259248495 6.548117990250352 2.8772301424646014 1.3123512173342946 1.5768812229657228 0.9479845046191867
P 1.5412729880297367 6.9482334895515905 8.837846967026893 -0.1596549647928928 0.12925758344795804 0.9549282829268716
P 0.8783056061929322 2.957275269557292 8.52902333258285 0.07658262165174554 0.4116225603782782 0.6097291442791499
P 5.0000073821499775 8.952087536883582 13.389293623324154 -1.0753579836705545 0.7277034415038047 -1.1009633429434846
P 5.918194210481085 2.12486615556199 4.897102576788918 -1.8758426708021436 -0.05533708200940792 -1.3684915119712882
