# total energy = -340859.6848261108 ev
CRYSTAL
PRIMVEC
9.29833143605599 0.00000000000000 0.00000000000000

0.00000000000000 9.29833143605599 0.00000000000000

0.00000000000000 0.00000000000000 13.60904794641455

PRIMCOORD
 96 1
Ni 7.750782277741577 4.792750575303094 2.731158923130641 -2.014570912744698 -0.08717788066908856 0.5233655319812407
Ni 6.185640631178253 1.8997421049122407 1.6602905427767087 -0.8161424482735041 -0.24691203543934895 0.2018999895050329
Ni 6.111505034279103 1.5695025640279807 12.523127664609305 -0.4560733344924855 1.0474437737587896 0.4235097987341674
Ni 1.167135865844498 7.613250656803998 0.7387096638519648 -1.4143661630162156 -1.6374011347276511 -1.5343911721223122
Ni 1.4810568349793527 2.4069660872085685 12.000839455480376 1.7427852539921214 -1.6026292784641045 -0.5359006883337738
Ni 4.780281512786883 2.8340012588115226 5.304983568768313 0.905648462855137 0.6563733265002503 0.4447545670455566
Ni 0.0746507244632051 4.962556704811719 11.183888051547191 1.8018915732359742 2.0863594554419103 0.23907685566564635
Ni 2.198311528771729 6.991471230659993 7.3027514736542045 1.645249427127476 2.0707153211467495 0.47670078093484997
Ni 1.4356995740143392 6.343870337992856 5.259937801907919 -0.6287355101783236 -2.2162634142246156 0.29686214210523065
Ni -0.31839532624358047 0.5218958195404226 7.657689242618675 1.7221979167590729 -1.9824861163950114 -1.5102616260639603
Ni 3.83600805588241 3.0840426906709277 10.307887593543006 -0.3419181539036047 -1.0234924051495147 -1.4891032468187901
Ni 9.36741808404747 6.344409641218762 2.553152595088796 -0.6332706790445158 1.420918876533069 1.124880258770398
Ni 5.697766476694183 9.145336734951862 0.40605162694945973 -1.1044680136626333 -0.17044922719491934 0.4416949542836264
Ni 0.7831110563407169 8.52391994373562 11.525189817394565 -1.2551017487935223 1.2057946750282782 1.8146329320620422
Ni 4.030882487064196 8.344666709442155 8.765519420443297 -0.03774482284894145 0.5028972368245598 -1.275987591103596
Ni 2.6796117628986313 9.30149291384617 -0.05322457923120825 -1.1639903373979825 -2.6287488368238208 1.0770471984475192
Ni 7.13084392123084 8.824032890620979 11.778576788920887 -0.7872489051676055 1.1699714946820818 0.4063263449763454
Ni 6.494661379622546 3.912217180701854 0.2112413542548934 0.8495225663958467 -0.19313098506315127 -0.22528211587439914
Ni 7.106073166165076 9.362396985047654 3.7119627349250788 -2.8016318702712137 0.10352289768601527 -2.215967994471384
Ni 8.507136455412159 2.210985154580526 2.710242326463811 -0.6838252520636159 1.8225786692716808 1.8329119328768886
Ni 2.0886377089516523 3.856910705052018 0.03542292361056078 -0.26237773517511587 1.652646748032812 0.8918341826798641
Ni 5.534134439289036 7.155884327909557 9.953236213188156 1.13570074642467 0.9991227180558987 0.4287869879727067
Ni 4.0101379095297665 2.440774820474003 3.2732888418071786 1.3420906533802563 1.4689650813080184 -2.4704470436247132
Ni 4.146916365617374 7.01374073455733 13.511375720587544 0.3488732450651992 -0.4945313813583677 0.24851614670167524
P 2.070347890928245 9.100016667312772 9.016906320868022 -2.865416825937659 -4.3400984980144806 -1.5823180777105783
P 3.5188884607180415 6.41657399184391 3.7337106024263234 -0.0336318291218324 -2.3912524382714175 0.20985086892099344
P 6.2016058663313745 6.054617842277473 0.8095053000830882 -1.570784880259998 -2.1528224721611506 -0.1549596161997525
P 9.021706119578589 1.5558991050710693 11.305648772459605 -1.5202117952981367 -0.7584823745578743 1.5552543887245667
P 0.05826706439343187 1.1191843703962456 5.628008534256355 0.5614448553514653 0.7449527155025558 -1.162857766455436
P 7.536344157123468 5.059938130413727 10.412731859991778 -1.7588477067716224 2.0084902537682567 0.36489198909095866
P 7.769527714007561 4.115859938470358 6.544903983947751 -0.989901970788579 -2.322439176152445 2.980408386384906
P 1.7900310917662392 3.6425004794283513 9.545658730042641 0.18442445842808883 1.2567688520833 -1.2094880647194655
Ni 6.992977560359939 1.8566629351601072 7.603729165367308 2.3077347800627352 0.7677213766576392 -1.2319908738076717
Ni 0.8894337574949898 1.7203029039891513 9.594092808894764 0.032923747311214266 0.4529255328921232 -1.6403720444305168
Ni 2.3839434184612593 2.0017912929177806 5.968887226021338 0.03762603788289004 -2.4503271329463865 0.10322722082246738
Ni 2.484309608468713 0.549959113783659 10.798330877015319 2.3860588098856197 0.34578457883754643 2.9564397913844505
Ni 8.414329808898875 7.466987902605625 10.597175422918019 -1.5248300107964383 -2.3387973057954947 -1.6321054335463505
Ni 5.601909977455084 0.045111785013911346 5.94719514850898 0.8510932533170762 0.4131834771074948 -0.9233340530603583
Ni 3.082415482661728 3.648163163300367 7.435548384201585 0.34429668143811026 1.5537955447908531 0.5497262813629564
Ni 5.615169398147193 5.482286942950185 4.166342439747777 0.8045382883756725 -2.255180145894471 -0.6867588807706431
Ni 6.4816065222230215 7.4450345419786474 7.071832990318916 -1.2572414208443443 0.7261700355784139 0.5972554372921713
Ni 0.7907282494900688 5.024074465890959 7.63345128194678 1.0674819233565873 0.9213365630143551 -1.4037912157138468
Ni 1.6949928456974812 4.995575079901258 3.6467758522433806 0.93687013987358 -1.794453114680058 -0.9013611483336927
Ni 4.546196017749118 8.612784097700901 11.854107135542206 0.12434343397579228 0.5331601494741591 -0.40012201593784635
Ni 2.0346608947036193 7.593882232328778 2.9366418206992635 -0.14676448198346984 1.4270239609895425 1.306061784781157
Ni 9.427578288730462 8.965088579189912 3.57380440644567 0.39407246730965684 0.6523253816831216 -1.0915932145824945
Ni 7.169497085197949 1.9540443607621134 4.88098058306136 0.8720120057476144 0.3609869976095976 2.421754463515016
Ni 1.3148119664280045 8.429830127477938 5.449008214579175 1.3853088406389433 3.577572292404535 1.1377540294092727
Ni 7.5277710954978545 5.889154033570541 8.47649101451661 1.0779704815927371 1.082926797156748 -1.2665362158827091
Ni 8.25072566648817 0.4071227947360873 1.580391840025547 0.28188932284548224 -2.2801375871707568 -2.53955881082071
Ni 5.593671655762791 5.058069165786017 9.479055711476363 -1.4002837167812205 -3.0089635723147796 0.5345246339218537
Ni 8.067873977911502 1.034169725664159 9.486758449275342 -3.5737048390293293 -0.5790831372585189 2.5028473143322896
Ni 4.12279649375529 2.927068258606279 0.1822221915353955 1.4357011770485661 -0.44618667150639285 0.669261238206512
Ni 9.184333937183773 3.67658816263822 12.944355098369138 -1.4571246370296647 -0.6112836332504633 0.8485388623263388
Ni 1.6992421831843632 1.9034893324991413 3.253705625874744 -1.6152413108011603 1.0920511280555194 -0.5643450597173958
Ni 3.200364817500022 0.63655447486754 4.258189498452207 0.8325442866702951 -3.233499811162089 0.3116346724287149
P 4.494506593045446 6.307225613625673 11.49515434704418 -2.4414521990542597 -1.504236760026119 0.40311555134853155
P 3.4860560522581276 9.228677680017341 6.261386699089936 -0.307817869785786 -0.553390360478105 1.2863596783665396
P 1.523010906622268 0.03731234456752895 1.7860783710536057 -0.6618608319773827 2.5222136346740434 1.5025544872276897
P 1.4428871842492623 6.005476160399635 12.9300245098904 0.10028022237900149 -0.975006284623669 -0.7331274407328535
P 4.647120107645439 0.383593366923056 2.6758794126421006 1.5735071642871674 -0.9001522156272563 -0.9661920287661488
P 6.452976959592583 3.1783742635471195 3.3608633171960234 -1.4620670686366044 1.3113423164538063 0.5093450493324324
P 2.735810878370657 3.793179941080267 2.0897786142243886 -0.6494683718503008 -1.8758087322404147 0.0698098217042862
P 7.670593467048204 7.315648259418548 3.9926496076800335 -0.19796748721984617 -1.6710751299413285 -1.8673117505129968
Ni 3.117042469097503 5.642385614392498 9.019178833082014 0.24519479563792607 -0.865786850773509 1.204712497707693
Ni 8.18025361219259 8.608888096810302 5.558247802319083 -0.4590100485233063 -0.5277502913124975 2.819456300047144
Ni 8.746866037658977 3.9865387442306264 9.061597821298987 0.6021947835753176 -2.4794052812592655 0.1955856172512309
Ni 5.685381099161301 4.3808344906884775 7.134815238606436 -0.10566899749474058 0.044715597739819764 -0.3769566335649766
Ni 7.913791326937488 5.98168173013939 5.792242173708332 -0.230116561148565 3.0034845514780786 -0.3476458004160013
Ni 4.926023560422311 7.41788341405371 4.786737344334239 0.5762114721376785 2.442176221704478 1.5504410264963233
Ni 2.9516716437053816 1.5153862748077311 8.632382190963705 1.7629033648982348 2.24822016963687 -1.4770838537604112
Ni 4.739536224236516 4.551598348339661 1.7816560846011744 1.6882328726675375 0.2861403848123523 0.9697126403248977
Ni 2.813888967817811 5.873272483400749 1.5740903607807766 -1.1492450607680078 0.24109877119168155 -0.8618299230082899
Ni 4.742818535249358 7.403443105263497 2.202461374111763 -0.22337615710093786 0.5111011127915908 0.23278099535460556
Ni 0.9187885899809569 6.794774326507903 9.193809866796206 -1.060881130210618 1.0315592413180492 0.2501518825328853
Ni 0.7897984163419546 1.885924784331263 0.9262198165006861 1.2972925232289592 -0.00506353056583644 -0.9925126689385487
Ni 0.4411277227957739 4.126236876403313 1.8081116973313212 0.7669490172679888 -0.27797353273084385 -0.05498226977315047
Ni 5.232989377609271 1.0125975966279082 10.299218759103137 0.47279913188759864 0.13377321193012442 -0.8559842628607904
Ni 8.899860783849697 4.1140653604944974 4.881021495719877 1.9872367437061194 -1.336017450602983 -2.5276085804373696
Ni 4.858489778874772 1.7076385765118351 7.2905576417498335 -2.5425001528372215 0.2001102445944618 0.27976379186204725
Ni 2.3634684925397837 4.556954187272799 11.449400977158069 1.2944943916585319 1.505056427713937 -0.4522760722335824
Ni 7.363423086568659 3.059392813914419 11.00030272461666 -0.804649102921924 -0.9991438011018211 0.24156182687102917
Ni 2.4694229797674034 7.1595757655075705 10.893185945953897 1.5042087350016609 -0.5426374928369752 0.7455924059690836
Ni 8.440151275422007 5.613570085132436 0.42809983055754497 -0.20464181391622824 1.722400519688182 -0.7942929564985804
Ni 6.456305762262833 6.02000945250466 12.238263051519873 1.1839837498007737 0.46041027130494255 -0.3282668816687573
Ni 5.032796300820271 4.017781138007266 11.88495899939664 0.34767433966109157 0.9424872289500413 0.5280241137991745
Ni 6.98858874790084 7.709451194307899 1.5891694649437456 2.572827857286485 0.5785550326691907 1.7595408761839053
Ni 0.25500953036977964 2.8545877647107725 7.046805601304273 -0.20706944952111436 -0.9767116973505502 -0.6776800583978264
P 3.9939588127525787 5.925724371285874 7.075629499062667 1.4448067388942603 -0.6038580302103537 -0.19580004725488215
P 5.7116209906010855 2.8141214261048395 8.972744825331484 -0.7944662488516512 0.739288575238243 1.1415538627713373
P 6.647535247504011 8.62051101116173 9.034679151661079 1.1918927202352054 1.3423670469700946 -0.700735140445077
P 8.016296133185605 2.28490688985561 0.4186201816125201 -1.100262203111402 -0.470918369925118 0.24391361493265737
P 1.9105746610877719 3.913667720412912 5.57410238732758 -1.2614464600646276 2.3346058934219664 -0.02085601751340279
P 3.6149588215812067 1.3490856162674958 12.56409053411633 2.708286941559465 2.3530090785195026 -2.7534985050990968
P 9.377460282047105 7.290728731049086 6.9854831051861375 -0.8801343777444327 -0.22634115326653276 0.5581936954040192
P 8.347112170621696 7.944550207477108 13.304313966333426 0.12627998887687283 -0.04109497026809697 0.2190739301811582
