# total energy = -381179.30268568563 ev
CRYSTAL
PRIMVEC
9.12386928526176 0.00000000000000 0.00000000000000

0.00000000000000 9.12386928526176 0.00000000000000

0.00000000000000 0.00000000000000 13.35370495382513

PRIMCOORD
 96 1
Ni 3.5725878292131457 -0.08637384460203289 3.619708963897692 -0.5656900037810645 -0.25049692457712985 -0.9581138797437045
Ni 5.251087791581294 8.293259486943594 4.986366939269231 -1.6943726670166883 1.9285068339650786 2.1029862653653137
Ni 6.787301014336405 7.368172144664333 3.68677122702714 1.55501707590278 -0.2953405632543817 -2.2061906033696452
Ni 7.724824190286239 1.1773075814496892 7.3104718836840945 0.7520996109599822 -0.0866582607201927 -1.9755819330760103
Ni 1.4045192952415115 7.075788633433849 7.230323255012679 0.9593734631824186 -1.2302828899776297 1.122848315942034
Ni 5.3778730774846455 3.691508339897104 2.064522655215982 1.2224826772069204 -0.37130277771330894 -0.588367133663606
Ni 6.901905934905778 6.009107965598016 0.774676709562573 0.38408527418995786 0.8434431929709861 1.4089033401294317
Ni 7.894920483111238 8.269884134145352 12.467499883279578 -0.35839712539523433 -0.5884841188574446 -0.7022150674247132
Ni 2.1678404372425337 7.943797050222943 5.2414757954169895 0.2713521707595843 0.8648460841267944 -0.45681664041641323
Ni 0.7628713352512354 4.769037288168969 6.17890590790135 0.9003476194675138 0.5368525107240819 0.3990884324670095
Ni 9.429701258407597 1.4049116216155648 8.829429132689278 0.0713321718860836 -0.8062298171454825 1.5949432226737565
Ni 1.5956369826204342 2.8243849384169204 2.152069829392509 0.6249981546230785 -1.0523386399572456 -0.4015086118727279
Ni 4.295307753434237 5.575587322269161 1.323868853766074 -0.17490700585595684 1.3112746964406643 0.4306996316143873
Ni 3.151995708489722 4.479774140192583 3.2944922970935315 0.6335380737732896 -1.0640227611633934 -0.318081199385007
Ni 4.596130843641449 3.461294873150316 9.38181919303477 1.2233985041529705 0.9393342851433564 0.49425113111378755
Ni 4.816946725149287 1.37605282344974 10.497734996040455 1.9804683146340345 0.11946245173440716 0.2587807618524769
Ni 1.3924575402066648 2.219700509570876 6.746665125853651 -0.7062897517147191 1.4716688533924267 -1.5885411758021546
Ni 1.805905671374654 0.28692196314889606 1.7295188139595676 1.1841503572856251 0.47407234217306743 -0.01877856615908379
Ni 7.224160993779294 3.6875394568107516 13.403647179759478 -1.4814300465442487 -0.3193958044313725 -1.5216230738233665
Ni 3.4333393380317303 1.0912147520179083 5.7178430407270415 0.7476500598290609 -0.25462097404783246 0.9424478910716738
Ni 6.998545957091177 2.6557119691815103 9.027572199324503 -0.34751801658888537 -1.361920286511674 0.6004549180660755
Ni 1.793186997759997 1.2990564915744964 4.100321545529766 -1.0807166768793064 0.3675237702868509 0.30346293525119994
Ni 2.887339635648723 7.086107729458366 11.170935120373777 0.9996536508587043 1.2337281682137526 -0.8998434261375858
Ni 6.8674724526807305 2.678585509175732 3.779525393335579 -0.13379403786573088 1.4360544466229268 -1.5438569455209024
P 7.392021938659106 8.22925554475793 1.607051855331551 -0.012327925437733606 0.5146934581285394 -0.2573031488656859
Ni 0.47562091281243435 7.497010301129591 0.9085567161278737 -0.6857384099259287 -1.7312317448265666 0.6096700089064403
P 2.36582839810197 1.6635550646774682 13.195704165255167 -0.4410040988641889 0.09802999289224408 -0.09201798237020928
Ni 6.642751555170689 5.521446282649811 11.821287251546538 0.37296628145866084 -1.0277578652940882 -0.30869590151536513
P 7.964070287505416 5.663459306187928 7.266858876693118 -0.3157762054009142 -0.3129143104720869 -1.1152833591105824
P 6.080976683003074 5.459832794185122 3.002580489898828 0.034821735664875515 -0.4635367327490662 0.5441899249257596
P 8.922633105747503 5.118609211319588 0.1793506333180738 0.4165302820925408 0.7248788275708162 0.08690688639588903
Ni 6.898110405333542 0.2588122346414381 9.21724740298859 -0.44175280410475537 -0.8265618438346152 1.8069412198447399
Ni 2.2507034169902482 5.0925331932487925 10.270547916695376 0.34020682763945276 -0.29184566272724577 0.7789995206746197
Ni 5.951207891883085 0.06233974845014682 0.045531756676171986 0.8320897156313798 0.6027210883924329 0.32348514400939776
Ni 2.75957809574482 2.254827405852389 8.771874853615664 -0.04140221709587063 -0.13191070480008896 0.6250596039886333
Ni 1.8780298571163059 4.780305266586545 12.541706135964462 0.726673971798026 0.1292462705940484 0.9028459604093354
Ni 4.656202398217418 5.328640679475543 8.032960974015337 -1.2211295056131357 -0.4632035177793636 -1.1597814415229575
Ni 4.410742946097536 1.4387703000832777 1.7888221387519254 -1.1572057103759812 -0.6030748721874258 -1.8366793703391209
Ni 4.172044281028201 2.5528585920954074 3.701980716923577 0.2453392916355904 -1.2475879569149804 2.1356868409221286
Ni 3.722794087260561 0.08255824251763583 12.356837386575982 -0.12155275860453259 0.535633293605 0.20933947650221366
Ni 2.728109870998083 7.080742894389917 0.02465360686812366 -0.5168539561149679 0.03222800679577031 1.1297974935663577
Ni 7.040798595189796 4.966322711102775 9.227143151483897 -0.9322200426960784 0.3124240010992297 0.653887583963919
Ni 1.1035228515201838 7.9576927029597595 9.620783362696779 -0.02985796390169696 -0.17791879609908715 -0.40563420400532724
Ni 1.5946698524890468 5.101428965683721 1.6761834119874013 -0.7751310388581488 1.1106476601107838 -0.999251530324279
Ni 5.905232715165542 7.066838117783936 8.24095873173463 1.715591724296465 2.247054174353227 -0.0015447187793005655
Ni 8.849359312491183 1.4242268526358148 2.6683238935269475 -0.5724067536796078 1.0733327257104095 2.6012429180940684
Ni 9.002001643605395 4.611887765687727 11.334517883002576 -1.2176667438755155 -1.2893835527945279 -0.9016943633033954
Ni 8.232914216292704 3.8383935095688124 2.0490996667811068 0.43152032774346977 -0.41748107604158424 1.2603622258615133
Ni 0.13348403064358194 5.717791947059723 9.03328739096885 1.754303539044366 -0.8222092232928744 -0.28456635545701314
Ni 5.892951987270758 1.627096083498007 5.610265324187804 -0.6569150579363331 0.18715162755126477 -0.6091897268359121
Ni 5.1443111507546595 2.194436515855679 12.936935725185716 0.7378798678161743 0.6092339498102862 -0.8062992369308372
Ni 5.233861926599607 4.619177737149787 5.1133602493895225 0.47446572095674416 -0.6692141870186603 -1.2997816081994003
Ni 3.782418572247493 7.774147826986982 7.0633756094361875 0.8715409796484668 0.3194503118183918 0.5147759905400167
Ni 2.9786969375881487 9.395851703809047 9.931390890195496 -0.5678723561443639 -1.1064181954104686 0.15804545421392782
Ni 8.878820286021833 0.6024691534130178 0.7048353158857612 -1.2759271701793058 0.13171452962888283 -1.437252580696086
Ni 1.2492766614155524 8.89088204105668 12.40090476225133 0.6208111131249244 1.008361205935031 -0.8569815937770531
P 5.976563124289923 9.026462736834157 7.1534464458234845 -0.27089142907308184 -2.627392837016559 -1.5199456861209437
Ni 0.631243099595617 3.5469497568622237 4.14859502488973 0.04536582972930897 -0.17215798235590998 -1.0483434027549237
P 6.439115919298718 3.222696570641785 10.917802494286947 -1.4489367019022337 1.8616607228748068 1.2751627812094555
Ni 8.952906103633751 7.028490495687521 5.468755938227542 -0.6943950571596622 0.07777072842257574 -0.0009307393443854938
P 4.079920574078997 5.320766780386986 12.543509012511274 -0.5867825627853056 -0.9199116576423705 -0.9575052996254285
P 3.087088503256817 6.771097022701088 8.986709126499564 -0.058012571959042025 -0.04161844687173478 -0.9611611512104609
P 2.515487223999543 3.3104408203922553 5.151058252001458 0.8055361335125676 0.1728429242380765 0.029710382580239156
Ni 1.6547231593266878 5.914009877301337 3.9707507423706367 -0.8034093169775518 1.6854946478007684 0.8170467052553283
Ni 8.72959028197497 5.9657878348072035 2.880874461959092 -0.6462367522868806 0.955432990477432 -0.27256521723107896
Ni 8.35110481744354 7.735663346853106 7.937549024619416 -0.3375449645365735 1.0360417025694353 -0.9294396517374638
Ni 7.6928997720813 1.8711595836357917 11.86532725561439 0.415357344830362 -1.5121979238547247 0.2531158502572157
Ni 7.991733858810753 4.873432599143792 4.87854926497098 -2.0205978356650687 0.9688515778761831 -0.47239983956665094
Ni 8.808566493458807 3.50172273741613 7.94378518919303 -0.4783540002675568 1.1172201711219791 -1.3304453558318443
Ni 2.01503387648337 9.403424515215193 7.627154995659138 1.528690265082793 -1.7003188572977943 0.7812170971512288
Ni 4.1982571571364575 6.48064777173338 3.789287020954174 0.12393102902872205 1.0447461723219684 -0.32255646154754125
Ni 4.792969196986217 8.128099207336335 1.841675800432231 0.12621236886373102 -1.070312193716531 -0.3822024553449482
Ni 6.3112083974881905 3.8626630015451306 7.104745056999728 0.784518650720636 0.03471246378052086 -0.5575943712571236
Ni 2.292262641032402 4.623228735058616 8.065036848448397 0.42227644054769864 0.2120450483588348 -1.699770698103808
Ni 6.382164727976846 6.6194491933257575 5.83451360527515 0.8957263186454187 -1.3067025036889497 1.6578128656147835
Ni 5.117943168870614 6.180946917433344 10.224985138864046 -1.225667245582489 0.5551230268984956 0.843672792483289
Ni 3.3123933283933575 5.66969090882696 5.927963010413888 -0.969085291153544 -0.4824919336953304 0.03758541445294172
Ni 7.703930529900612 0.0698614661889726 4.975483988130377 0.4391711594205081 0.5875518368511622 0.7299508427770848
Ni 5.045682125091502 7.233047642345059 12.770801928738656 0.6406669715085869 -0.5100600731215861 -1.2844169528178717
Ni 5.191280829211082 1.6859359157368323 7.735533787910977 -0.5267393335494799 -0.5211299577825025 2.815321709053481
Ni 3.9488561935377153 3.2367473291543902 6.894464507215595 -1.2444692087803406 1.6262772569003474 -1.6206467980874477
Ni 8.036997373733502 2.722580806284681 5.558158907392032 1.4008866404725422 -0.7210951921586678 1.7564522099562523
Ni 3.251190414041049 2.896791964102657 11.416149140413147 -0.06462467795892096 0.23154712294750446 0.5302851419192094
Ni 5.907376824419089 0.7155129799684248 3.3713034144247453 0.18853410972108822 -1.5048872491259244 -0.20501076721987274
Ni 0.3812180633460556 8.390063738773947 3.5862572099946948 0.18560485188943518 -0.3843583253456864 -0.99388666646794
Ni 1.00087019955569 2.0275062056305986 11.121446341641166 -0.08120829334921498 -0.3457802079621722 0.37238598347515867
Ni 6.780166148650134 1.72689296441416 1.4722056310217795 0.5855882853668883 0.49042841493358763 -0.39835129719066875
Ni 7.907766890894192 7.056537269497746 10.227361906781276 -1.781224531804926 1.1747236646550865 0.7297654662391561
P 2.5272570152211413 7.331238722288342 2.1006841982606956 0.37169075718034694 -0.3474174864552791 2.1028155441154044
Ni 0.5579930283991239 6.775467356030659 11.73808030193134 0.2567968986532287 -0.5763755085193687 0.6016990748858217
P 1.1136412224230923 3.482699470209129 9.475922779592569 -0.6101572329555041 -0.5138421658718376 0.9333826955456117
Ni 3.374280532932968 3.4183123255185737 0.663944871453331 -0.22548497591382458 0.4808042615802623 -0.2623257988912579
P 8.789223890831066 0.0865973793965516 10.611026991837123 -0.15652618935592397 0.47816116753046034 0.6777463928593876
P 5.4945947357000735 8.370648145192892 10.62658410114871 -0.40912601920866964 -0.5699945446936893 0.9621068029531817
P 0.43961173838275974 9.219578551560002 6.301105537162861 -1.101390403178574 -0.5738182893151538 -1.0743855924549564
Ni 0.3478967807721041 2.883170027440761 13.403513971269682 0.9654782905285759 -0.2897970077283331 -0.06197926991627391
