# total energy = -340887.49232023867 ev
CRYSTAL
PRIMVEC
9.16049840666101 0.00000000000000 0.00000000000000

0.00000000000000 9.16049840666101 0.00000000000000

0.00000000000000 0.00000000000000 13.40731537552070

PRIMCOORD
 96 1
Ni 6.403600520991492 2.4755330555153683 11.557535026958002 1.0036216343675168 -0.5636958561691711 0.5995915416245158
Ni 5.073193874115886 0.5575601402349089 6.317661306366279 -0.05878981644469875 0.6833061463353522 -1.2167583731286333
Ni 3.081958041731759 1.977229430512151 4.971485777749392 -0.6464678944610801 -0.9986041265482674 0.5464542954799041
Ni 3.316988946132876 4.611962785656743 5.190869635036366 1.4626751345342486 0.29913294041727834 -0.30993363057720813
Ni 3.4113054364362587 2.903539016708547 2.884127920850654 1.7423245123056186 0.8981899496945627 -0.7154025126492647
Ni 5.6546656630142484 4.790180279717768 2.92756791975 -1.9417948093232364 -0.35024544282237746 0.1804950414666956
Ni 5.390357806106372 3.0903948606487575 0.6210103315797401 0.042114155561230694 0.6344898961635975 0.1481816740459706
Ni 5.947847410504515 8.318025575287637 12.591265196249058 -0.27166353135241605 -0.2436091963183611 0.14097050100951206
Ni 2.336806469544658 5.647630400334276 11.539824119581102 -0.06075156815675989 -0.9212835982892327 0.055961088746652
Ni 0.6602474938676656 0.14430716152362602 0.10999193496219706 0.6534093587759199 1.2074746338338624 2.152709857842686
Ni 8.223131973592539 8.878950366541236 7.499851091051835 0.8714018829674413 1.1194125507876076 -0.9346317374613645
Ni 8.915161816246876 2.6572865019129424 1.0557162812157987 -0.2327226313128444 0.5362722127405797 1.4591712351460484
Ni 0.7031845814113735 0.38240591679912156 4.385586720031718 1.167204730570222 -1.048844253650742 0.9760028442089838
Ni 1.8108839422235794 6.713600943326067 0.2027456442588049 0.9381703467422423 1.1818713314434612 0.8551555963119079
Ni 7.874089507583426 4.179376575322958 3.7319531059230893 0.9752094017734109 -0.04086357098358124 0.8965434152300752
Ni 7.668344716187352 4.503502486007165 12.668639344981335 0.22970184220864956 -0.6642054209501593 0.16340003365762182
Ni 8.321717256094965 7.540207666229726 9.448161744540021 0.08240591320174195 0.34066551244342613 0.04977501454059815
Ni 6.966421535389301 1.1148601223186312 0.3664932152348241 0.16224252301441092 -0.22524637754045723 -0.11581405634854249
Ni 1.595538948628792 6.994727475078254 9.632002868495883 0.5292243047548627 -0.7353167350746884 -1.2587108063010193
Ni 0.07921357678714493 5.288227410769112 1.0547590091454118 0.2779182540128762 -0.6065299206155618 0.940984933372902
Ni 6.8314232722190456 2.2130664587620146 6.817740235936396 -1.1832535565029687 0.6554009352846519 1.091532536547888
Ni 3.6939800923979718 4.80187823602288 0.6720123218102292 -0.43044920616647797 -0.7835125780536247 -0.4270057277025678
Ni 6.437778340078702 6.220115740418768 4.793638367818927 0.03996805575250536 0.3775438735270143 -1.1577443564882706
Ni 5.339782695095788 3.255228866720928 9.471248948358166 -0.5261857750388551 -0.16631617886315228 -0.8475690422139016
P 0.24209639672541744 6.015827468249407 12.368436075558517 -0.5288525232377408 0.044991991329658 -1.0112714376032905
P 4.0954389295721905 6.548281430844991 12.861489818996771 0.2412548371535716 -0.03782864081199937 -0.6009724811324424
P 2.612097763891712 9.010192825416194 1.5658003070086577 -0.5704730269920045 -0.9133036654075497 -1.488124942065921
P 6.90153772606346 8.480596938284348 5.854411244085956 -1.0067460389291112 -0.5544257437211548 -0.5058228951117869
P 4.912646981239324 1.3897117127481868 12.764581823729634 -0.8626084530455272 -0.25555094206126955 0.48994607598053036
P 4.310838886156665 6.7905124868951425 7.911307696050173 0.16484936450963866 -0.032171185415905884 0.9668546020508123
P 5.031623532915736 1.3092092538528748 3.924280515486669 -0.19408357878440766 0.09094480391068854 -1.1595415575980095
P 0.5076253480541812 5.712990555570741 3.4963194407350686 -0.9346721037809967 0.5710823784412293 1.0793449933427604
Ni 0.9436046069513288 7.561478343238705 2.424431215853614 1.182286307493693 0.8130895203797931 -0.340005253151608
Ni 2.008136951712968 6.831808013146857 4.821592544373882 -0.010467732300543264 -0.6318249477369249 -0.506654904094779
Ni 6.0652666774731205 6.256858499024719 9.366042457698075 -0.4396884653765589 -0.6331405812245547 0.16942824212957275
Ni 8.93056977435588 2.645139681192052 10.128904937262076 0.32755160076928747 0.4737956914729131 0.6535404850371453
Ni 2.4080934671690684 5.737146789538303 7.13805446328579 0.2217879866782116 -0.2211434111156772 0.39051843140981135
Ni 0.7276788377655126 0.4428120745651053 9.249290991054169 -0.25800634558029756 -0.06691681642720733 0.33578555864330556
Ni 1.8440083040084505 1.4097915249806088 11.555965833602428 -0.1655368774949665 -0.9112982049417467 -1.458884814253881
Ni 3.770076351620019 7.039989497085734 1.688878929815398 0.6507102146772019 1.63601582434435 0.0734708154956412
Ni 6.064396430136405 8.488108546874944 8.269859675325012 -2.086229614732265 -0.1448109578015248 -0.20916258460471723
Ni 7.084830136172278 1.4023898423693875 4.665155967076099 0.32214971302742584 -2.2003827384386168 0.5028180468471921
Ni 1.2389207505411173 7.839536108066685 7.296891091133251 -0.5103624348533533 0.13447692286536841 -0.38529729222018805
Ni 4.995549490684314 4.834333881433222 7.395394845200976 -0.7980056294634772 -0.44495228487865957 0.42905284003958366
Ni 0.9239186961449991 8.141127192979106 11.645312753588254 1.4112669552656016 -1.9181100641117868 -0.7385637812570764
Ni 4.784986277192321 0.6446178517002575 10.661711579041487 -0.46530745149624375 -0.08313919182334069 -0.6105318426861033
Ni 8.801626600549506 7.646689298250561 5.304390193936487 -0.3114025018132508 -0.2161719260430148 -0.4881789567777786
Ni 6.912750175959667 6.458471905695966 7.0723590338122335 0.5409961005788101 0.9308015650819969 0.8577876346181161
Ni 2.470595546941794 5.354228800885262 2.7236020971201373 0.3118262196142307 -0.4333239566111118 -0.3823094132364577
Ni 3.242211798663323 4.886154820210052 9.410178654466794 1.0316191480217072 0.19788726880121404 -0.24756046765662526
Ni 1.3968294199126905 3.8038511087828564 4.168763222014343 -1.8485681513569066 -0.9244997912336853 -1.729744875868395
Ni 1.5393026496804172 1.5056011765038297 2.4703381369400916 -0.10695917706107386 -0.6155570638148367 0.5071871224491652
Ni 1.2539622887188713 3.840355694433496 8.277502279041029 -0.8320966576099154 -0.048257035234174954 -0.22662063218016454
Ni 5.387573014628882 3.0953048877274885 4.966109481308147 -0.5273702822652594 1.1709919655267962 0.1893046693385256
Ni 4.362504096462714 7.496145669497085 5.702546671480328 -0.42399290901817305 -0.5914905097839361 0.241031665399172
Ni 8.201778852099027 7.586797960487982 0.2838673528379268 0.7293674594697891 -0.22904441113030877 -0.5666929911242821
P 0.0697938364045722 6.114953220150427 8.123639801760268 0.09120037156492035 -0.5920906052617803 -0.3040771717964312
P 8.642911807329185 1.9591466069050338 7.811263146171546 1.4016546289868184 -0.26602304523718706 1.5310819052434212
P 1.8708577244706897 3.4955270576337436 10.390038681515513 0.48536488436775116 -0.11415363792698406 0.9307753398297519
P 4.3429830746254465 6.43859362442573 3.7297142801431606 0.00040674852011542855 -0.2890493309290313 0.3767465744366995
P 7.02698158952641 4.202534314977868 10.48224092881559 0.523502314669421 1.7736644600694806 -0.9443139977461349
P 6.538360611206436 8.532564445033676 10.408312959536707 0.15392526139796717 -2.3050124960355656 1.0080624437476897
P 2.4180784102955917 8.770783202836656 5.628953976438536 0.1938735196561306 1.0750299109071744 0.9279640956332019
P 7.278730403290743 4.522437235954436 1.6492744315463956 -0.08468751014706705 -0.9491564134401008 -1.2641733720774875
Ni 2.6727494230116324 1.760959226590961 0.3403967877313006 1.907902013230533 -0.8117733726715309 -0.3807094157391895
Ni 1.6302297556197511 1.2131522688760612 7.076353927112671 -0.44472525646951794 0.4149809353275498 -0.387862481844203
Ni 7.311195209199367 1.0841999345714066 9.441726494497468 -0.942418580495635 0.9728432155340795 -0.5091789560682134
Ni 2.9624593416533176 1.8525184069116984 9.278974669684617 -0.01540270770831541 -0.21194991754186726 0.39204232425350544
Ni 6.744270291571572 2.2183520662702754 2.574727511153498 -0.5490403110395254 1.1058044730858696 -1.3418335430641277
Ni 4.064815383818091 7.23231415849983 10.596390813947632 0.1752744164977046 0.13072259802925876 -0.19761396053516933
Ni 7.3377056912252 6.583384460258604 11.403685374374835 0.36929114659991885 0.06825147607823084 0.8674976628170286
Ni 7.63257297039921 4.129919045102682 8.187378548800957 0.18439386230046953 0.3374076676277608 0.18753215081913507
Ni 3.5341110763942183 8.6837676296634 12.67990126156826 -1.0919382566267388 0.3056712557564284 0.5304440360945768
Ni -0.001002158511964851 5.2036027276472545 10.147795716817596 -0.41109625556116297 -0.665518226224312 0.7788367698445103
Ni 9.046669929571989 2.226358341768057 5.645203784339582 0.3978735862233019 1.166367322270591 0.12601645080284105
Ni 3.886213148829255 3.1098425984997755 11.577565372499704 -0.9569280869657198 -0.48384279129626995 0.3079430825097406
Ni 1.232929784665203 3.434985324493198 12.57592777397682 -0.5961385500789088 1.2412069930893013 0.12441568197462445
Ni 3.3315907803931313 8.841813706509193 7.9563562784477 0.7916277509615915 -0.5122467963602597 0.3114266701829669
Ni 5.975338065846439 8.320737082778876 3.7030471535967173 -0.3287312228996855 0.6322237258372402 -0.27096701950602364
Ni 3.435663201366008 9.040596519211544 3.5989793128729817 -0.5388340599304849 -0.9865268836687591 0.36784078730663744
Ni 3.587837398813541 2.8028743010962827 7.168462737330281 0.569205987354123 0.7489857479213489 0.09985701879865383
Ni 5.192884944658234 5.089856820489415 11.524472040511615 0.208754293422705 0.3775698416689433 0.17322010507183713
Ni 8.43549980524593 0.16062750526143754 2.5248119560191613 -0.9941684593744169 -0.9801857719420798 -1.2230601469769453
Ni 4.879559261447577 0.5704700304626241 1.6741845745225017 -0.27617864561395017 0.008161195654553687 -0.38095469898077616
Ni 6.08411898293586 6.098729977694397 0.7252513057209907 -0.46334929932860847 0.5839057554581428 -0.710694565650634
Ni 8.26993295931126 0.18549459389562203 11.659296254214528 -1.6578619736851643 0.5831794188150794 -0.6347729746216553
Ni 8.96122080160482 5.377542269010952 6.13538845971616 0.5498566362932337 -1.199693704336863 -0.6576239110778996
Ni 7.882682054971206 6.76477148672493 2.685901150393972 -1.0720325188417472 -0.7917542492371268 0.2420459655962993
P 8.81833534941444 2.0382383490650384 3.3493484063112655 -0.8033944045792164 1.768194180983529 1.2481057770916635
P 1.818386390315894 3.339945154825599 1.4335373686251724 0.7130820920462042 2.8238791117051885 -0.2647128110661957
P 5.048130750818484 1.3434603569263355 8.367867846435724 -0.11525021342527249 0.7849552240374223 -0.09907000412098423
P 8.490710128386809 2.131244888114208 12.494786828351309 0.31798401168551044 -0.13084343987783917 -1.3152941020127025
P 6.676949789702928 8.36263720191715 1.5255243442156428 -0.664776462962281 -0.4233182515486516 0.29230768996532885
P 1.6165531316858979 3.476152603768975 6.15984332592769 1.325366141536724 -0.07109974416030336 1.6141100254101943
P 6.583769201186416 4.550138582756828 6.064826057505794 1.8059595726577609 -1.348054584273175 0.07701868074789961
P 2.5259982405465786 8.798337981666549 10.209335028220965 0.7607038076892253 1.6870681629354753 0.8681324681875501
