# total energy = -381165.4533907777 ev
CRYSTAL
PRIMVEC
9.31615323438124 0.00000000000000 0.00000000000000

0.00000000000000 9.31615323438124 0.00000000000000

0.00000000000000 0.00000000000000 13.63513194971938

PRIMCOORD
 96 1
Ni 6.456988456736371 4.777723909989454 11.130071471750592 -0.39899947229762894 0.4388366588992249 0.3953029972826483
Ni 0.9166060568391523 1.4299549733390164 0.5219421361296033 -0.37853760489885124 -0.7200785779686953 0.30333926518914206
Ni 3.0969501464385285 2.10524564775496 8.435497157567035 1.436784897031048 0.32288119187681164 0.05506814461873742
Ni 3.6931373647875656 3.5134287712731824 10.389520213175622 1.4128839220437344 1.1308017664611558 -0.644841928821883
Ni 0.8810239416463668 7.350305062412921 12.290312633137633 1.1043150330245368 1.2996875058236972 -0.21463877722794006
Ni 2.6787480332783087 8.778937142010152 0.8662112581996136 -0.36083633096434625 -0.9301791010066497 -0.021130868441344253
Ni 9.29871327254141 0.6959464490940194 11.734789491503523 -0.4588969199842097 -0.17950979473529083 -0.5103336384979469
Ni 1.9066904764966894 3.4745990451058444 11.774535927136998 -0.7085027002056379 -0.47724611191535876 1.1796396138994651
Ni 5.810764180027264 0.8835178758342257 5.101666117586213 -1.5286406427917802 -1.775242088969246 -0.3324225557083436
Ni 1.139766120079322 5.405082976648451 7.828461278920045 -0.11591458648214877 0.7085916603750184 0.23533230102154953
Ni 4.442314449528162 4.160566030987184 2.70227877280649 -0.8906504467844081 1.7392533295794625 -0.6867902482292108
Ni 3.4308410739427 6.162048365389983 1.913826649779842 -0.8477060820123982 -0.4870253027893096 0.23372844686953942
Ni 7.997861549016924 2.64862891026991 8.909126655277445 0.6691607080729056 1.315712934717676 -0.7280834505510428
Ni 4.969114959505237 7.959618740495589 1.2022113627681532 -0.5428897180570973 -0.2822073683065333 0.5907947692684922
Ni 3.017781477299844 1.9661275333459252 6.171151178594902 -1.1611189293874584 -0.6173480942769884 -0.9931996677032444
Ni 2.325349081159356 0.5778688664865521 12.293257469136073 -0.7703755264510345 -0.37476373967871585 1.130480121455679
Ni 0.6149825572508133 7.495879270927992 1.2540613445236561 -0.6200359255217968 0.13952296992970808 -1.8735199362062378
Ni 0.483644362304913 5.675465688393808 2.663486311251597 2.01934982219058 0.5294695879964494 1.1960139414924307
Ni 2.3752277649165365 4.272136280646501 5.910624956841158 -0.6644645881488169 -0.8395124904580124 -0.0030899517792333884
Ni 0.2558597606603607 7.797033236399529 7.745504661926361 -0.024725270660821932 -0.12225209866440234 -0.51342693271129
Ni 4.092772384797232 5.564799105586272 6.893158634402096 0.86444524914395 0.6089781250457382 0.627362541090197
Ni 8.814459633823025 7.740325812411864 10.161690893996136 -0.4624959501893777 0.5151948232449901 -0.04164621478587666
Ni 0.5100034859176447 8.216194913330199 3.4090831983515733 0.6262487392007279 0.0951513857928684 2.124025088313484
Ni 1.0499584040876866 3.106229034937249 7.720102307238146 -0.6769624635055115 -0.5574218502350013 0.30079721549357874
P 8.4922884269327 9.027492107016046 13.486426573694528 0.5850246995539343 -0.8333917222722551 1.0641464312254512
Ni 7.684922649859764 2.572320300136354 1.683407440035452 -0.12077602833950814 -0.8261226994146676 0.9670700604957282
P 8.836678658993154 8.235516614882757 5.381882028940404 -0.3991059159685062 1.2668920565602309 -0.2050040823516534
Ni 5.898867039999557 6.016464840721798 2.102578433119233 -0.6032707902483159 -1.2682462565952803 1.9942293729738687
P 6.638979507762989 6.751425475814757 10.028448477354313 0.47431813963528635 -0.04624051902477843 0.6005464493386173
P 3.2252335747792773 6.692836188898637 13.524196121637816 -0.888804908935237 2.21077745140938 2.3071552534101816
P 2.0742787548134456 4.267515468703364 3.2594508735412773 0.8178062091291721 0.4389515872105344 0.37130689147836693
Ni 4.938166698869947 0.40266183815548456 13.415183156007512 0.06689933292571058 0.6907188938596556 0.31705044412764755
Ni 7.751104601561483 1.2179193285288894 3.997070338732162 0.5576427079965557 -0.04457958638258774 -0.36402064222959885
Ni 2.636937138115398 7.538565884483353 3.585330840985158 1.0083293242558313 1.2956822413190459 0.1219898461419512
Ni 3.598000809216343 1.1820707713571246 10.591634154922358 2.7238706549303346 -0.6365110403586844 -0.29865522944991146
Ni 6.167815064165793 0.6024104086272953 1.7706448293837171 1.3784095424159488 -1.5264675463998614 1.6487471558680895
Ni 4.289082363155712 0.33538617007851396 3.4109641296647175 -0.21063814070897918 -0.8595796935215326 -0.3638265239409218
Ni 8.94183007915888 5.396484167326845 10.80743725205064 -1.2956609011628073 0.946089601589319 -0.1124705937976063
Ni 4.508952892732329 5.969287841366857 9.69780981890125 -0.5214873411219212 -1.017536444676396 -0.4524023133988015
Ni 8.404930859209301 3.1556978079575377 11.36508727144003 -2.0444805558199373 -1.3665287318179626 0.8612694225191296
Ni 2.7395079838693297 7.253603393119022 7.768521149802807 -1.5485967741987328 -0.7219505981804275 1.7804262042733467
Ni 1.5414134291610007 5.2672225429094235 13.494758009421844 -0.1135946800997205 0.8187526322028414 -0.05333367842613396
Ni 4.507611366684321 4.467589172918754 0.3272037928009773 -1.059735446641949 -0.21257855226480163 -0.7322393817009455
Ni 8.73312030100944 0.2512948456358896 2.1024554598981657 -0.9061511135231684 0.8940916112554731 -2.0761588607598243
Ni 6.723514281093705 8.052090876277019 6.2087707364731 0.40047759950505224 0.7052302001019531 -1.2465780275932274
Ni 1.5716163975473991 6.816303166080913 5.659261171672246 2.392543132058383 -0.9042883492828169 -0.32575954186587125
Ni 1.8065511467047712 5.738126134219506 10.311050255520275 1.3047587496990174 0.36705094441549047 -0.23032842004905493
Ni 6.5828310529619944 5.7287075034241175 6.210884571614022 -1.1907735190290976 -0.7768734754705524 -0.05931046483485915
Ni 5.80281750142344 6.2116848291662725 13.374168791935606 0.06269660769827266 -0.6408461773989286 -1.702942153853254
Ni 8.01820802741171 4.974369269859935 1.6503686346420148 -1.1176695999545718 -0.14528095545940783 -1.0937783951592712
Ni 3.386701140501998 2.5623985970729626 3.8229365312395007 -2.405836249622863 -1.0834811269983209 1.0159922401177275
Ni 6.685187627194369 8.211518204468394 12.468987133656677 0.25305697199482224 0.5563602417397063 -0.9902027898584495
Ni 4.1838657299182085 8.233988765772525 11.912959988139253 -0.5663250662619022 -0.6213294475222395 -0.7927610932350863
Ni 0.2952363450153239 3.2208922474294743 2.5262761449997293 1.077654493014215 -0.49415522896587155 -0.29711848109041084
Ni 3.6237040756500485 5.644489479299182 4.614524471403368 -0.13104167193157432 0.15954672134980263 -1.2661621203727418
Ni 5.752193525417366 1.602042953608466 11.631804076936143 0.6931365021622127 0.7250778309554996 -1.4095060067104368
P 7.760523232356872 0.9427201656250603 10.078121274127739 -0.6629234689139422 -0.9606788122574036 0.7277934301144499
Ni 5.710988180206681 1.9108827453967137 8.799391687781027 -0.7720989369000445 -0.4681102110523616 0.684323531856273
P 4.777388528477452 1.1490915893435987 6.971451585148331 0.12497952489789443 -0.6033188698774319 0.6484165335470188
Ni 0.7017690447884978 1.5006086785340957 4.7799318382768 0.2952204927367496 0.4367486660219446 -1.3029376373298787
P 3.9228737005089065 2.190246228741234 12.704356947164339 -0.974863845508534 1.1699136448609528 0.2175595504191608
P 0.5157580736944116 3.627411904588292 10.071262722207297 2.35304841639787 0.08501558291044714 -2.414765690902009
P 6.9927883706188325 4.117898049738045 13.404643791992852 -0.7162175523513923 0.15175473610920961 -0.37610302731542966
Ni 5.605808811581623 2.5052067331235173 3.40778732145381 2.417540939654301 -1.4418985641085298 0.9194763698771649
Ni 7.475169462561872 8.946991227982465 8.194264688906514 0.3564891097392441 0.6381951129293267 1.101879941220483
Ni 5.119598780709895 7.522607314203926 4.165737427579192 0.5618675447111807 -0.36518715173387434 -0.2514916843902314
Ni 7.525867967792835 7.704523836005656 3.2766037746495553 -0.48702787389247093 0.16522628823308322 0.9415222939336108
Ni 7.571181736525544 1.7515392625833388 13.11092877478058 -0.9128753196208795 -1.3727628856531324 0.6948627408247001
Ni 7.278514786538278 3.3391608111757205 5.004120404820442 -0.16583024036566923 0.40862311143032204 -0.4341220270323749
Ni 7.888080000754949 6.092195849362463 8.24273756515922 -0.18314867703945875 0.1887372268708298 1.0122106615881084
Ni 4.079739086594712 8.158425447887861 6.325610202332093 1.1939223490707245 1.2131148628387751 -1.681615624461336
Ni 8.872564480777365 6.221811487598108 6.016406148957198 -0.56884423313933 -0.7393695649878235 0.08059122859050637
Ni 1.5717468236909555 9.045695870195264 5.821710659932884 0.1831103676023556 0.05440891376818372 -0.20515937698259504
Ni 5.796407988082958 9.081414001223473 10.064813149408437 0.5292852398997853 -0.9462664934868156 0.5466934080739037
Ni 3.846239025016459 5.8568511894682 11.893353212301493 0.31616752730206193 -2.387187009952792 -2.060044471696465
Ni -0.24782364698666934 3.415534634381055 13.595003543359228 1.6839532714555774 1.6673246617599606 0.2194757936052672
Ni 8.995742657213196 1.2194378614860095 7.1790331771560085 0.9273331469174223 -0.9906930992313068 -0.7509300161319132
Ni 3.825883230468562 9.071641356609861 8.607477070460394 1.6728224516497383 0.5343695964012282 0.4832470666938001
Ni 1.5272062956664731 1.536075273428303 9.99920134627712 -2.261788395239608 0.3891570322859104 0.187078094000852
Ni 1.708098040625974 0.19015479599793259 8.026361524614602 -0.4764107604982569 0.7473476980972936 0.5393233408620776
Ni 7.26709318282399 7.32240318384498 0.9811781772832627 2.2819777257032894 2.3953559189168296 0.3488444487097928
Ni 3.5705088413852932 1.5796841861416686 1.4441919185234997 -0.22176356119817933 -0.8040081269038153 0.2269852146084349
Ni 6.911178869365022 1.9343408189306286 6.6519811310449315 0.3166763486176804 0.24187730122891893 2.383610091234811
Ni 0.22179152034813954 3.818420991826519 4.758456242124941 1.0980050316461092 0.6223532608010636 1.3887867718852147
Ni 5.916670208594994 4.272425081392948 8.09804093826722 0.09166239880300342 0.07041454516782067 0.640654887323729
Ni 8.478034712672615 6.179152822502082 12.992276385526154 -1.289163723474238 -1.3330306000605172 0.5970176102497525
Ni 2.3284699924515966 3.3147431738713555 0.8620590487579671 -0.5304977721506476 1.067179304514504 -0.03237713077912489
Ni 5.590567585091756 7.389404957020482 8.241291698196367 -0.0609567421890305 -0.08227941492620669 -1.103931167322557
P 2.196115405201268 0.624916371313249 2.9253223841327705 -0.9455933786791908 -0.39201532767031194 0.31992416613101676
Ni 5.537102182386777 2.5937940330575904 1.1401182706669242 0.04811125368493004 1.6598075274473092 -2.4550217102085785
P 5.7296763833476785 5.161158139738804 4.271954615660834 -0.2104332237870247 -0.2482292115888757 -0.43884694331187
Ni 7.8869993269940535 5.318200532733721 4.120114362563192 -0.4735408951496296 1.3648780835884171 -1.7645018197336062
P 3.1807209952141284 4.274251047402736 8.30603150939648 -0.33055824880609525 0.7270969182680576 0.6219735088641417
P 2.1909542563776823 8.099118817182182 10.71190941804875 0.43180597730468856 0.325383132363059 -0.6880143504442989
P 8.377876750574476 4.306047077971144 6.883260221721482 -0.17914906896176244 -1.6907908632027009 0.44770799324692573
Ni 5.049345670098596 3.4754840796514053 5.926168958307137 -0.6544051470302858 -0.028985845709388787 -0.8062262176010567
