# total energy = -340897.1671824633 ev
CRYSTAL
PRIMVEC
9.02534270739971 0.00000000000000 0.00000000000000

0.00000000000000 9.02534270739971 0.00000000000000

0.00000000000000 0.00000000000000 13.20950134790944

PRIMCOORD
 96 1
Ni 6.328164173411528 2.043698605054954 11.402745247203502 0.1364618145058811 0.26671364354630844 0.32972906803658053
Ni 4.802511215024783 0.3039157805475115 6.07224967810949 -0.9963952918224065 -0.09113969353031401 -0.02489727746231196
Ni 2.714949444360542 1.4516812494703415 4.716994287703565 -0.2931165590198694 0.1842164561823408 0.8519568868689521
Ni 3.2816597389639934 3.999400118609795 4.7496082661491865 -0.07741540196568603 0.7275280922682051 -0.1933821818420089
Ni 5.014498464784237 4.477012229901542 2.5903175842339548 0.6251022843011105 -0.6732497905406147 -0.4139324394583775
Ni 7.2980004258554 6.1221878019022355 2.680392309627743 -0.1664331640569908 -0.3049878565361586 -1.3254345328808141
Ni 5.11590721556324 4.5802260492241365 11.641110866124738 -0.11829568511981563 -0.23848344505602154 -0.9568810357778681
Ni 5.553455830529962 7.877607935202818 12.26632974996591 0.19484565376141283 0.12477152265214639 0.5825297010462226
Ni 1.872839842061246 6.485132933962296 0.4049265137126526 0.30959090252580873 0.6478485768586907 -0.416440807702528
Ni 2.7234422918581425 1.7517829201852428 0.34587640391185304 0.18739511102063855 -0.46870747831672827 -0.4206504749085013
Ni 0.5664160684308464 9.136805700527217 4.619309393329993 0.6267164228657658 0.006484836393395283 0.5353784972817166
Ni 8.560672948126214 2.3628888756183417 1.4150546036523146 0.015687585938585887 1.1674541275768668 -0.29006337401584237
Ni 6.873701013998645 0.7509256622854699 4.818548346500327 0.26551345259062015 -0.2153766838352291 0.15377408053208355
Ni 0.7303686391767715 7.566269712804055 2.444814619072084 0.49210708818759125 -0.5123167303662467 -0.19911137101630225
Ni 7.399129391010146 3.804335386446516 3.7914832984161406 1.291031887031228 0.03095376806903702 0.05362164198019797
Ni 7.5954937725248115 3.9679829006085745 12.579473943442538 -0.04985163341480447 -0.6818930680379095 0.302557392717795
Ni 8.253134395011713 8.852417151484286 6.90719586589354 -1.1371109965086352 -0.3421318125763076 -0.6858985896528768
Ni 6.8302710648398195 0.8560014098107803 0.5586840573243697 -0.8056860288268705 -0.7708059291202337 -0.9325830824624519
Ni 1.880132318977358 6.336819477078053 9.216532870494863 0.025859127154949015 0.0734787859154412 -0.951408185588755
Ni 0.14425205266116117 4.884596707044634 1.2880707392134272 -0.9973268024977405 0.19759570570272422 0.8114794955801959
Ni 6.459257276389903 1.9563603635732516 7.1055620684230485 -0.25876584945414144 -0.3666267123938783 -0.39304942536178117
Ni 3.2367406082567043 4.404177714167601 0.41548345708985085 0.8405015938441589 -0.23051302525603523 -0.11614572865634835
Ni 6.247279051973167 5.6367416931313 4.802142078507619 -1.4397393516736816 0.3146310360528775 0.074486144134033
Ni 5.376649366685117 2.8845717354018894 9.295803358120981 -0.21675736623283962 -0.0008068121720115137 -0.17719863010361095
P 0.10726349060014403 5.789161680952215 12.50789214527785 0.4790373994878266 -0.683507720823197 -0.6672087265528573
P 3.999264738469025 6.225518950680165 12.539805757128558 -0.4669917811772022 0.1756156018872072 0.7655716773044879
P 2.4605521091693916 8.474616305310462 1.3201116083964584 -0.4752465649868267 0.34609953897480394 0.6856401937851676
P 6.525774052221271 7.730928065350525 5.8470538392823 -0.5405996364713399 0.03589774233787366 -0.05174756488593668
P 4.7564278151068775 1.0482213539493574 12.598469582261028 0.17993994029417396 -0.17237986855872892 -0.09897050242864246
P 3.9486054897931138 6.115996416797715 8.120382434041778 0.028246910660835223 -0.0408435163789232 0.3726135261049324
P 4.640903428316984 1.0164792236102909 3.822327407154771 1.099181054232081 0.016242172890475255 0.0021232169905898916
P 0.30872989835327164 5.721697244135462 3.4698056433996833 0.011059600248271276 -0.9622176174994331 0.6301305907536374
Ni 1.3436298464509195 1.0675446127085106 2.38420944272098 0.6939703109174178 0.4268362920042391 0.44914858234819427
Ni 2.011848170603272 6.5315863729316375 4.922587082147344 -0.11575260698298773 -0.280653136445536 -1.365992913919151
Ni 6.010589439194655 5.648772474974341 9.13735534389874 -0.6528730266564756 0.5165991597916845 -0.06145836441579738
Ni 8.571683866242125 2.226624251262576 10.261986151832623 0.12306790969747838 0.4596589949612148 0.32570940535422616
Ni 2.4224200361860087 4.954985354902007 6.944366739877459 -0.4585529063812296 0.5609141796589758 0.4218367819071186
Ni 0.6345131817721295 8.99404282941452 9.094926305247338 0.16484602207552898 -0.9939072352932302 0.5268953995113699
Ni 1.3685578430379262 0.9226156593435024 11.261509464078681 0.07629954319368795 1.359027281234595 0.6355831292277763
Ni 3.9537409097996328 6.810469462916615 1.8257907304725183 1.121412869047088 -0.020580138144196816 -1.0571070078801665
Ni 5.708637573222572 7.8441690404327735 7.864791948543313 -0.5524069135189131 -0.09092603485761114 0.7739473029626929
Ni 5.230908132475492 2.8292373591980744 4.956164967195244 0.3883772166970924 -0.3586866316111952 0.02771289253423614
Ni 0.8691693848362846 7.1884959426583865 6.994285910450499 0.0873131206953722 -0.14995933477168366 0.028918997027195355
Ni 5.078578398081756 4.450161835315609 7.115508898632513 -0.365720398529525 -0.12068526839791473 -0.047376175291118414
Ni 8.04583129812288 7.114289574831315 8.954655331259069 0.9543225310220728 0.5750583323698418 0.016248086427746212
Ni 4.577888485460185 0.18286698147995478 10.355483287185063 0.10934207547095362 -0.0036784772928517293 0.32723792618361064
Ni 8.234713670524355 7.259182426825452 4.602560162314001 0.22218265101346896 -0.023651835090985073 0.7448462718316785
Ni 7.387504749589413 5.904568738286775 6.923654480874013 -0.3528106324463924 0.3506593904313445 0.19217787712126258
Ni 2.265342971522626 5.158588061276475 2.5973311780600814 0.343756235553608 0.3985754973863329 0.01514714005408359
Ni 2.300153718385799 5.243281877341816 11.393339937557114 -0.3612140260187392 -0.07162322076394116 0.13389122556522748
Ni 1.0381580968188318 3.445866824374565 3.7316976231838277 -0.5697366630466123 -0.687306525743997 -0.19411031825728509
Ni 3.561860528985792 2.5955622108873615 2.5847823415450297 -0.3188152493375542 0.17754418636848776 0.0142433972928916
Ni 1.2392607832604252 3.246930220185282 8.47203234969031 -0.9543988927859628 0.17546802056574942 -1.0178676027635696
Ni 3.5367430002017084 2.5510492206023807 7.126816750523846 0.3682045984039594 -0.00893149816167494 -0.3821106669620903
Ni 4.183742743624136 6.728077109244355 6.00379786879939 0.5024346953658443 0.543764921573199 -0.29915736589731057
Ni 0.683872781096655 7.381475820653815 11.067977235108913 -0.8383485520568981 -0.07553078334846346 0.8978731897850925
P 0.15271962919915164 5.423138907025331 8.09775499731358 0.8654420658395804 -0.5687938395173687 -0.6105236151559873
P 8.559084487807853 1.5206890198918668 8.142508061714858 -0.2442424590269858 1.926711689737869 -0.6398336769740142
P 1.8771088291668412 3.15569303064942 10.60326685123249 -0.7674406121924267 -0.040439853182601314 -0.6599690142713086
P 4.057026931863972 5.835651221292429 3.79696529158303 -0.40600958506687496 1.9627873524145034 1.79047356120702
P 6.861787561610937 4.134094333332636 10.406854635401421 0.2432245592854327 -1.1311689199925874 0.27910430390117735
P 6.4230746774336005 7.744547307511927 10.158991648338073 -1.0764859266274105 -0.07690966597386109 0.25400185240659484
P 2.420064421736621 8.451051135473868 5.848916670019288 0.13927357292306336 0.33828467091607545 -0.38659518509600516
P 6.833095997110542 3.890987701881654 1.5708211885530496 0.4750545035806786 0.8426862602003035 -0.4322042411843718
Ni 5.172387810292237 2.9242290913046074 0.40335700661399926 0.32626682051959294 0.14006084471104913 0.41718205674392667
Ni 1.454325674886704 1.0665066982959452 7.070967027250834 -0.17018620334151982 0.9803140699898278 -0.9719808675337841
Ni 6.866273156941764 0.7004225520385788 9.223045557800145 -0.49933317362238516 -0.4164462070191666 0.039336592816093544
Ni 2.8079104743555336 1.5950578438878604 9.272858229329112 0.044787331518019634 -0.4641764232155942 0.4182254104067765
Ni 6.380854124198981 1.9908642487840142 2.7145523292809512 -0.7309571725544122 -0.24737483400838042 -0.5471114694479287
Ni 4.003551776260056 6.696705017956724 10.328350399372058 0.8821524366157257 0.6070084029138771 0.16182728985386322
Ni 7.997969905689537 7.484581335863796 0.16692281103440593 -0.24339425209407764 -0.5963434670008633 0.35225398861197393
Ni 7.567027841592364 3.732078492646526 8.305817125524992 0.7128247246197594 -0.09888951267906196 -0.4427161964592891
Ni 3.0979218119117555 8.546349729232812 12.508644858860526 0.780883882181526 -0.6507413250254535 -0.7722997400569409
Ni 0.002173302526484866 4.625334712128503 10.115955204121752 0.5999147292918894 0.9902439275090301 1.4747984001603438
Ni 8.506033523311682 2.353367139050894 5.708288292459387 0.8958489602662121 0.34758512238139494 0.44352737950667487
Ni 3.793739634095631 2.6867542737096333 11.391649490866039 0.011825274769702214 -0.5974456989261065 0.1926684436044359
Ni 0.9830403288402475 3.509712098761417 12.572618293113974 -0.21848669021912048 -0.5231518733085377 -0.22048649425796862
Ni 2.9782457674716003 8.471340105903844 8.037307764460039 1.1189703210438664 -0.8855113257856297 0.08183898495467841
Ni 5.66204875411246 7.915776109557071 3.756214064142895 -0.7012840709700116 -0.23442932959130594 -0.5522202514294037
Ni 3.1097450108722837 8.45435441090864 3.371580130997305 -0.3574599582929457 -0.26659203036677953 1.457900853074057
Ni 3.401796075882764 4.189934128728657 9.290625519003688 0.28822837768963266 0.6808481717131629 -0.0733016369076286
Ni 7.290897481136365 6.102729163002314 11.37685514908276 -0.09185548865041598 0.41927004962120695 -0.3669149330582584
Ni 0.6489925390945532 0.017751044057684524 0.15692453637144937 0.3365718019900268 0.16455677296988433 0.4619575611874044
Ni 4.622157791491781 0.4621769701754908 1.6469346112964252 -0.12814815243386316 -0.9667913529130447 -0.5438194289602183
Ni 6.002872771170799 5.694494861183528 0.3205377542311792 -0.1339884132647241 0.6350992476128223 1.4161880467163028
Ni 7.7674897287009825 9.05882673944404 11.440894468338048 0.5497491641810919 -1.3418191448864245 -0.5393958459712259
Ni 0.16306628209102142 4.91443449007021 5.561965826178726 -0.07731898559713782 -0.24102215231747526 0.48021779294917294
Ni 7.887996104671189 8.922652368515452 2.6068817957242274 -0.4702097738938676 -0.25704475299797663 -0.22204638254592082
P 8.589833830447944 1.7296798558689581 3.5293016051307498 -1.0725822206976303 0.05861318165751841 1.1354063551127027
P 1.6606269587338427 3.2563707286682684 1.4954478439125467 0.6103958313288713 -0.40662073628831263 0.5950129211148979
P 4.752077599916821 1.022833064883735 8.320347927300908 0.31094098879579996 -0.1518930614592868 -1.2789399888637005
P 8.46936355584861 1.6846704717344894 12.524786684311598 0.018347135048620015 0.8243792343609996 -0.42759990964314093
P 6.285636758524499 7.745476917811876 1.450944781504556 -0.5986502607571689 0.059385026826536444 0.350270639633358
P 1.6914124027448056 3.1408643925638113 5.952703598604473 -0.5332732780132559 -0.6888257906020008 0.22881018363231564
P 6.861868789695399 3.905617782427468 6.039595085621637 0.8556353641618037 -0.1442625414972225 -0.30416484641423097
P 2.465254312725449 8.367783323557966 10.323132848746804 0.07152217640970263 -0.1986693983828772 -0.9817050368000835
