# total energy = -340869.3983995222 ev
CRYSTAL
PRIMVEC
9.26955754590945 0.00000000000000 0.00000000000000
0.00000000000000 9.26955754590945 0.00000000000000
0.00000000000000 0.00000000000000 13.56693444967394
PRIMCOORD
 96 1
Ni 8.96871398273528 2.1678065187091256 10.756625300677683 -0.17051736142869345 0.15043293197399255 0.3910804745608684
Ni 7.45505086515752 5.132507623594367 12.602745731711451 2.039505471202849 -1.9807480506579822 1.1461826197926002
Ni 3.086873872345618 4.3285310955108365 3.2323901663838006 0.2383777727160927 0.37865304743079303 1.4220488763724541
Ni 7.001027940255449 2.2964587068413396 9.499445276572471 -1.1285278828253145 -0.30003051253088325 0.6875145279897449
Ni 3.71896499625481 0.8125425261419622 8.422990106645404 -0.478254498575215 -0.037738137980722106 -0.7784719303059238
Ni 5.055755687739136 4.693223295070292 8.77318008354236 -0.3959421735285439 -0.7406787707175503 -0.641814711959785
Ni 0.06426120716381392 0.9553298624608475 13.254121242982142 0.08477801297834431 -0.22465888046810342 0.09821305543732763
Ni 8.541248339986016 4.968899934241129 8.421010129169717 -0.19509299388552853 0.9753104461276494 0.6092087529993057
Ni 2.145605928567426 7.661938118340234 6.936543336756597 -0.3126492297361583 -0.03395064591383185 0.28861789981856745
Ni 5.262624401806909 9.256839637588916 10.3270962544355 2.5153295059597003 -1.423146223201691 -1.693983916218702
Ni 4.005783643505113 7.303966347946845 8.539449118881004 -0.6478601468229166 0.6660476163652207 1.5651379663868656
Ni 4.3630416579732785 6.777603796545473 1.1318083323617882 0.9618422364378855 -1.3465695150872163 -0.635216747027293
Ni 2.91879825629163 8.809351750703504 10.248272572485627 -0.6411925049947538 0.00796733447619273 -0.5316208300114973
Ni 0.4048043556012842 6.293371383847243 5.586253388728071 -1.6323843982393498 2.8301466898814547 -0.7789234160210455
Ni 8.949674311691 6.861817726164406 3.109663079386691 0.7360587554470357 0.16899681101910896 0.864637310550098
Ni 6.739403950209796 5.6012691448744345 6.869427105891888 -0.7865223114142261 0.38856747833102756 -0.40112808860485755
Ni 6.960779521718805 9.140089561248745 0.3684797407418774 0.7880225501088365 -0.4312375063957283 -1.4501219804595866
Ni 4.365043882386893 8.363977322921354 5.626275630062436 -1.073051447024565 -0.1366505334779195 0.741130256432672
Ni 1.7277620864724759 8.11990987472471 4.050855939749373 -0.7700950190961383 0.8487188395476287 0.036813569283923694
Ni 6.397709522734498 6.619789580611259 9.324486087140933 -0.01561250972627634 -1.2425413956300086 0.6669845263571933
Ni 0.17112251959452138 4.598163983210947 1.1805393229396295 -0.2711146008274815 -0.1800021609906771 0.09972049322078955
Ni 5.4292261582230985 1.8379029683362245 13.562837365844864 -2.274559321752031 -1.6292391677421492 -2.4298025306304734
Ni 8.521800808413037 7.163439856695 0.8513754832528695 -0.06091946119319185 -0.6443768162600064 -0.4543992892241723
Ni 8.201027772148517 9.17659307856733 11.168028654242173 -0.8025893921794177 -0.4099657415011455 1.3008663566231466
P 1.4587039113355322 1.1996290495942505 7.9025081625032785 0.12864000446861715 0.4623483688679199 -0.26445518652943484
P 1.4309230475966284 6.320234561396574 8.595900723875973 -0.8087932069972845 -0.154798665141856 -0.23263598513630904
P 7.032831791936522 2.1692989174618664 4.799981715413078 0.23970137662352264 -0.6022809155312209 -0.04659070327534557
P 3.4354463114639824 0.1616471779482393 3.8254685037671585 0.15838663960343044 -0.05380727562844281 -1.6598113841020512
P 5.149721191816971 2.4622632813150704 8.134272127069408 -1.2702344906699026 0.39422159129301143 1.322852888196567
P 8.68066248434141 4.576621531649648 6.241305206491538 -1.6022281863709438 -1.1275565200509807 -0.5432141912760515
P 9.070122941461877 8.885111843909398 2.0092090251686603 -0.3608584424515333 0.21429630628685675 0.007079532554600711
P 1.0294677831094137 0.5803864592948336 11.233773917557004 1.8795075212482404 -0.8102443376215142 0.023682688328920506
Ni 4.733629296083933 5.250722290014866 5.079582158261151 0.08499681385736974 1.9892337195314904 -0.7302195230574391
Ni 0.9092063983994404 5.1026225703096735 12.41945691793698 -0.07483015773701306 -0.741148254154801 -0.05618786004547743
Ni 7.974498326685944 0.6470466279319969 7.669171154034416 -0.6344441305273267 -0.1957321701314242 1.0759166843875019
Ni 0.905074029679119 4.15818443787659 10.046993401572529 0.3067164091914911 2.458452333156682 0.555779686645888
Ni 7.537587004874302 2.5002870060588087 0.5082470552368941 1.4863758205852982 0.92062231055615 0.33662759492862676
Ni 4.821245153294517 3.499814118538706 6.193820971393471 -0.6107784114792707 -1.937596712081489 2.8729139056456523
Ni 2.2687149213323177 7.722041928978555 1.4159267575209533 -0.6602695762308628 0.53063044107377 -0.3805219823187317
Ni 7.571346733181639 5.223562486626482 4.211759699188483 -0.3291050612993364 -1.1550886640329785 0.734999975165218
Ni 2.9569795635123652 6.349943493089329 12.614210320390889 2.482708377490569 -2.331683577568849 0.9379456323259459
Ni 2.6037167283139597 6.102483386858506 5.040713049876109 0.20764126286418433 -0.29829193257322173 0.2079240842119258
Ni 6.107294287185663 0.0324360355005579 4.293351270999029 0.11523735790946604 0.9903578273790749 0.6907299496032491
Ni 3.5647844468490084 1.4953001242288229 5.3268531655195765 0.8356900313881285 0.522872394394906 1.6893901262004325
Ni 7.030532941683854 3.2402757789239027 7.304342691980144 1.0129208002812553 -0.7494431471737415 -0.9560179164466245
Ni 3.2997121814243533 5.12625067230182 10.42424863237167 -0.09743426828977413 -0.2214627421283089 0.07642578435890708
Ni 3.8610209644892777 1.0609379307215518 11.58636563679455 -0.8226038876281317 0.5317439858529229 3.411435833652357
Ni 8.52379376326918 2.962402254632572 3.059804910620444 -0.7102214826689576 -0.4158836496474773 -0.3474444830384726
Ni 6.191962425120648 7.020197385104315 4.676088518086187 0.4965399271479642 0.9464726959603506 1.47797782632959
Ni 6.675351308089068 7.161604484315852 12.010928981099822 0.4889088929652677 1.2637380843122816 -1.7993384677968174
Ni 5.657377776242997 1.0434555453323051 6.717042996723857 0.5200382673802205 -0.39577068094768614 -1.2907948313197575
Ni 1.489784737533912 4.643380884551746 6.757418408197847 0.7633214478177306 -0.843735013179792 1.4438988823680101
Ni 2.1657579465081587 8.245614343581325 12.476709412697396 -1.6884704425996402 3.871531144820042 1.3740813473542401
Ni 2.1223671479890367 2.353438676612124 13.320640514345758 0.19104016397239357 0.8495346505807045 -0.03634202896414386
Ni 1.5519834681605533 2.1830549407479967 4.212329776972915 -0.9889437206403677 -1.2744068768800374 -2.433763315050434
Ni 8.74899766201348 6.248803351529376 10.645010559176136 -1.8707264326215005 -0.46850024740192864 -2.1026286249155786
P 3.37534250082566 4.129105836091825 12.518929466108002 -0.2367006421239859 -0.5081034636158475 -0.545382402571964
P 6.378373225851163 1.3669167532632516 11.595414578797193 -0.14573732627053612 0.03589182880060271 0.1385660053330775
P 7.461029729725952 8.383109689540337 9.417989040300991 0.5259248080679845 0.7082378765800255 -2.2754576651965848
P 8.824609442299845 3.290711441120558 12.499053680979888 0.6038315478477924 0.9033864062938378 1.2338873194994362
P 9.114338730595867 7.070809168892908 12.460509934062058 1.5084777946906602 0.7396981519718357 -0.5025015440480378
P 6.387336887925077 6.507525970086781 0.4325342367741006 -0.865544909966032 -0.17523353595744015 0.15051597860610208
P 7.974498326685944 8.245095248362981 5.356537996362909 -0.46874655908477975 -0.6794921719059007 0.06227340411792501
P 5.393593979306733 5.600842745230794 3.130162705732565 0.8309412038492335 -0.23703128599052725 -1.3616372080536163
Ni 2.7967552626358385 3.279578702598561 8.614365682357088 -0.0321398179573382 -0.5585081413206445 -0.7100373916826094
Ni 1.5554780913269086 0.835249234121548 2.171645969413381 0.8960255950533923 -0.5307656811000536 -0.6785652892162571
Ni 7.11037164017674 4.8091576503530655 1.8434888036679107 -0.44136713863056243 0.07745268296152467 0.05031443198383593
Ni 8.564579816139108 7.314144322049386 7.6223784279236435 -0.11859161909367964 0.5224281077686357 0.1737032153558428
Ni 2.656358545188579 4.59189776236093 1.0577204673235625 0.0022980520055573325 0.9218762375679092 -1.9944692568988165
Ni 9.192481100071662 2.819224669944181 8.597094642878165 0.8655536517167803 -2.3455063423845544 -2.67639394950561
Ni 5.14084095576029 3.19286199246261 3.948167782091857 1.486061117558357 -0.2973884469223459 -0.8301356772288025
Ni 4.9298658277331135 9.190237867163816 1.7039254194372435 -0.94477988163896 0.5171205795127932 0.5849146563386313
Ni 3.7783643205253785 2.294947768973658 2.184845819251285 -1.1371133105014803 -1.267493694699972 -0.8306673813625566
Ni 4.845679706786592 8.343157896842747 12.660541422539634 -1.3423426214900624 0.1460970236028 0.8486537906376482
Ni 7.231839921269363 0.8322116001384853 2.4550042908599705 -0.8948827396982008 0.4774518001682616 -1.1793483079112916
Ni 1.7277620864724759 6.912855909596638 10.656908036189444 -0.6728659248386347 -0.9607124937088164 -0.8845466478795153
Ni 0.5694548701699456 4.61871459212291 3.864283848718872 1.2465021800499694 -0.09337578194968435 0.09003360495032882
Ni 2.2039856015162465 2.5237297169015473 10.859327362671404 -0.05132281864369226 -0.41901113953286545 0.3249437308327952
Ni 8.899053258344937 0.7468102402075896 3.913531153647817 0.6081700273221461 -1.547733140646857 1.3617145982587708
Ni 5.436233943670749 4.6036144830035655 11.603066598489038 -0.7017612677167462 0.9700738803190584 -1.3827053415778252
Ni 5.215117919770913 4.28124708285413 0.2356265891640608 -0.3326123031216465 0.29457745983611205 1.7358684722676299
Ni 0.35681400266533075 0.04977010797027763 6.180186379310204 1.72085322980572 -1.1931008816106936 0.17676128545587622
Ni 0.6304198226972716 8.856746998049855 9.17685077226501 -0.19569180381179202 -0.061993410983660964 0.03126667132376551
Ni 6.7189460368725396 7.470595913035444 2.3994750068333093 -0.9098601869436395 0.2729657951036073 -0.30594584957405374
Ni 9.158137389643688 2.2417683177657532 5.8332935840054825 -1.1237471736072195 2.113266564245399 0.7666417704402152
Ni 4.031052457169528 7.401259623156566 3.358291149858789 -0.0508960155189188 -0.35430084383867366 0.4785941413028209
Ni 4.509009379460271 2.782674804838243 10.340473152821088 1.0713894859411097 0.1929353241125774 -0.9866839780719135
Ni 5.961882739146897 7.929244347115264 7.395633928727756 1.0043441143558378 0.7556536468598276 -0.8719101900624275
P 3.25692390414081 0.6024257591365477 0.3310019929331481 0.5180950276109206 -1.302898556561827 -0.2445239948231466
P 4.560993057754489 7.027826230902486 10.761685552100797 -0.45898459460200947 0.1890868969007647 0.512825294571549
P 5.8768994362579186 2.4796437015721424 1.8807839411944722 0.5602168964816352 1.3083248697837209 1.8102317176705534
P 2.6143025629452 3.5151552361522818 5.198265864289656 1.743831178758132 2.1159027163166657 2.163075003127094
P 6.8769271048412195 4.4493412380230595 10.02866470558623 1.4038380097913823 0.4282059186582561 0.011644269107147687
P 1.4528084727843333 2.9254537985554045 1.7896011582692641 -0.6571636836120295 0.9024600378248263 1.5298313206657717
P 1.8352240662272676 6.182034729069809 2.890083021159706 0.08483046348283456 -0.06577318974106736 -0.18012865926621235
P 4.33959894713054 5.889802660256769 7.089930412042929 0.5262086578569906 0.183397045604839 -1.2775888741524448
