# total energy = -340867.82261086797 ev
CRYSTAL
PRIMVEC
9.25382603787812 0.00000000000000 0.00000000000000
0.00000000000000 9.25382603787812 0.00000000000000
0.00000000000000 0.00000000000000 13.54390979750497
PRIMCOORD
 96 1
Ni 5.53031781726838 8.261186673324637 12.412234667177149 -0.6699834610845171 0.08363721450568176 -0.8823421840290288
Ni 1.4264125150507425 5.793579915713841 13.48098495306916 0.8672433807143775 1.128538681458592 -1.3673391435343998
Ni 8.67890438304477 4.866744455978807 0.5971234868997118 -2.236619352173148 -1.8106801180618814 -0.7906643586070576
Ni 1.5699023424083054 3.5824336943720696 0.04162463513717616 1.4690062189585988 1.0480410410231564 2.0426206197930625
Ni 0.4644245461461508 7.926808921374541 2.906753552408442 1.068440944835747 -0.023891976126249173 0.6005351364847077
Ni 6.411911321247505 2.7414922484080217 7.343791966967017 0.5158645956185051 -1.0275102680596562 3.3238473478084116
Ni 8.81208544813764 0.8983623622375171 8.952673275633257 0.2879566120854847 0.6963344402742201 1.720373204845508
Ni 3.669188313969461 0.12456205147228239 6.106231534768923 -0.4951440752417021 0.5799480563619754 0.705879660760494
Ni 2.516476213194137 6.699168590745343 6.485271027579059 1.127445191284097 2.087033341580483 -0.47631640101223777
Ni 4.822353852223215 3.6981342819801966 9.339622938985459 -0.3094795737589251 -1.2917052589491689 -1.0769137581934485
Ni 1.058554420305622 8.295851505859233 12.07579053586107 -0.5181886157659915 -0.6648314845699324 1.2604151905866356
Ni 2.310421267639458 6.545351493470906 4.1350101878552605 -1.6824499474371732 -0.9151947117826754 -0.7205339203385591
Ni 4.407902743112988 9.09154174224128 9.7841748936025 -0.26314829479255325 0.8613768946312713 -0.4711034893527306
Ni 2.9024347917720577 8.90070934060529 2.3907435527214207 -1.1041358271341952 0.7160756274568892 -0.19134741080016726
Ni 7.301879537838431 2.1333678130520566 3.495533789705059 -0.2666614501521343 0.6557547190796449 -0.8415783718481056
Ni 8.787960723519998 5.931628493330256 4.098305812050344 0.3396368140685957 -0.6561241866039216 -0.3241790847526288
Ni 4.094790283518606 2.103746315736723 7.714394746530548 1.030421271058864 -2.160541438071963 -0.44013223778219684
Ni 0.5158110424260778 4.256574925056866 7.918447164119266 0.42199361919995715 0.9183736237312894 -0.5029766839122434
Ni 5.821831846767797 3.8019807183665355 5.586145224689085 -0.24812919567590172 0.42941228026153144 -2.69480484791263
Ni 9.057182285967668 7.135051561080909 0.8797186788132114 -1.0950382357083013 1.611881650300308 -0.7579614690573979
Ni 7.657365267100702 7.259237907213921 12.181121285952308 0.7012300778036247 -1.332438475002473 0.0032971826940330316
Ni 3.3596941003764207 7.016047357558513 12.973765162785401 0.7146185832953886 1.6087431046713263 -1.4775373963580618
Ni 7.533863704098379 8.797621717958364 2.524950867127715 -1.3539192705840684 0.5487649458909517 0.10535892245348953
Ni 4.774196941248833 3.0664125900937407 3.162828204129497 -0.45483534832032635 0.34146821085037965 1.4416139429885753
P 5.948711056293113 1.1550533187761924 9.282264023346794 0.8170104527007541 2.7111210685741503 -0.2386001731395439
P 7.351572583943817 4.7861343769054345 12.014585730099242 2.4506235811408827 -1.3849961944945308 -0.621532050451349
P 6.91494005369493 4.6506306014638765 3.699600088032914 -0.8924376205918177 0.12741127426783863 -0.10348124581480243
P 2.8047606573880075 8.355797791272767 8.096251104002599 -0.2833671929425894 1.2306927238215386 -0.5428868898436199
P 1.7964730204053756 8.872133525638171 4.325951784639117 1.548472589916043 -0.1920081843126177 1.1498320436197296
P 3.7482622579118305 1.7423381377766034 11.971475855874559 -0.20936518753382652 -1.6276432840099386 0.6078722935760692
P 2.053757147196445 8.662377049647336 0.29001213352494604 0.6344613569185074 -1.0350266310413594 1.9058669850783758
P 3.8356183762050975 5.032304658561947 -0.03892344330139178 -1.3729202371666032 -1.569595230827271 1.8579971579802905
Ni 4.773993357074844 5.822886782942102 3.244511727029356 0.5842474550682777 -2.3412354829233424 0.9857946334884249
Ni 7.938570534335425 2.2327909205671896 5.702460266349614 0.6422577130344745 0.9777290828714711 -0.5433476315301223
Ni 6.800590524695999 6.310609687036023 1.9457048468520244 0.8128326671739808 -0.5942742431766603 0.19134406836605758
Ni 4.151081307626439 6.382983860888951 8.181740725573434 0.7771251864700423 0.7477279642548477 1.4194785445421167
Ni 1.6061218177260856 1.4445407603618134 13.078758148224338 0.327292690680946 -1.7144169872620734 -0.7382233671985222
Ni 6.111763472005756 8.85281153676144 7.838645869446193 -0.5217058848906305 0.9231386492201005 -0.9911201594663964
Ni 6.2099373129986875 0.7639329560050534 5.630718128818659 -1.6871941469903782 -0.4006498634168584 -1.0316867680348492
Ni 3.1735348809160766 4.285511639241511 4.704870052327471 -0.6136860720443689 -0.7094077285184105 0.8175120749275211
Ni 1.5465364315300747 6.594239456706428 8.538920830392856 -1.7304352170672004 -0.9981207591539457 0.4675481679013045
Ni 9.280292033006933 7.1947757546682745 6.35247307088633 -1.0217209150713888 0.032572534619382615 -0.37257804488130675
Ni 6.295063259204171 2.641356596283929 11.093301640635833 0.4320582025248107 0.884162010846587 -0.7122701376678701
Ni 0.566274932244793 3.5493605199250218 5.018898640704801 -0.992396969296291 1.0485573185379424 -1.1000853112139055
Ni 0.967404233315296 3.556356412449355 11.420915771096464 1.4676869859265433 0.7145514775028791 -3.3652390233813203
Ni 2.444573984471819 1.9371311769792796 3.718087381796292 1.105864636899844 -0.4870949796849805 0.32625705032758007
Ni 8.035559885588786 4.644375015026774 6.437961767074558 -0.8443230244727781 0.7566769459180194 -0.5130217268530713
Ni 5.802954041543404 5.232575962810134 10.524349576503091 0.5227260986250288 1.8837205308883236 -0.05199516212036852
Ni 3.8801477873520462 2.594856120179727 0.7143463288997072 0.781297829790493 1.2458339503383513 -1.9154026924829528
Ni 0.2763053663198627 3.072381307922041 2.594281457579514 -0.4057560742951722 1.7419727853931546 -0.6922900950015174
Ni 5.718540639946881 1.5359500544826703 1.7375613127487448 0.6287488799147624 0.5058334366347482 -1.0155317555415415
Ni 5.740407430998469 4.048641452805839 1.243455119417673 0.770328475263183 0.3944311362006562 -0.049280848512999
Ni 2.3864692104502705 8.12665454962257 10.21392257724014 -0.15480843533386887 -2.9443854313230773 -0.7521767440548207
Ni 3.1138939717635234 5.432699205840874 10.205200846149948 -0.7795271110433155 -0.5871962532839565 0.5328084225616954
Ni 1.9606358952488663 1.556530563707694 8.385332302622853 -0.11138661670480818 -0.20804801138429976 0.516907949281355
Ni 4.96353022305818 7.753956703832176 2.066381216748953 1.2543589570902267 1.7641084409499297 -0.9291555448381418
P 2.179831273851897 1.9995759954372205 1.6522216031605736 -2.0043024409391546 -0.6491750089795981 0.11408807479637124
P 4.387322233887964 7.143398512214438 10.611613156535455 1.064927789476166 -0.5794266366408667 1.395885330603209
P 6.901253644907245 8.171183960769518 0.5363563871119581 -0.1603144527537626 -0.6834655547313521 0.02432494989860972
P 0.8011916359927844 6.476512281184506 10.680185858630448 0.7917136258071784 -1.1361653447659144 0.6791160195134045
P 8.267155391152937 8.263611175760317 4.521864536798731 -0.48440329178543023 -0.29271880936081845 0.9365294687047097
P 4.98376834071786 7.612215849605698 6.391763891083511 0.21591584416815074 1.5342009104883771 -0.6691378252547703
P 0.8256124830453195 5.407029092266136 2.0488415147772305 0.7884830346850228 0.6972291841743475 1.6229559058365985
P 5.42691556453438 9.825712542774427 3.392572944475571 -0.3343794223243983 -2.3154712294750444 2.956201707231715
Ni 5.722695607861466 5.653051312705203 12.829902406236396 -0.625779255763477 1.9778553024912195 1.4508336618146305
Ni 2.5380746432891037 4.003519796789105 2.458612038650938 0.5116901525258414 1.3298486027881098 -0.49116477887897986
Ni 3.0283238419057015 6.420739471337735 1.8026268147554838 -0.9350163744942929 -0.41131634199176903 -0.6524295113611538
Ni 8.796714843001505 2.786373304946406 12.851667405200988 -2.9920225735850665 -0.7693792239760363 -0.30744891648214145
Ni 4.160436925803821 0.2174769430980454 0.3859456232213938 -0.5320476331362708 0.17873974933848572 -0.7705099951463698
Ni 8.283469886550293 3.2008151602305417 9.408899857245933 -0.5716400507169123 -0.4104362533796609 0.3002081757593281
Ni 4.525139465852119 5.659112568794407 5.948905386641011 0.6166747223590475 -0.13269566259522952 -0.9917523937337565
Ni 0.03418733510833099 0.9258453003433617 1.6369037448331538 0.8300899115925316 -0.2583812124212131 -0.7417846021872193
Ni 6.246860079099338 1.4712473024586743 13.209145483220519 0.13395756002678866 -0.046002434872043356 -2.1118761116557754
Ni 0.2918508687691062 1.2012761800976828 3.937282760399323 -0.9999958646894714 -1.569052985170556 1.8823012819432936
Ni 8.396486864592205 0.32751048760841794 13.077972498389265 -0.41376763174573905 -0.7580350026078106 0.6035235296890703
Ni 2.0741248184213896 2.3447252009565283 5.978634228338993 1.2169488918728848 -0.9327684590003806 1.9417552143345524
Ni 6.544824025383754 7.659021701970881 9.755732333731082 -0.5094090698011485 -0.8338300953612543 1.223022094650158
Ni 8.833619101449974 8.200583366258684 10.319985304975125 0.22880529853630915 -0.38406701935751275 -1.3542314025078483
Ni 4.088664250646769 7.863429466481471 4.286999654476846 1.507997512620132 1.2378244497703133 0.41625028895827665
Ni 1.1818616529600476 0.1109681809455018 6.508850701839978 1.9827514542412565 -0.35722033147831384 -0.6555266622292388
Ni 8.070058149253754 5.56318740754144 9.701868588206757 1.9499416068000872 1.2069624700841342 1.3380190544140442
Ni 6.5824130669629115 6.5458882153841484 7.495064262066597 0.8760329539815493 0.42673807586347795 -0.7025292562310224
Ni 2.0399504386695853 0.8922751954352596 10.696085782618955 -0.33516412300922277 2.756987492088961 0.7564314055661167
Ni 6.604631503405934 6.755283792157457 5.013495331650624 0.1989920718296186 -0.13046034550680755 -0.7522320227727883
Ni 4.304953927857417 3.7328083683408817 11.768073056877386 -0.5219601669932816 0.8638878339785832 0.6144784860386773
Ni 7.04620557678709 0.41545700000625146 11.027004454376463 -0.621682202875968 -0.2355199915523234 0.033245135206374996
Ni 8.257124243670956 9.56373672615553 6.904861711699887 -1.6479861093323487 -0.9212702285527941 -2.133417842382294
Ni 3.480160408421097 4.180286382767704 7.480640323339509 -1.640084080876453 1.041314006711968 -0.5330454782731658
P 1.1073498452802402 5.404225182960748 5.905306910398755 -0.8792689444203438 -1.8398701093622765 -0.9322532099268589
P 7.712601355034231 2.463535074131025 1.123020274381704 -0.32849519562947943 0.4206119083610821 0.935712629230369
P 2.047510814585433 3.6518744053543446 9.202978166786956 1.2684110643079187 -0.3304299507583471 1.1709521134277963
P 6.650678542031707 4.7400688306274805 8.425571639994297 -0.8242987588320513 -2.876616294197904 -0.21981620766382143
P 9.071137055711974 1.0861770911854314 11.20941402350498 1.483609827804387 1.1517619136525905 -0.7250063542876158
P 9.376254209564262 2.2318840456103315 7.262934810737031 0.19586021106885623 -0.39798671476239844 0.034682896094166075
P 8.368882701364578 7.8709435732668664 8.178977533102843 -0.7277566633392434 -0.2186846651625395 1.0775750459265312
P 4.176695898244634 2.279948418323809 5.307681866124944 0.4444825443310926 0.31787705379400094 0.548545630791294
