# total energy = -340873.41561639437 ev
CRYSTAL
PRIMVEC
9.20345873791419 0.00000000000000 0.00000000000000

0.00000000000000 9.20345873791419 0.00000000000000

0.00000000000000 0.00000000000000 13.47019216280322

PRIMCOORD
 96 1
Ni 6.9834830524226525 5.524403559706129 8.567742465234513 -0.7427942743986562 0.8813399680167595 -0.022019955914516918
Ni 1.195612086966435 5.671631284923027 8.679222117044679 0.5383730611336663 -0.2676595523993455 0.054040474685171445
Ni 3.1196503018157147 6.035885764427585 2.7084112464528842 0.8928415408984559 0.049073874708515486 2.416995865784108
Ni 3.9972921019459537 6.996892491420027 0.7582922709785096 0.33414828015019876 -0.2750705001514359 -0.66902161139188
Ni 0.2733703270686713 6.4964452334095215 3.5974303619493253 1.5377004390012032 0.6778669775976519 -0.023353072903643652
Ni 2.7142103456376794 4.560350487958621 10.712601099954648 -1.6066630822138461 1.6590567653242134 -0.7285274800669969
Ni 6.781338290488291 0.5118816348192502 11.782982647804136 0.4226219968125754 -0.5624516993494248 1.7691395756159336
Ni 1.3814207101085219 4.148026344841645 2.7906192985848404 1.231831979632304 0.32967893152493544 0.38205256003064525
Ni 4.729215544049115 5.394027366956077 11.83395416187357 0.6722540022862487 -0.8748420189972417 1.1809593611521532
Ni 9.162282201305123 4.557304143203554 4.760042528209521 1.0402577975333116 -1.896475773671463 1.8959016463355476
Ni 4.043217359733809 0.892258732879472 11.067486458732144 -1.0662238825797703 2.749643907239697 0.1548678278168946
Ni 9.04295936218297 9.1233883857918 4.158732728085053 -0.09033468113051539 0.13722903168920883 -0.09814414987260517
Ni 0.7889996101787461 8.636921181204091 8.69623471003483 0.444495399846899 -0.35456978122934424 -0.6542421390898603
Ni 1.3803162950915795 6.213125967729893 1.3420970930844396 0.7260864747256722 -0.19027140412716909 -0.8445341120423197
Ni 6.489680691430748 3.640455609971859 1.0106768720335801 0.28820035266517463 0.7326939527398607 -0.19809372838506528
Ni 2.460480198953634 8.047706566206838 4.380330840197007 1.0751422681153227 -1.395059492267804 -1.270445064018812
Ni 9.19762348184728 3.3419322308923247 8.43022530905408 -0.015611481285011823 0.6385859206098422 -0.010850569561258733
Ni 3.621376840554179 4.20747148312857 1.2342279580338265 -0.2714640137471002 0.7029164643671121 -0.6550036998462332
Ni 4.492714271629372 0.47993551010834334 4.093618259377823 -2.443351987180134 0.7426816600801919 -0.9074667470107984
Ni 7.076704883311066 8.32268749850855 0.23053282959901739 1.038848833000927 1.552047708861811 0.9998475120370651
Ni 1.2442799753796976 8.778856917798139 6.094116966541721 -0.6871568875400101 0.5889106648719018 1.70894413707296
Ni 8.048470453260222 8.570674687104495 6.538336615347995 -0.1527150431399499 -0.45948853082162155 -0.014840921667574442
Ni 6.169161046597111 7.7800239764754195 8.121717097875539 -1.6826168120323408 -0.04699128114787391 -0.7425785588434244
Ni 0.4788329357830958 6.310866696729298 6.336768910259987 0.13729947991582805 0.09489016171168174 -0.6008729794401007
P 4.0134349681102615 8.456699057356037 2.3030255906798485 -1.3473418744768666 -0.24813690898538554 0.426974103133684
P 2.6350145854644333 7.557898506192876 9.559957199568204 1.302592338175318 -2.063387677137085 -0.5731798844002064
P 5.499765901369838 2.8328981461250913 6.146124790035387 -0.5975935373578805 -0.17409685124983565 -0.41236766607441877
P 6.085400371020503 4.430692164969581 10.487675937604156 0.4272998619042189 -0.8612182575662201 -0.8184908939010226
P 0.5296323451790571 8.21548561419734 1.7060809909098464 0.10320305245275128 0.5614857358917298 0.523918062050601
P 5.382154905523946 4.628962270886168 2.598844073313722 -0.7152186787732329 2.12776372942031 0.5575797159691043
P 2.497146777516122 5.310496777841332 13.028194013181455 1.6766030017380933 0.2962695028265543 -0.1353248726879605
P 5.330661555359006 0.5285730271086398 9.107775638835625 0.010940043951271482 0.5698893865743927 -0.2605687069908351
Ni 1.7195373675454422 2.356287845563592 1.107501856914769 -0.4267064512945942 0.11237597720127097 -2.096399099066099
Ni 6.500154227174753 6.170081392444564 1.2260350392998087 0.26784724293011936 -1.2914818300844533 -1.145340326396963
Ni 0.42107111005116005 0.9211925656316684 13.019735114497522 -0.2663701441639606 0.0011973627422108412 -1.3652776330196807
Ni 4.538832802045192 5.959331396836527 9.440098719162835 -0.4261426083713241 0.3748516714068318 -0.5840726200533103
Ni 3.28841411986299 7.174049863596066 11.956519379416298 0.5227541236494868 0.15960894204630577 -1.3290695585302401
Ni 8.333041389292385 5.072771445444478 10.335718555077202 1.6044956422488819 -0.9965169050019356 -0.8657529122117801
Ni 7.223592080564407 3.111146306185258 4.829804743446384 -0.38052481053220916 0.011619843627115472 0.9021725884913945
Ni 5.516856723757022 6.93489799513566 3.2770285213841612 -0.6198294659379454 1.3976048843974769 -1.1736875100810884
Ni 5.829516615053421 2.610395334045092 3.0500693947107997 -0.34166258624937285 -0.26998408676746405 0.9193663266618617
Ni 7.767166744986516 7.604863754788352 2.5570603718394005 0.27449662992583695 1.1281293618353152 -2.332341779978138
Ni 7.76149741456621 8.490705836419389 9.425618917944872 -0.05832187566934472 0.7469190952003072 0.180513810519773
Ni 8.748347452955105 3.0735409748583686 0.40002280051993255 -0.22024763877428524 0.604710608018636 -1.472061460845155
Ni 5.604298782723438 3.0708259546083854 12.447521127994404 0.5371098781505266 -0.8971008303954421 -1.0849569402128991
Ni 1.8576444654140911 0.6464214721831751 2.7723541148963076 0.305640402518493 -0.9064773865143356 0.3905881083054822
Ni 4.316477245300786 4.130061193899381 7.4671735735886 -0.1827036190822402 1.283293637846706 -0.5187362607393453
Ni 1.8431122044828239 8.252603162225078 13.356369094774198 -0.4137766306068035 0.3924781262393434 0.7579907796334365
Ni 7.074532867111079 7.016228957674994 11.012474626392395 0.8612928195578974 -1.0573008690585275 0.2868104142961835
Ni 1.7008175330082682 2.207007749106875 10.148981302975034 0.2408959111522561 0.822474561139119 0.24638675906349827
Ni 0.628511541991759 4.8888403278311925 12.20144825876116 -0.35279880537185043 -1.50287921755696 0.11500261619084065
Ni 5.196162213212369 7.8154849019777455 5.602670690919296 0.4910624489731608 0.20901937415863356 0.8214754304506433
Ni 4.184867789115148 3.0000697658562743 9.917926637280514 1.4775088571129715 0.3650639958924487 0.08305100298490858
Ni 1.8599361265742467 3.7047601743333316 6.22992319979174 -0.29523257692160765 0.6197297071352875 0.9332515692843862
Ni 6.983584290465871 6.0360330197631775 6.237331983863729 0.004087539805812315 1.3693721148040285 -0.6758823430674553
Ni 1.9345025471348087 9.093587587251305 10.920783330648293 -1.1634825445236283 0.3710011873124901 1.760584486957071
P 7.219478134626296 7.600952284936681 4.486759633996358 0.24900337075073892 0.5041653049037059 2.8131031041356067
P 3.083048147462548 2.5291564060905034 2.623305945593149 0.9805099880507178 0.32014193856877765 2.654793597627015
P 7.973499080526781 4.2137390383497175 6.765390537643643 1.0769176148481905 -0.23760644176770696 -0.6538528740712417
P 8.694672883131704 5.266209735661942 1.522602683453508 -1.3439827281966465 -0.7061583683431775 0.08232620900374209
P 2.6792003896006045 1.1854422653520904 12.889761112882807 -0.44493094472242084 -1.7408931791757307 0.005888083349660828
P 4.932409500249571 6.227630618285737 7.186589575767599 -0.2380417295329126 -0.1344985201319232 -0.17033429888360987
P 0.3725357514399308 2.2469875727201907 3.9273964365612106 0.08908692476634335 -0.9339876761194624 0.39762161811349583
P 8.763919704693993 2.922346559038952 11.626324138688396 0.024669991942854286 -0.3132891773130024 -0.3566233213242632
Ni 4.034096732385559 1.8702808138996074 7.843274744841558 0.47120093416254333 0.20620067376291584 -2.060118262357194
Ni 5.949327237474723 0.21490443676343474 2.2981624832219123 0.5670539740081266 -0.6003968111346305 -1.2492815425673194
Ni 3.2744064560647703 3.1013262159929447 12.391458260696863 -0.23308515685858566 0.8974756972363576 0.38400865531575157
Ni 8.849594699633302 0.893390758271838 10.524179614951645 0.9911471560495897 1.9949983899294093 0.22026589360673032
Ni 2.994326807768174 0.28439699066699387 8.876654708240086 0.4117886536424973 -0.5833830501854533 0.08724550068223039
Ni 6.610917849915602 0.828365563111811 4.417360955369238 2.43159921751958 -0.7949596435483018 1.6862194417819347
Ni 4.611466496326106 2.101278418151588 1.129130904675739 -0.7603924470963936 -0.2790968477020096 -0.20183956858074267
Ni 8.731790431159444 1.7454819169851143 5.98560082836035 0.9118376223849844 -0.2172582171286581 0.1028883494258099
Ni 6.700936877254883 3.2905309153121296 8.335570499681184 -0.9399575205496522 -1.357499531736159 -0.8556528476633005
Ni 3.737653334921266 3.5710431261570283 4.727754034843361 -0.19564063885888242 -2.0843149142080555 -0.7232770303013349
Ni 1.3794235596195508 1.5696038255370348 7.648038098838174 0.27719397425234193 0.2111320496262622 -0.2928213963769538
Ni 8.3486044375728 3.4626447922441304 2.6618988080143544 -1.159644658834777 -0.7254665817534861 0.14719925552804328
Ni 4.721769946143229 0.2746947047431547 13.267034804745421 0.303209167369181 -1.727750985366818 -0.11312982464816
Ni 8.737478168496697 0.9878624188210923 1.750761020766099 -0.6627008113801748 -0.10568802365813411 0.7574248798276375
Ni 7.218134429689017 5.2508215530925435 3.9572460134316216 -1.5457631614046796 1.4853841460959902 -1.5153773500239707
Ni 7.325069413704465 4.963572410644296 12.331260279506722 -1.1263943814220794 -0.7720050916346576 1.9498251358268806
Ni 1.174232452930125 6.759093531355376 10.843801002238171 -1.4952317283140315 -0.31484032385020616 0.6250236085443751
Ni 6.117676899890645 0.8796960120617521 6.924311256852419 0.38966071139520636 0.13296999930253875 0.6480336962863034
Ni 2.6958586494394865 7.1105552035803505 7.071500327543725 1.2972585846672302 0.36526942703503545 0.3376884320929733
Ni 2.2635630014328014 1.5341060862008107 5.113366060083891 -0.373510326887589 0.6279112145048154 -0.3900121811973541
Ni 8.800650707465804 6.737097265601273 13.318894452557647 -0.2203653952990721 0.40216835694391384 -0.4047749413288254
Ni 5.224380016895247 8.346561269791454 10.81230768768421 -0.05416285919564866 -2.1688504721582906 -1.4375657410611307
Ni 6.727001071654725 2.1604014353919054 10.385490858507406 -0.28603959756842995 1.4018832000578567 -0.978090837086264
Ni 4.48794688013957 5.631310933346155 4.765241561901777 -0.29303479793934045 0.21382785129087045 1.6517131804749488
P 2.392494251202354 3.7083035058460214 8.577319584123098 -0.5851802512951922 -0.639705378926266 -0.041544913321322
P 8.222691922182888 1.3003750547818975 8.174197058788947 0.4115834796102266 -0.4219262562971314 0.32043401588789977
P 6.781872091079814 1.4118013265329128 0.6925096311860297 0.2085257223516667 0.38653913504708914 -1.2058178149567296
P 8.871636982679776 8.251333084955595 11.647755312092164 0.2092237768599558 0.5345801697501373 0.15160509790522278
P 8.668654706024236 6.972935889010851 8.149115793754184 -0.8599869562622802 -0.4960002525944103 -0.19616540101410088
P 5.712807558138031 7.200638655128953 12.656296061413808 -1.6035129666206385 -0.5345043222068795 0.8117702873477374
P 3.6064304239915583 0.055648711666185936 5.9668368172224975 -0.9918284983873306 -0.3072218880729999 1.8816212251571336
P 2.105760502428679 5.5762650482100495 4.7676261779925255 0.1908714996050132 0.04263994615771366 -0.05532782603802729
