# total energy = -381167.700032835 ev
CRYSTAL
PRIMVEC
9.25492614971743 0.00000000000000 0.00000000000000

0.00000000000000 9.25492614971743 0.00000000000000

0.00000000000000 0.00000000000000 13.54551992238055

PRIMCOORD
 96 1
Ni 3.5264785883730414 5.527421408359544 5.239339617011376 -1.030043061783839 0.3210901614146599 0.28855902155617397
Ni 6.828460430704573 5.1499314764825135 11.01318546817609 -0.3819283757479552 -1.400208383458595 -0.9678174801847139
Ni 2.260904443417263 5.23251318340952 7.416294475401911 -0.20737258258382996 -2.58282662037041 -1.1174708536802045
Ni 1.0229562533171512 1.654447636120068 9.598640328332959 -0.2544826486977553 2.961308689440977 0.6889751716956715
Ni 0.6370267541929248 6.404908730882266 5.751901495533804 -0.14480401582298932 -0.3718043999400758 0.23136971682937568
Ni 1.8346040304987639 3.46450760220435 12.759189313207601 -0.5076532634523064 0.535449202618652 2.184611077426657
Ni 1.397410569384245 4.165170303798306 10.393016562147185 -0.09417488081221201 -0.5935713035723648 1.255680761225444
Ni 3.4276822506563778 2.7193194504225837 11.323336556659545 -0.8643187508684147 -0.89313747487232 -0.1132943752504823
Ni 6.722121328094318 5.577055577837246 13.43267214739113 -0.19082007754178748 -0.032765624466795186 0.5847984424757413
Ni 8.832892357887252 7.496508772194218 3.7287163112911466 1.017108870220674 0.30015109726914757 -0.7432138784345781
Ni 5.77012259433442 2.554729841996059 10.61566509941661 1.731339731159341 0.7509426145374034 0.20167630353000107
Ni 6.683528285632633 1.1654265880066432 13.26505988005142 0.05900167534518871 0.506193133967012 0.1215339895514552
Ni 2.709462953966542 3.3479880807193103 8.72448015179704 1.8192141236748216 -0.44413107452894474 0.6698284235638916
Ni 7.783883487176901 7.851462958652973 9.730709051410296 0.7935583923254012 0.5882015546200192 1.4785861493375505
Ni 0.1219475357305502 2.387650658408337 4.068870945183839 2.069888197259764 1.2609957456804541 -1.8300569799265964
Ni 5.954277116853031 6.723296703728043 9.17726631265723 -0.18592649689491206 -1.355022788060892 -0.48205073239285373
Ni 1.5109685144693472 1.0397261796817971 0.05499277177633888 1.6217500584539553 -0.9993348340667046 1.6706488410371874
Ni 3.0438156745932328 5.339898092686003 2.5501199632310314 -0.6141470708411875 -0.010520182805033494 -0.6861562141896377
Ni 7.561552393877845 2.420079919987652 8.245239709744409 -0.7207015562646749 -0.15725535421246467 1.0931446182300142
Ni 3.4995837726911097 6.974345833180243 7.506182021110513 1.4715266713876076 2.9094325693969765 0.5333282996209072
Ni 5.048210582070912 8.331793631017831 13.268433300669475 -1.4263279633637822 0.35398074149509356 0.5306008733874152
Ni 6.743888914633859 8.74008395745421 2.5753285313502494 -0.59770846566919 -1.379379876749018 -0.6251704185348846
Ni 4.58320606757573 5.086896173795094 8.11186974403635 0.8068875053341394 -2.12676948382784 0.929508043081554
Ni 4.223420809614576 7.546503883795663 2.4131479802265483 1.8101874946961793 -0.9510960536649748 0.42149868184140954
P 8.63687301991639 9.27713807280412 5.98225660989144 0.8117330063518987 0.22519984057323797 0.49080045356102575
Ni 8.251923617482017 6.718345318184398 11.916413517077396 -1.7839491298249406 0.28739636870664054 -0.1249684691543009
P 1.9912806769817057 5.405117557968376 0.5731187119601492 -0.007270565519484253 -0.006532401801879073 -0.2781799923146951
Ni 5.53466801561314 4.2103806185286015 5.864031405498562 1.2872387385373831 0.5067873159075852 -0.4156648487684519
P 2.5623744110783977 0.7053549492026071 10.941583805751854 0.1175832324338233 -0.40683542340228 0.5992210456589745
P 3.522193557519382 -0.11359774126797649 1.1775829336357615 -0.8327965118904173 1.1545865275855793 -1.6147638569441092
P 8.7477377814628 4.362651920116637 11.872906108777064 0.9694113070343949 1.1940902421071564 0.24300884373020085
Ni 3.847245077265019 8.05670945809489 5.476033430357503 0.14256509919014157 -1.3310181976161786 0.29656132303536026
Ni 4.940187082883193 1.1281755098511796 2.036664058832873 0.5648842200503175 1.140294022222307 0.49942907577030116
Ni 8.458040079991417 0.7920347374730269 10.80180758009368 -3.585960773578546 -1.2961424687849161 -1.3090069834524103
Ni 6.089537863993924 1.3556430872188767 6.777568516749523 1.1639291451427438 -1.5680728806454736 -2.017315822479687
Ni 2.2224594797755746 7.2368895810347 3.6961796925673336 -1.236949503364528 -0.680238563153622 0.9782970395597991
Ni 0.49183732217124027 3.7091615776179343 8.04034952496311 -1.5100304838897607 1.1005897616541496 0.823012178810144
Ni -0.12418815337562787 9.358118677489912 8.35392863812949 -0.7832122732043867 -0.03429311685491514 -1.01375332348488
Ni 2.5959512835126892 2.669500182419886 1.7286388269090014 -0.0535571072908497 -0.544092994336579 -0.9328620471554514
Ni 9.145236863891906 8.645082139499968 1.5195635644775407 -0.25752374951692425 1.583841199223324 0.8701091322979467
Ni 7.816831024626204 0.8317494769961884 4.046778510732931 -0.12856261426346247 -0.31362959137155666 1.3049528679876945
Ni 3.745070691467176 0.6783833176328015 6.926366444516006 0.2642286723409256 0.13055547632377518 0.0772127990365767
Ni 7.524477159321127 3.580231200031907 4.861541496090228 0.5856589907038235 -1.9396805911937112 -2.045316164347355
Ni 5.076947128076555 6.592552360597054 11.545456637640104 -0.34387990561566584 0.2268846844748286 0.21970590733820225
Ni 3.2177712683845594 3.4084597688355336 3.793545218685778 -0.19561209961379214 0.37004756514996917 1.0288158742449571
Ni 4.593830722910505 2.0080320934938523 4.9391708919809645 1.1923526905907595 -1.4173720397220753 -1.4783321243452152
Ni 2.048587180320496 7.60964099067183 1.2004065072604044 -0.9313810917345507 -0.26534478822323976 0.2140078285121605
Ni 8.579446202536353 2.4174607758589572 6.354257445009711 1.5053639316520266 -2.267221136219405 -0.2937413370880618
Ni 1.374097410160987 6.959880383451798 8.186790223013768 -2.6777463497684466 1.0638109022629034 2.585887775794237
Ni 7.311752679469369 1.9287821600167756 1.9960950896168541 0.2156476781084286 0.8230031799490795 0.05174833621688508
Ni 1.1334045431823192 6.384927345108938 12.235302181433287 0.6837720302281772 -0.37017714874929797 0.204421470375306
Ni 0.9123913513812357 8.650107564453611 10.528025575294086 0.5371579577796427 -2.2045124443362742 0.08868326157002147
Ni 3.6645898527988754 3.3016856846915377 6.47623459650426 -4.285679042723335 0.4036865933606531 0.01349237805947999
Ni 7.153428656113961 8.481815985527163 7.394566685045245 -1.2614552018153757 0.10727362297769914 -0.502633955860844
Ni 7.032031788495275 8.073377580270789 5.024439303998289 -0.5407754999275719 -0.581737029941598 0.5761322821603111
Ni 0.49848050823335005 3.968493866063709 1.280092347763847 0.8271200303309303 -0.6141457852896068 1.4245022230089532
P 6.825683952829632 8.926061700444034 11.70355946825814 1.0725912195586949 -1.1956591292561731 -0.0843704931272805
Ni 7.551843976241799 4.670165354618894 2.375342531988722 -1.1010857274539618 -0.14956981264274885 -0.5166305272502522
P 6.124937956899427 6.404853201324768 1.779528889878802 -0.17788305776514526 0.7763258304971985 -0.08295535794730875
Ni 3.1106454970430715 5.158908754944824 12.031821521919834 1.2975830578861847 0.7845739294386036 -0.39791009588819215
P 0.20047280848226717 1.626682857370654 1.6686048968043938 0.4751686605610398 0.43454651616430323 0.8627362368726431
P 5.145017110643868 2.813395775751848 7.749866080253119 0.6645396643611265 0.887387202652104 2.7667862233469385
P 2.1638757966143114 1.8218414872002835 5.055052749047392 0.49516078741225045 0.6555971104558581 -0.05077440233938998
Ni 5.268301983217515 3.6417024201831087 1.449790675480264 -0.2818839235288436 -0.13047962878051722 0.8539870299251033
Ni 2.984787754971979 7.3140664110318205 10.254554536016483 0.5929812353968497 -0.12009622866366414 -0.9914148078886797
Ni 4.096258122942261 6.260902078435307 0.46359776570521155 0.6500522693782289 -1.2102689087495477 -0.7653348787033335
Ni 7.307717531624455 4.699272097674529 8.611943950569916 -0.607713913621334 -0.5776273786485988 -0.22863843394114172
Ni 2.2035794302259735 9.3681139978397 8.653744750469784 2.544005276627838 -2.023445589526509 0.5429316270386262
Ni 5.376890032906473 3.7608133210180936 12.720069665442303 -0.31721190940617633 -0.09055708155396662 -1.1649848401007679
Ni 4.8666104191972455 0.39968602150193594 11.332615545717596 -0.07154428789688969 -1.108464022195904 -0.2863126487241585
Ni 8.17792122718858 6.60504651103429 7.782578542575678 1.3228240918411607 -0.7619250816908362 -0.8071057919925326
Ni 7.096871801801406 7.91509057662038 0.244954760516703 1.9513166327707427 -0.15185938000787394 0.6369761529205611
Ni 5.293392088280735 5.5365560205681 3.654947145139204 -0.2537398569944597 0.1560813885090215 -0.3153560871443601
Ni 1.3176331051109293 0.25267707097953995 3.8634671119956763 -2.854935209680044 -0.2726500636354014 0.01982243404256586
Ni 9.17063238152137 6.316505675344133 1.398927451796588 -0.06342602966512946 -0.42468530709950725 -0.29363540763781687
Ni 7.4243851319294905 5.76250579003083 4.662354196864059 -0.6939605407254049 2.011230535517556 0.9275951423295573
Ni 2.734617843513511 8.133053344729529 12.472768781121275 0.12953911924411884 1.1209032764005211 -0.2385793472039375
Ni 0.1169313657031561 5.106331518919684 3.751011428626926 1.9701255379471296 -0.24905530703459686 -0.5438906485177859
Ni 1.2718304751006464 3.90876257204747 5.668027800902325 -0.020862702381622134 -0.02145405610871789 -0.44439615526487336
Ni 1.6005932202724549 8.493514212306918 6.654195722376503 -0.6368712519115806 1.1612492843177358 -2.7332628947785116
Ni -0.04311962689046457 8.604490032968323 12.698951774725499 0.4268496617406778 0.7141017915599701 0.45610084529631123
Ni 0.49058235417176677 1.9517436320425405 11.943979314912438 -0.12925475523448063 1.482300879184976 -0.014730878452271404
Ni 1.6309123586668146 1.8456544124410306 7.221320018604653 -0.2580001749327105 -0.37484498653861253 -1.262099520267594
Ni 9.287318491678906 5.85010366698523 9.907437421106064 -0.8634139796659582 0.5860860509389131 -0.4628816156635705
Ni 4.198886000126344 1.3925517331030974 9.447742457800395 -1.0985223376021598 -0.1615195288054573 -2.7598974666469047
Ni 5.5558895615039425 6.547841811884248 6.357725265875512 0.852242793540487 0.3669838386229809 0.058597240817918436
Ni 4.24503106240787 1.5454893893811184 -0.3613891366802446 -0.7140768518593057 0.4322608054539201 1.8239495814772781
Ni 3.429311117676343 -0.017665803225627004 3.6321633676974354 0.6041223396153338 2.246982440575027 -1.0126125250122175
P 4.4675194894531725 4.314702147216399 10.511363931566562 1.1126176393529612 2.1907436726869562 -0.9413741983915207
Ni 8.224547545635096 3.0695813892726886 10.320589360301463 0.4221221743580214 0.43982704783695226 -0.08808239476122896
P 5.372660531610311 9.256684685792052 4.522957423182127 0.6940495008947853 0.6249156222116012 -0.312688567614526
Ni 7.913110022402922 3.537778853324053 13.65605182383429 -1.0674137891228133 -0.8967498748139267 -0.6959816849204917
P 4.738873927097443 8.32574090925046 8.867655711866767 -1.4935944498209244 1.635045232900965 -0.2144397738432565
P 5.933564591905967 3.4680707488105247 3.5390782449695255 -1.4726541001238316 -1.110001798996669 -0.7095036306663265
P 8.204408826115522 4.731192338310105 6.467037976289829 1.1334284054507255 0.8997583226229473 1.6253727428082072
Ni 6.501872593201469 0.5854101795125146 9.163178463919778 -0.6656285265499311 -0.24290908492754296 0.9624083933540005
