# total energy = -381167.8383650342 ev
CRYSTAL
PRIMVEC
9.28649056933372 0.00000000000000 0.00000000000000
0.00000000000000 9.28649056933372 0.00000000000000
0.00000000000000 0.00000000000000 13.59171764107592
PRIMCOORD
 96 1
Ni 1.9676402038366263 6.726548750372427 5.660230251804925 -1.8401434176283213 -2.151732581531081 -0.5164893736866977
Ni 2.34153288885409 1.7905839738295983 4.452810028932598 -1.43381347310755 0.3167439686308222 0.46542186558692106
Ni 6.189074533225844 2.868318355306344 6.917613651467549 0.6711512561403731 -0.05067695752957724 1.4389147988898574
Ni 3.1291387306329668 2.5576016659218297 0.8912941527063639 0.5587626805336119 -0.888665040923263 -1.2372487797725016
Ni 0.5477292887293362 3.2816971984057273 0.8471285320050934 1.342507943423333 -0.8151109216851962 -0.6520168493037674
Ni 8.659726787548186 7.579020729075624 12.055514095015823 0.16644936200690688 -0.7682772491611092 -0.7037307327382912
Ni 2.267686715508035 3.461734391899185 2.7440316795525383 0.0699787431819827 -1.4490763128038915 0.5331066705284045
Ni 5.07480709768177 7.8321797496474055 2.947445755863403 -0.40180454584659187 0.2114210416215907 0.3343709376839661
Ni 7.329966337354314 7.64839081394673 2.0679798062494523 1.0422745708530243 1.689015259359517 -0.3871934808016364
Ni 1.0817925778741584 2.5425854106023413 10.830193232839942 1.2268203853503261 -0.576687897553465 -0.2141304701329538
Ni 2.9170631445283566 1.1721315585469985 7.275306982261564 -0.41468500135368586 -0.48712043360627716 0.9275794586002736
Ni 4.245542059017783 7.971504968298168 11.832732113884719 -1.0738587734172087 -0.482889169133749 -0.2897972648386493
Ni 8.36576292722759 0.43597287475820556 10.98155095737658 1.8956435075781544 -0.7517738521894473 -1.2142016681450507
Ni 8.446109644001996 5.714869176618328 3.2607886647929707 -0.14779215191703582 -0.7987849308316631 -0.67541980160874
Ni 1.536849190839877 1.152342047052979 1.7566882830960595 -0.24009244141435424 -0.09174441699384844 0.844158988091088
Ni 7.237732912596641 4.407544887742875 0.06024239324864113 -0.508410453333305 1.2226235736601592 -1.3540395982120164
Ni 2.037530332182 4.313974208337084 8.973048337549347 -0.7382755605926963 -0.19119468727238684 0.3231503863777983
Ni 3.013317619720995 4.193639862987715 5.094597537824852 -0.8821010145525002 0.8733903741523797 0.014107128825343445
Ni 3.7610286978310277 0.07255720844911945 5.001276665016521 1.3608095699459983 -0.5142260315738176 0.3139530361492464
Ni 8.157903407860797 8.948165185954684 4.10448119527165 -0.03467158324025642 0.36632872153748525 -0.2363476296599413
Ni 4.595540603690755 6.023087800028233 13.193331142102684 0.36249546383432407 -0.46086869899859984 -0.43016381371557527
Ni 7.425366455410655 2.115527566831587 0.6740218464553186 0.8474068056044245 0.1891887125859516 0.382394002530464
Ni 1.0613158660748563 6.382716435465776 7.988015419957116 2.7879507732396953 -2.040144390338428 -0.7455204150805677
Ni 5.177097791772162 7.609508277754585 9.428180171089021 0.43826561688710325 -0.4655722751218563 -0.3327958798873623
P 5.790888388767574 3.86062630964396 4.697555489009972 -0.3638134113147993 -0.003695960794348473 0.0888616961294147
Ni 6.5285050515824405 6.904236461741066 11.22289849053905 0.1482256399100286 -0.5522338782761586 0.46449344023538064
P 0.4852024187901607 0.727298443095952 5.65912887401835 -0.02703952061629537 0.7166682667355657 -0.36865479856750055
Ni 1.9130449255290989 9.357160805485236 11.245474877865709 -0.7658660686164552 -0.5245970903954966 -1.0018079781975455
P 7.196733056544977 1.8367749781333305 8.60974132318042 -0.8305776498622276 0.8976646733187121 0.038307894441263056
P 7.2276477837920865 6.578317787224824 8.936173540627502 -0.19684751468279002 0.05090887103472523 0.7555932259355375
P 5.99494973347409 8.562942982390668 4.883803487424687 -0.3374212944745157 0.05762253560947495 0.5983615258721566
Ni 2.9300549448944446 4.152324266255245 11.524662074324606 0.2710647214261525 -0.21703041738856815 -0.8500249599535619
Ni 2.6312156770025865 7.500336294120753 10.0466307290735 -0.06658360145750468 -0.059431306683439586 -0.7028113062478154
Ni 3.9990135927429176 0.23225327290620845 9.660666534909591 -2.476885343050889 0.1278301069728121 0.4577445515473213
Ni 0.53726898570406 8.75147731479404 0.1687169614375163 -0.05727055158669492 -1.026920199884141 0.7478799164516797
Ni 0.9869775087263689 1.388850389957573 12.818756828674305 -0.46451683727414833 2.1492720358057307 0.7564817991880778
Ni 8.852486473179987 7.076231554364593 5.326023384417537 0.3910758465751781 -0.9891908036541672 -1.3805366160612804
Ni 4.90794743436664 2.2983228480367868 10.064572228935745 2.701966912878708 1.1029572334450617 0.29194979240527785
Ni 7.302292595330767 4.834937045175659 6.221201147497809 2.4174447803960692 0.3860891919938641 -0.9948665138827057
Ni 3.8906402473017128 3.5211400723436914 8.040901055342987 0.7775159941505577 -0.33395724718531516 0.3313254659894229
Ni 8.517420605410996 7.395380377224739 7.418849196299203 -1.1737854691115333 0.45323355105084523 0.8011655152486977
Ni 6.127690830280996 6.940880953695736 7.152885962471695 -0.1253513064150164 0.5494025794749506 -0.9130876927420015
Ni 0.5348591413902646 7.581528081540845 2.3880507776273623 -0.13231076845198503 0.44558297648412293 0.1833883038540906
Ni 3.650733048833153 4.811210061662181 1.3957335367991344 2.2585871146934906 0.37193706886319816 1.3285481388091314
Ni 5.224598191252177 1.3034796817621146 0.23687330198564285 -0.19039147464480113 -0.6377773086656177 0.33739738321511564
Ni 7.385787432422616 8.799989941750754 9.025607088465678 -1.87253623213673 -0.8028308187662626 0.6369165033272193
Ni 4.7789859392387894 8.258958998699802 0.5490999747436568 1.0664146584343377 -0.16595905263404967 0.7964439414033122
Ni 4.208535393929248 8.242094731748539 7.147367929750088 -0.9554160211965674 0.7126568315833275 0.5179690435560177
Ni 3.5573202397677646 6.253838518753432 8.4094131476999 0.32549163291646527 -1.8651234846124263 -1.78639913402733
Ni 4.060898766180809 6.687666214180282 5.394674694915279 1.9273974029509835 0.8931832405085908 -0.22698547171875103
Ni 3.7352958323453733 0.32411059479409887 2.5041244810839784 -0.5012278195419367 1.016802651834165 -0.6497879599732487
Ni 4.410628002626035 5.521654452946544 3.4980733583127224 -0.3487305488397478 -1.3603657975403602 -0.412837920842618
Ni 8.5985473873968 4.840091047465279 8.446831204322542 0.24843567117272697 -0.20071291117546725 -0.09731136955866466
Ni 2.822145923983836 0.02027798090020699 0.03795853037625759 0.30150221198040333 0.7616440601153076 -0.1795463044001811
Ni 3.687581843581285 1.3710110414920584 11.96075195886452 0.1893388650105707 1.222607375710243 -0.1279116109430249
Ni 5.892501169043295 4.4217996508321855 11.440760488943955 0.04718462810560261 0.4125913520494507 -0.7042446962602323
P 2.451893543286248 6.873033853284986 3.484277347859641 0.5282938225207935 -0.42237131425435 -0.5300254604999195
Ni 8.166604849564173 2.1205701312338645 3.3646023433437193 1.2369021950663601 1.1784828745872027 -0.19163280325106996
P 8.92228373661924 0.34217189038523854 2.09756935128624 -1.769881853098597 -0.26199798323819395 -0.2238592673849435
Ni 1.3567098459496887 5.324019359743483 2.190739782946657 -0.7255228889127182 1.42209232801588 0.3688553446140809
P 8.235807777604263 3.985000278409518 1.8231925569643241 -1.3675327476024448 0.772727828733295 2.6665198849250076
P 3.989123480241214 5.784972894247776 10.525793214369662 0.7639737366897488 0.41500484658694975 0.4986119791856445
P 7.960649060772824 5.076710828257216 10.960782649772064 -0.7566013554850777 1.1323233453120047 -0.5894675658166364
Ni 1.5150723703549047 8.767784392308586 4.187363123983112 0.22915959655193435 0.1972882017646344 0.10989563398157849
Ni 6.094565918268247 5.787340949353817 1.876798824021681 -0.10575358678874691 -0.41649505797923114 -0.9041577372422235
Ni 0.6638039208350137 3.9493587274409365 4.243823129605515 -0.9078169312613655 0.042638146385500765 0.9345803153981388
Ni 0.9571307278996308 5.601778293946263 10.479567850050666 -0.8210733099162182 0.7874805615624374 -0.321552188652743
Ni 6.378741817483871 0.9963568642444166 2.6467835498644234 -1.5212039840080769 -1.3417008741410055 -1.6121930108931397
Ni 2.4584683786394934 7.20796971018541 0.9135018663557297 0.3419613484367143 -0.9780975219544834 0.5485458879016101
Ni 1.1040708688521748 2.82996514907908 7.285419041888894 0.09184109047271279 0.8607940255446078 -0.6249539316487044
Ni 6.121543173495899 1.4204801769818014 4.896375538415115 0.010362059960614413 0.7538374195866953 0.5493069344373508
Ni 4.1735810432659495 2.516713247757509 6.0283615980467475 0.20489455335698262 -0.6937574235756633 -1.6932439527288838
Ni 0.32477272157472936 7.791003450274114 9.514229721748213 -0.69201961494895 1.6309463802412427 1.4814662990988228
Ni 8.31649809453131 3.0702716666439525 10.146339778773775 -1.8106495219342622 -0.4961612036523068 -0.1494425430362652
Ni 8.959541136954297 0.8465156236247061 8.198646028122509 3.6243265178409385 0.5969589890976752 0.45178344886787997
Ni 1.8306366078388459 7.04602260040399 12.128066660219636 -0.21221834071190546 -0.1543752044511922 1.4789784996799624
Ni 6.1740675643969665 4.596905717810708 9.055291355706707 -0.49124962528330235 -0.11417549230385499 -0.8394063038974512
Ni 5.412036717763341 0.7958541027403916 8.033900898719716 0.6011748269512357 0.3973395680967028 -0.9582642892786399
Ni 4.741830690300463 3.452642917590107 13.058324141586468 -0.20564814369355552 0.23848961570360858 0.7351061617257793
Ni 7.6523282859661865 0.16023653821070324 6.494217470945078 -1.90695121928149 -1.8718811150512344 -0.8961754903676953
Ni 6.477317915329491 6.563208666999217 4.312638810987089 0.4808770237997267 -0.6567024277048948 1.1123443310869165
Ni -0.05327102474626643 6.365044243831276 0.38268420567977646 -0.11976455635585827 -0.9609585482813515 0.20405997327082923
Ni 5.6911514795954625 3.4731846348236926 1.785992732871061 0.4089373002366312 -0.5987582470899431 -0.2348741304382084
Ni 5.099295573425426 4.963164907545166 6.5273953159543145 -1.6218369617408068 -0.4305679911325294 0.0841951438916808
Ni 8.329833495050039 2.222897971286704 6.0642845296808705 0.578355772174191 2.0676569939364002 -0.7657742802335973
Ni 5.812507338912144 0.14696242853001268 11.21274557035303 1.5095167774781355 1.2848920926820775 0.3116004767566698
Ni 7.554262945104222 0.01003962500055586 13.273861731391206 -0.798594926308044 -1.2800589329594925 0.7819220936380533
Ni 1.5329952972359266 8.532288276880692 6.808947781572068 -0.33622496017356934 1.0151514893839872 0.8551921059767982
P 7.500717040235843 1.848652399625987 12.085429595873089 -1.3498942085850751 1.68347093250252 0.8423946971018137
Ni 4.293850383181034 2.6557598716899133 3.4090066268537162 0.9641827116456039 -0.3917469045002737 0.7120191979993286
P 2.9130885265464515 2.4051732090176356 9.775136461437526 -0.7532159839526125 0.41528689660374285 -0.36222369823017614
Ni 0.15127971801549822 4.353033187850855 12.179783126437467 0.4100680714069647 -1.1039411946248858 1.6612236910685456
P 1.7914197579846718 0.08038757733309754 8.852693561920631 0.17183428046790405 -0.6152143357634373 0.7834071628240121
P 0.43029511439807244 4.899979625421605 6.2032875071074 -0.07511323619507064 0.1579852903999537 0.6550309535397428
P 6.63766774872566 7.167666340929641 0.0033524231109061746 0.30023003013619903 -0.5629008710717015 -0.4517384545625575
Ni 2.1117943976055917 4.7963238172112606 13.58220386512625 -1.3480661542374008 0.8280212019889611 -1.8021299144990255
