# total energy = -340897.8106733233 ev
CRYSTAL
PRIMVEC
9.03160192515945 0.00000000000000 0.00000000000000

0.00000000000000 9.03160192515945 0.00000000000000

0.00000000000000 0.00000000000000 13.21866234578774

PRIMCOORD
 96 1
Ni 6.242679308525241 2.0433276603135506 11.287878400467703 0.6420142295651007 0.3659589969028923 0.9250014134604522
Ni 4.714649690393025 0.463895583548948 6.290206306814099 -0.550840854583374 -0.3659427989529762 -1.2335312217115981
Ni 2.640009466548799 1.482212302069015 4.735572299183092 1.0578238314415331 -0.2743945571303339 1.8025487472039987
Ni 3.3840057301676203 4.223393772272451 4.828261822402768 0.20994419996574815 0.04652514014473278 -0.05255643394047723
Ni 4.950031297181737 4.354722294424038 2.6498927484269696 0.24638058841591118 0.11000387742466862 -0.4732609020153656
Ni 7.34554627069941 6.150240863836327 2.584168878779125 -0.615621598504185 -0.6512789426964785 -0.5806024021165227
Ni 4.998413588163516 4.648375796193978 11.204124744094651 0.15991516043281492 0.024915018074124832 0.6371083076230512
Ni 5.599322184053324 7.754713959823644 12.220058022892843 0.13878249221925773 0.36337015312979354 1.333765935564645
Ni 1.9892915865887075 6.460205438503988 0.4161364730931615 -0.9098982392704266 0.3640345261866698 -0.4316496542324824
Ni 2.6602402546389956 1.4711034318230585 0.3772211071453753 -0.30283841429332364 0.5392202396253101 1.0061850242193189
Ni 0.5976825077175669 -0.011615543108393921 4.775955300427601 -0.013731490653479577 -0.4816113308625899 0.22095623480553558
Ni 8.564767359197688 2.4860838766286077 1.3177829592252082 0.21587316385567337 0.14727356040940442 0.3984754814733589
Ni 6.858499079029742 0.7369109719863393 4.953601489383547 -0.7373337655047172 -0.2440005182195088 -1.2903528586863326
Ni 0.6451092552261575 7.429458883264597 2.5094703063968025 0.8252690931651206 -0.9163223976292155 0.17885364920853067
Ni 7.72319366945097 3.7852527044904694 3.862559603480135 -0.6436952168119495 -0.2420562500089444 -0.5972400106732038
Ni 7.676229339955871 3.9057974940618356 12.594649127586491 0.28168054926878583 -0.7242095694179334 -0.08047295784508722
Ni 7.956714766263532 8.75893776685445 6.828245019233072 0.1955210825618826 0.35032566124100956 0.17610462570848381
Ni 6.769546832645657 0.5959285706429615 0.43886178960769434 -0.452795177961846 0.33436528125701126 -0.5118246212211766
Ni 1.87803128369445 6.442557688536023 9.130711914938578 0.23222975083682584 0.7207012991543589 0.19203620933707571
Ni 0.08094031240425743 4.939753334303771 1.3750975044128824 -0.4330210806587123 -0.3917456189486931 -0.4762762918029217
Ni 6.369419776949229 2.1040019613804897 7.04269137298916 0.4185835650771436 -0.18241848374165356 0.23017312541811324
Ni 3.2812080381843063 4.4334597991429385 0.47474976262341173 0.92121803515862 -0.8672351531842614 -0.11431227499203539
Ni 5.858890420532012 5.533897260425919 4.632982334041776 0.3818373586960456 0.4216238945653642 0.39342634908522567
Ni 5.394097095761561 3.1755292652185054 9.147062726884332 0.5919810762671095 -1.4954201901757536 -0.222866564454371
P 0.21548950376698914 5.616563511939121 12.446414349976852 0.9470344820010916 -1.0427522818203914 0.13073236822127163
P 3.990721646031533 6.209253350167286 12.554397987728644 -0.34264886142204215 -0.5228795934837576 -0.11418860492997752
P 2.269072547953941 8.449063508205048 1.3574109185570642 -0.14457415920037037 0.05579422415148456 0.06857414952497222
P 6.272266836107153 7.721468633502209 5.742702475681499 -0.47329972567310097 -0.14492382923030525 -0.1293642842291514
P 4.6729959427716015 1.016199711052057 12.672678554722236 0.5321155102597287 -0.06587551964688654 -0.18541201915233874
P 4.1007084930683275 6.2070135129144415 8.130164873011127 -0.7520479317864402 0.5119071536326539 0.3512810831757434
P 4.8628853711628475 1.0012795048355367 3.8282042932942866 -0.6658843513144791 0.024614456114570513 0.14484283948072474
P 0.21068649791593255 5.375654564832908 3.6843055877212993 -0.24480913016373324 1.392258532483899 -0.3711644523632317
Ni 1.5238208916813085 1.0447666676276344 2.720281440417934 -1.119753479066794 0.18369735045407717 -1.1210760545329597
Ni 1.8303082996459672 6.4078221479133 4.693272792031111 0.4498265822518253 0.7755154187807611 0.5452106528807901
Ni 6.078882177809253 5.630887632435127 9.078907550024933 0.008813741636888047 0.9055168223732792 0.5530409475584862
Ni 8.717934294564497 2.3261251766886617 10.054180557402558 0.005164832030391105 0.21983086295184076 0.9013557490170541
Ni 2.4039775844286164 5.235872463372204 7.008270132109982 -0.092447356598144 0.01137970259185137 -0.19369997019274382
Ni 0.5151147006642678 9.152986554521993 9.34531632172662 0.3992357566781511 0.2333407245128175 -0.6514689472200974
Ni 1.2897578987591896 0.9003233564645404 11.61272705494458 -0.08373105977106869 0.31863861455037384 -0.5083839709707438
Ni 4.160615107980058 6.795593972311786 1.5753868223067458 0.15802668516085042 -0.011919891366037536 -0.30045808698660514
Ni 5.677996467559443 7.882800136919704 7.944231286219661 -0.03803252929268934 -0.0994898652672222 0.33126633061671334
Ni 5.432147234254418 2.9815304579964375 4.789874805161802 -0.3418212233144242 -0.8216564361131978 -0.19843131423014213
Ni 0.9142058316312556 7.38657683779484 6.872422196404674 -0.12441413931272767 -0.10533835362819922 0.06303342221240112
Ni 5.046678468321558 4.624938789455557 6.954694670078263 0.2606962337076349 -0.35991921846671565 -0.23886859630958218
Ni 8.146378404609127 7.464185392285493 8.892603667558602 -0.9003257650906431 -1.2068431708974505 0.5637907298758226
Ni 4.705473582937829 0.3426905838841029 10.475380146479363 -0.698945395534506 -0.2659248290964259 -0.08842358015073158
Ni 8.058121591565643 7.115646846219068 4.661150996976827 0.5764726962188652 0.15184318205795785 0.3345920525558366
Ni 7.304940188889799 6.0422770956085525 6.8555945158825065 -0.29381615619005524 0.1704361145687968 0.1361532821265268
Ni 2.1413115085236165 5.112067265541659 2.604869310164273 0.9221832272853666 0.5636272077147648 -0.3631120143724004
Ni 2.3864291820807355 5.200441489408881 11.273285138237284 -0.2539072358102595 0.20096899305033133 0.8876417418650714
Ni 1.1418744504605798 3.3391818903052775 3.8100417420222388 -0.4130909173936886 -0.9319007116834467 0.4148318113441952
Ni 3.410025775028271 2.528920764089235 2.848820100765475 0.8766330494593934 0.5998784767373152 -1.1496451244199042
Ni 1.0812814338100747 3.4194457357327686 8.082286545411238 -0.0018774195283709602 0.12163477679537762 0.7779849633671763
Ni 3.6642924612351084 2.686865416821987 7.245862675025694 0.2160225449493441 0.0026937447820792318 -0.21661235601454307
Ni 4.149072720846455 6.73614796909318 5.940863045024979 -0.2061921891224836 1.3146469553470068 -0.42282845639642663
Ni 0.6156544921910861 7.341283354637547 11.263622227443665 0.9340550390222881 0.1369418394660932 -0.45824900198756563
P 0.05898900416621106 5.666526333240447 8.109913312236731 1.0084537656488373 -0.672032630304062 -0.30385939935867023
P 8.593560105818916 1.578642714765012 7.9320964260062725 -0.3109060217928065 0.41044705201293835 -0.17462572717011218
P 1.8799459832815577 3.190711387887979 10.392485395439966 0.08854802154373784 0.2940627249832226 -0.5085253816446146
P 3.8522400952337694 5.998961533251149 3.635118581016825 0.34508318189514764 1.1813331995518042 0.6371556159212188
P 6.956004252343031 4.00717722455847 10.453066671008097 0.534441330179428 0.4119987127707743 -0.267534596785707
P 6.304067106136432 7.774213188165937 10.166353955241423 0.8562948521226736 -0.7549013420748354 -0.37396026994081405
P 2.5604681492673858 8.528749331115678 5.872364667296193 -0.28572592298275307 -0.3178156044284462 -0.6863274496601793
P 6.86879510511136 3.977083927274302 1.6667143799710638 0.2880653697492071 0.1011705954037548 -0.4955158567588241
Ni 5.200007972521234 2.7782832905045654 0.6673495747226351 -0.42486579854142953 0.29225935322589663 -0.6364447058971232
Ni 1.6206306316539967 1.2066581303583404 7.037483751376299 -0.6319118510237762 -0.6417563479180237 0.02638800307522552
Ni 6.998732760581746 0.7120740669648921 9.2127595017267 -1.0009417735425084 0.14220385919598091 -0.3952019529284097
Ni 2.6911193012820243 1.497656341191442 9.340055413662986 0.2992283283445621 0.22939151005708236 0.1284289168990756
Ni 6.446947047023449 1.8573127891056498 2.5248962823155776 0.13564600347280512 0.37288374904718363 0.953629875830422
Ni 4.135552412912961 6.881927054166336 10.415036402039256 -0.4245824629730559 0.331857427233493 -0.8915251360798775
Ni 8.357889487771773 7.3637178535732835 0.2252165389335705 -1.0935688502516263 -0.8608603600061691 0.5475783817820182
Ni 7.667568033804756 3.8823333925179373 8.245404499669913 0.3681380068320821 -0.221972848995508 -0.26167788089461386
Ni 3.0854571002079987 8.439508073473162 12.426440962538695 0.619714794736952 -0.9905812562437908 -0.17499879423881476
Ni 0.2094852948730771 4.706620596369729 10.21918882592341 -0.6379799115947271 0.6575915151780675 0.11641132361290919
Ni 8.677879140466272 2.2214127851182406 5.691361431941528 0.26034322124359033 0.34005641810451753 0.8427181418795037
Ni 3.610798283619824 2.747720349925446 11.774906625773536 0.07715289233291873 0.18279695012699487 -0.9172857899837492
Ni 1.17668224389791 3.225844318991044 12.464656379344968 -0.8979690919330083 0.5282837952184645 0.5825101606621967
Ni 3.1882006025803564 8.485813096034965 8.024851879919277 -0.016852809891280653 -0.8868809524396467 0.631583778260396
Ni 5.52755707594408 7.835031994862091 3.4434354765029394 0.4312385348369928 -0.0390080058320812 0.6704228626147809
Ni 3.082386355587165 8.302227725718252 3.4732695668147016 -0.0631313812428461 -0.6805275551489506 1.1222492489054543
Ni 3.524970971467529 4.386576754064272 9.204207477957679 -1.362883935976524 0.20498017109225344 0.08400591069901014
Ni 7.375467967548884 6.099185218714058 11.476046405550917 -0.7957908812003456 -0.0026528642418147856 -1.1697190123516434
Ni 0.28888752548637003 9.344185565178007 0.6417287266626928 0.7986234655531342 0.21473905025123016 -0.06215667603440262
Ni 4.364277729155925 0.25451686157741743 1.6795103534381133 1.068923026678488 0.6403484118269035 -0.5943367209834797
Ni 5.941466356026955 5.464624874420646 0.2793953119672642 -0.15117675211855255 0.5595790057873202 0.5276646735772267
Ni 7.897512616294226 8.898412793853073 11.384269074115664 -0.6857792904661931 -0.7597951798320269 -0.37269605851640975
Ni 0.15871866100923898 4.695303999281774 5.849561679005957 -0.1315630916526831 0.3086766182416555 0.49685231618206044
Ni 7.822152930658243 8.751224778895063 2.6839698852765776 -0.46827450454436775 0.29117280502993725 -0.08994644455316121
P 8.527358464434476 1.5885503819681128 3.5711405200019426 -0.13927845801906982 0.04836399312568444 -0.15857407302388818
P 1.7232657548044428 3.2022086170124524 1.5121619968841498 -0.04611787740398509 -0.39327799643281947 0.008456615407785436
P 4.784274308869511 1.1095413159235685 8.431536781701551 0.40948571654093346 0.3956120438826348 -0.5795505638132407
P 8.340819760320668 1.6564409328940108 12.32500162347001 0.11558085729181386 1.3894843121728715 0.9080966672853135
P 6.33982321776549 7.657371355343223 1.219319532958183 -0.0784412721270391 -0.6314477669031641 0.7893970618588598
P 1.9069685359448925 3.2337650337924293 6.052336493722329 -0.5694358439767419 -0.40040869394032974 -0.5781392852880108
P 6.9402531387585205 3.9894301269704178 6.004273018285008 0.5231418460062087 0.13318417219587386 -0.14314951093870185
P 2.318963116440659 8.481107631483628 10.278778431611048 1.0351351315947657 -0.6759805592082164 -0.16043349483013014
