# total energy = -340854.20457068126 ev
CRYSTAL
PRIMVEC
9.43549388903572 0.00000000000000 0.00000000000000

0.00000000000000 9.43549388903572 0.00000000000000

0.00000000000000 0.00000000000000 13.80979906094255

PRIMCOORD
 96 1
Ni 1.3884423311488197 2.692635139189894 12.532654857191787 1.5585965657239222 -1.4812816938918425 0.7622708950660291
Ni 0.5074078261175561 8.32871971068762 13.10588563080088 0.09891188127656514 -0.8084368520991303 -1.0045310335556634
Ni 6.463350915768604 2.396568218361713 8.521239636724783 4.103525382607295 -4.144741194723972 5.168827524703743
Ni 6.896204188539106 8.087048410949837 9.599550500159497 -1.1168355340890508 0.04287031700096488 -0.8747821122935838
Ni 1.176124852263112 1.5940228675438863 5.042068348851334 0.11152931293025954 1.416036351629787 -0.7300536869035362
Ni 3.891792031536555 6.987190654137493 2.992513999466561 0.09055631022301823 0.22229937909699135 -1.2072602038302112
Ni 6.933012049401836 4.666229046668641 0.8843944843322677 0.004919548788804431 0.39360786896841243 0.9616992831021178
Ni 0.2656299053011382 1.1422419944425373 11.073303847455554 0.08078380421728668 0.4390336054013794 1.5892022064249212
Ni 5.617996730104789 0.3969332918634712 4.598124596804222 1.1474252339504498 0.7654143257910172 -0.02556833538740758
Ni 5.180237000618414 3.670510833650695 13.302329778661372 0.9783978268037214 0.292495894716735 0.07163710472101212
Ni 5.475945372686589 3.7831611927483957 7.61600780813995 -2.8270104582453186 5.7026677309640625 -3.4473140356062046
Ni 8.768168393543498 3.038521466671552 6.173076444513259 0.7413107478745943 -0.7640351860553035 0.3038871672728121
Ni 0.24178169501389155 7.221266381459358 4.951393254544532 2.3645145080559407 0.7090045795427209 -1.3344997284068758
Ni 2.7345664731232366 7.563001091719894 13.653388643780803 0.3230616833187339 -1.2338222705894555 -0.3988557476309131
Ni 2.9736147056167663 4.784786024812758 13.381225602652606 -1.7589634064138804 -0.14235092629680646 -0.30334929249147113
Ni 7.445783953678957 6.494091754192285 7.918248372485815 0.19959448130030788 -1.0918922338801518 0.20996245479819323
Ni 2.4077398428840078 3.428518727127642 6.649638698227239 -0.19627518711908779 -0.45469419475677175 -0.17125963891135665
Ni 3.160843206795732 4.456591247989295 2.1908282221233804 1.2068629683917926 0.9627572920529871 -1.654156756919435
Ni 2.6908235244024947 2.1526607066207326 10.393282156326753 -1.8105415356014884 -0.8084116552881496 -2.5475670258371674
Ni 1.3662877919779173 9.31507791397067 9.57994071363527 0.4995085228579849 0.03020737682131572 -3.1873847619715816
Ni 3.466958928397768 2.416599771453632 0.06730054580251024 -0.9696077393159171 -1.0706798614685946 1.0468477920460035
Ni 3.337890810289262 9.394741787147813 3.6487695691031683 -0.28181347530222434 -0.6906494740743009 -0.564087435180635
Ni 5.5144327514251374 2.211783510046999 11.037950939718955 -1.1104756533092939 2.151422249379514 0.8967604163368879
Ni 8.83265999287617 0.9676947967753653 8.95372115104412 -2.0490818020373744 -0.3362401296822209 -0.1116043891425691
P 6.595532746792952 2.056484719495943 6.551065152157252 0.8765826558374322 -1.0337909588620453 -3.53217766631982
P 7.580400142073873 7.350504338454183 3.4663701535918636 0.5794747162699826 0.7987993290093662 -0.3684375403503719
P 1.8882687380909837 5.608683897838315 7.926962994452699 -0.07900948592568328 -0.13091620209730356 -0.633162949822058
P 8.892999974987722 7.389067201142205 9.57115721256449 0.7153377208496003 0.32216796785987095 -1.0072090946084589
P 1.454877642180473 2.7195357316840343 1.0113905680276856 0.7729738833058301 1.690818888227159 -0.9573826580046351
P 4.667531144797084 6.979963065975264 10.210233578849964 -1.0743025458228468 -0.9983256760759001 -2.3571837787224825
P 1.0402254367271222 9.204437315027743 4.1615829895525005 0.44406576850864815 -1.5350789422179563 -0.7483892519879305
P 9.619485811215837 4.21582575564521 12.194148972870044 -2.257351442514177 3.0365880189002667 -1.7103392176482737
Ni 8.98034434002394 8.346307470915288 7.199227898860774 0.7765945107775529 -0.21080140575972084 1.612095566083327
Ni 4.5797433115577 1.5544787135126892 7.638820944770021 -0.044654148374265026 0.005063016345204184 -0.06470901014261114
Ni 0.12273878894502975 5.092383118923239 9.722111901823263 -0.6394567532505696 1.5634500371614817 1.4187630065323307
Ni 8.741909414619894 2.8975174490523172 2.8308292667899226 -0.22131850324096078 -0.2480309795351406 0.175027333483905
Ni 2.9417133014699095 0.14870243691631238 0.840609075889946 2.4666376971809516 1.6074115303440961 0.10558132287694075
Ni 0.8072715896043279 3.3342298387397267 8.468348033327675 -0.07917403652800559 -0.9605263458399395 -0.18800291980796655
Ni 1.74223560233798 6.035007808979232 3.283998101012243 -0.3596713641219677 0.8198106411537106 0.6785269797791541
Ni 1.6638549563019132 8.212719751331969 2.1017269681631316 -0.4253897893656996 0.7073924978605947 1.6011364959686618
Ni 4.227242703003299 5.624309075379633 8.526598053588136 2.1383409907155237 1.1613698690559997 0.9119090990528682
Ni 5.615637856683697 1.0337243815785908 1.9650925276691293 0.8099190930716116 -0.07902079877959294 0.7912580263269986
Ni 8.961596014073095 6.843261633476104 11.695449163873795 0.3289952751943495 -2.4440682965208684 -3.0211164056272293
Ni 6.687132519480823 4.637611194323945 9.90819870826642 -1.2384607978027318 1.756293572891201 -0.8311391787926525
Ni 5.153430763061118 8.504408603090603 11.397806515600323 0.11970619231409706 1.2612973360812731 2.2719385962997323
Ni 3.6808804412098186 5.474718758507621 6.40361763590096 -2.0133745784437522 -0.9478976013323352 1.1274202515834324
Ni 2.620491354479196 4.659897830406428 9.744470247657746 -2.1278969125640645 0.28585190703765606 2.3276582584595396
Ni 3.400495310885061 0.7998769932038866 11.989474243868676 0.010892478542787694 -1.7729622917961338 1.2040589232840941
Ni 1.314949270841257 1.3381888917858618 2.4293367443781637 0.17763854585450697 -1.5470507698678517 2.9669435191292517
Ni 8.722953507807995 8.433029093368338 1.6120729669620875 -0.33847493255001065 0.8227093028577445 0.0923879641151183
Ni 4.790230304668639 5.087872952942111 4.581097304901407 -1.1697454947142047 -1.0731979999047583 -0.8235593095628655
Ni 7.494924004787158 8.440520875353728 11.753809579410364 0.16819745504626515 1.295404305067311 1.5185511197662622
Ni 1.9697253550681553 7.766524690491767 6.813520013833599 -0.37452436997440014 0.08647956905048332 -0.8673734785343384
Ni 4.743581223893112 5.531907285728591 11.786925331594398 0.1336387432347892 0.11172883053557532 -0.01021319308757596
Ni 7.916407507667995 2.867871127896025 10.153598915108267 2.5128296223559823 -0.46069720641774203 1.4466648751489213
Ni 6.281745968825524 8.836764432628872 7.3585235645365294 1.0629614097784144 0.2513621007909026 -0.17732564259977848
P 6.627745522231394 6.602458399157281 12.374656571897633 0.1706654569707835 -0.5655599059611034 0.9459628462034677
P 3.6812389899698243 3.3747081066456763 11.612825376327864 0.4571254299060837 1.7338879515024914 2.941097247490109
P 5.43087201935635 3.453447301441749 1.8305169118970566 -0.5404312292142757 -0.09133586870152012 -0.14900211306473693
P 3.962426137257753 3.2868542249505017 9.058827832941166 1.5040593539079903 -1.1995564074280503 -1.6297446466236578
P 9.376691687729611 4.544728194495001 4.179369838696907 -4.0531759836204655 2.132875339615262 1.8099568667426122
P 1.8033304239442793 8.56806987897905 11.386676407250238 1.023532771469147 -0.6250562615545235 1.9122754597078808
P 6.326290934509437 0.6930096481853366 10.00007588446861 1.6108033296344646 -1.3398779619996537 -0.7586633802204289
P 8.273003120481413 4.268513552378735 8.11394711634524 -0.9060086744080331 -0.26905926096034954 0.20452791404618323
Ni 7.141300572484318 4.4491938209407484 12.333337601504407 1.6481712287599617 0.2619373052035876 -0.9183720810693925
Ni 3.7080829695018585 1.3781104655644336 5.481219813656152 -0.9414063371810368 -0.3514186371948722 0.2832877458549056
Ni 8.086123732568769 0.3682616572047742 5.607399727147872 -0.23910616624168501 0.9832114461422808 -0.1348798147307419
Ni 4.4339271921594365 9.23982041634413 9.346596237073943 -0.8715188681612797 0.062450296015421486 -1.1205595199078573
Ni 9.504278433329672 5.360719123813055 6.548372262259732 0.06757270484365137 0.10232450650253991 -0.10235895928490114
Ni 1.8037078436916545 6.260619898466218 11.706635885185984 0.37710112956264086 -0.13519503197831556 -0.3399828845541048
Ni 0.7542375102525859 1.330583883876259 7.195678266136714 1.1626212249645977 -1.2181560248071086 0.49937688237612704
Ni 7.655874656055153 7.236098977531189 5.614111193805565 -2.233988085197888 -0.3790453977732053 1.2325104937565676
Ni 4.303632459871963 8.67113377649343 6.239916538223972 -1.4272340201178195 -1.0656001329528424 0.3524671330640446
Ni 4.534283102986402 5.972695808687648 0.6345841277423453 1.3509715008096541 0.909507174479595 0.6200356684114805
Ni -0.12401163704305135 4.17197901649394 0.5864140453848965 0.5880640006008905 -0.26193627676232306 -0.36064632644072725
Ni 8.772848398410947 6.443442024094582 -0.009617598712478961 -1.0360928675223449 -0.8739660441501916 1.9285788248535947
Ni 7.519173223555992 1.3071366820705979 11.997759550872923 -0.4120303373396581 0.5833545109403632 0.12232100422912481
Ni 6.749604923165041 7.173088750706962 1.4594198888401289 -0.40959601686655267 -0.8909967743802333 -0.619146838048624
Ni 8.88693295254867 5.917016960456178 2.388169685433255 -0.2107384137322693 -0.41194214850122607 0.5906387033066021
Ni 6.952401988923218 4.129283407572163 5.423300979224011 0.032205123977634864 -0.48958637864826654 3.1736848958869857
Ni 5.552976743125791 0.23029681210127564 13.525565067289264 0.12503917449123628 -0.005348151685790789 -0.09591294654924126
Ni 3.7535431780731567 2.2913152863125585 2.7098275522321855 -0.6708527510633479 -0.6477565313655166 0.6649171023052033
Ni 1.6450311464015939 3.800399839709741 3.7367102573402393 2.548391835731308 -3.7416302713611302 -0.43082664411055477
Ni 5.599446549521316 7.550197126790202 4.550452708513308 -0.30192233023695747 -1.0013976301330043 0.039615300398776934
Ni 2.6764343965338298 7.439990560556753 9.007620465166719 0.5032546201639785 -0.7959361485289582 1.2787034473728622
Ni 6.174775776925814 2.682010773301293 3.8803184712163596 -0.7159984943620508 0.23288872457706344 -1.1651941278980966
Ni 6.709230445689618 5.381665919792358 3.788055383322479 2.2258392308385084 1.4136560243230687 -4.07965037576191
Ni 0.72460534233682 0.6855084307062619 0.32881280165978916 -1.1624013956443078 2.0650941183052303 0.021754103847639955
P 5.563034979393331 6.381875427804064 6.6313545985656654 1.7056947768977269 0.7955882782712362 0.04412115868893047
P 7.486951012623866 0.8921080004192408 3.488728499426348 0.17118379136809872 0.6478843151926326 -0.5315244136429491
P 2.8261001973553164 9.938971627368625 7.479760222887007 -1.8332297212276236 -1.590045785372139 0.372578559101939
P 7.685690816097765 1.073136438698207 0.2821656079829977 0.18895808463238423 -0.9988332118399379 0.5048916415467691
P 3.5618328173941145 3.2404315960233983 4.718034624742678 -0.17638410462211557 2.097531670008646 -0.2656317233360393
P 4.982214294664528 8.346883036030034 1.545178147388005 -1.5242224591194264 0.2437740040309995 -0.5374911727493452
P 3.1291022060415097 6.894590719119079 5.028783173743739 -0.98617284276345 1.64686896500877 -1.4555547214393836
P 1.2934174742535232 6.409483682324533 1.1437148750066675 0.1503804814695023 -1.2058137011916719 -1.2491812695440292
