# total energy = -340885.7810671931 ev
CRYSTAL
PRIMVEC
9.12172898401797 0.00000000000000 0.00000000000000

0.00000000000000 9.12172898401797 0.00000000000000

0.00000000000000 0.00000000000000 13.35057240660663

PRIMCOORD
 96 1
Ni 5.50575714537706 2.9639052162042545 9.516715551459912 -0.6427374808843705 2.6936288253266576 1.0773629299157252
Ni 4.546452253608567 0.3341763725400277 6.599869336050904 0.10455159606084576 -0.11227750395019373 -1.2707402266617276
Ni 3.482028554868875 2.608978734145129 3.43606324940128 -0.5125900386322914 1.7051162786864378 -1.1262460287696734
Ni 4.8916002419959534 4.562013923574973 2.6940124056538255 -2.8498742502173693 0.436969523783499 1.2081130387488097
Ni 5.293102273204241 4.846310856659959 11.871088580972959 0.40551207660516614 0.2735594628235482 0.4617601004646177
Ni 5.923632680448009 5.690618108764627 5.291099141478202 -0.20073939353802847 0.38495430705847256 0.276382276984324
Ni 3.4386820978463883 3.0494761575611466 8.014148747603342 2.051697642393666 1.394308215924076 0.3865159951186376
Ni 5.451747386953208 8.101071529223434 13.16278381070972 -0.08830428096404792 -0.034101312559083205 0.36947086671089274
Ni 2.3803425924640194 5.703534477271328 11.756861727424118 -1.1218535561289322 -0.13055239099998162 1.4420584867251616
Ni 8.06276938843273 7.055995018056279 10.03790835199071 0.12215208275142833 0.31151434480076673 0.08035982930599063
Ni 7.6156951982841345 0.27535398980534564 7.266062967836089 -0.9259223826128247 -0.8177887256276755 2.2372464442341857
Ni 8.503476611619691 2.7886494336341703 2.23674194663744 1.025194475442286 -0.7266444041116712 -1.3593018750522203
Ni 1.2069780822303118 1.3394164680698504 2.9850676278818997 1.374377281328104 -0.3157625785541594 -0.7125385608379083
Ni 1.8461194018118798 6.791592576294114 0.7566437860758581 -0.18211535067893797 -0.24459881392514005 0.4039097651150527
Ni 7.660729175203331 3.6163277734593793 4.288591003835213 0.44384413941614526 0.6481002878581806 1.280512732667459
Ni 7.611189064073463 4.215981127457962 12.882421079416359 0.8235138010369106 -0.6152991821677597 -0.010624826703697831
Ni 4.719181317198174 0.43461299592754793 11.047411943735243 -0.6754159449539981 0.27377877792320593 0.3774130043761048
Ni 0.4163713619305847 0.3248621748831124 0.2974477300313906 0.4593792589372669 -0.24930624670313842 1.1918104449340443
Ni 3.7339889580412517 4.850862599516487 10.087025214887023 -0.7256527296223632 -1.0024039599103316 -1.431188376779877
Ni 0.13710962334821183 5.285522116262809 2.0207831841587405 -0.2176924764525993 -0.8634219500857581 0.1637245068765761
Ni 6.047596979887318 2.1339738092737104 7.326460673198671 1.3039534801889026 0.10907185252870247 1.0245972081779193
Ni 3.3799381619825803 4.2615259212107555 0.29237787295792717 -0.6272725524795518 0.6675907924826244 0.3211192148803825
Ni 0.20121713596480229 0.4147084707026387 5.979494149893655 1.1280427156587796 -0.9915847578076405 -0.10872321094003211
Ni 6.638621178089758 1.002888513749436 0.730968854977122 1.5114163084936938 -0.2258899246617271 0.9205369499311952
P 0.2615391309752622 5.867333368002135 13.01592761974187 0.05064121919563537 -2.068104365886464 1.029131091492531
P 4.036766514427491 6.369256515658352 13.17477249935969 -0.25786493490642687 -0.2681130949969963 -0.49026489277252977
P 2.246891694686455 8.950304515080658 1.770766621472789 -0.458237689133656 -1.5136292569846126 1.4761001496909032
P 6.29672964701656 7.873630334063777 6.344953492626995 -1.262483128859258 0.13528707747148958 0.781483463438738
P 4.650476453079199 1.3546406340569148 13.235437471386994 -0.4911971747788121 -0.5959642292845736 -0.5662188797013409
P 3.8161757378755543 6.490183279283586 8.562336393443974 0.7989106577762499 0.10347276117437017 -0.12443882190307602
P 4.597232919905744 1.1178952751424316 4.3125154751059585 0.9230969973488876 0.40912781898088246 1.3976838172645283
P 9.072781972665029 5.91353492625527 4.216591371139528 0.42321977829757434 -0.23176875204000733 -0.4522989550517178
Ni 2.446648441810917 1.5138695384728516 5.316051631626563 -0.0827481270325091 0.08517961929213719 0.6280798788721956
Ni 1.7460722762599783 6.496030307682452 5.487245508196624 -1.8820251454637715 1.1015536682293159 -1.23401458910592
Ni 6.661635300789196 1.0859874665008786 9.743568395088015 1.7570281370643805 -1.1545137653661148 -0.094612739680579
Ni 8.455104081823762 2.4394696409530257 10.922436956703743 0.6481085153882967 0.2559214380268109 -0.19136977939767041
Ni 3.2274046067784505 4.695026978352311 5.220314523108147 1.043065442185436 0.10290763269951955 -0.4791533562404006
Ni 1.8307128012413871 6.915292345587453 9.471710764074064 -1.2920924670852585 0.36133075410226156 1.0518236479940402
Ni 1.7614332681846137 1.8190005009853114 12.074351720790906 -0.354315499126693 -1.7648332349310962 0.36254225791185946
Ni 3.856758310959108 7.007166401801781 1.9417871851885928 1.6606914727141593 1.5819612085917916 -0.14199071474391028
Ni 5.524091821011572 8.340544285160165 8.69496086255861 0.0648236813436045 -1.0475913550802476 -0.3298583945255932
Ni 6.725250240030531 1.059525330174651 5.180048474026842 -0.09716173135467783 -0.07845772718727133 -0.6511637572748528
Ni 7.597971678504107 7.477546609983301 4.740775186665626 1.4972413025448925 0.7931876392495437 0.1616797085324054
Ni 5.268929690900035 4.930394956161912 7.53101818638604 -0.9469036128501821 -0.24958906805087983 -0.22853404715279352
Ni 0.5259753231353608 7.632907901230565 7.585354502714228 0.38221196842664495 0.6203688833811831 -0.010179254525846986
Ni 6.304930081541648 2.1776668920047104 12.00329983575613 0.6620143268361115 0.5344544428055505 -0.4223764564606726
Ni 0.8766665863402058 7.661641348120471 3.1239806170872972 -0.18267919360220797 0.16163857088182484 -0.019545269121779243
Ni 7.617902656743614 6.585651296791445 7.751836093994344 -2.1453102229445054 0.8230759421685439 -1.5110895212818944
Ni 2.3654012000812683 5.631199164942136 3.0180308205885833 -0.6996478209181691 -0.9116764142167718 0.5642542997758024
Ni 1.7209327906636034 1.6870638102501998 7.640880292526367 -1.2427990201667694 -2.498847963364909 -0.042664628748062004
Ni 1.2811377403937836 3.53840084114812 4.381738453441868 -1.0797805382182821 0.10947397306312757 -0.8045966524174337
Ni 0.5408045182493036 7.6338656827935605 12.008786555852726 1.5871977744003827 1.7376962695049878 -1.4446619857862797
Ni 2.1047386672793773 5.299961813541134 7.7157496212193735 0.8436604511881148 0.43703945778948605 -0.40457439528224515
Ni 6.175666057453756 2.1712451946680456 2.966244027563801 -0.08131088036535028 -0.4513841565469323 0.599504124117032
Ni 3.774234027145463 6.943715653685532 6.225492590879606 2.038773221022515 1.042357360374818 1.3410293019952777
Ni 8.37507003007391 7.401225102006207 1.1454647893900674 -0.00873095211509464 0.3198704300749459 0.03426869137488291
P 0.2080091755058258 5.698435430664516 8.727055666648177 -0.183846988658064 -0.13243392429341064 -0.18685157981234274
P 8.582370447223118 1.7198199397046925 8.74718823510237 0.0991733624680679 0.06434417060402467 0.09832541264547583
P 1.9551696740559519 3.6260971454019475 11.009643424101066 0.7223902568210075 0.15623796869154383 -0.3383525480395334
P 4.156005758156016 6.387472608813635 4.075996335074925 -0.205137265495408 -0.2244768463642844 -0.23747068752079104
P 7.125137725175481 4.343074180003061 10.702980923260728 -1.7670652095854082 -0.6174177711726593 0.43706414037983443
P 6.146896123647164 7.8778445729409645 10.970326034853587 -0.1922457542447205 -0.31091913441892904 -0.77621681572316
P 2.0485579373127325 8.560806679461932 6.408007445524288 1.7085787833137411 0.36856789528064915 -0.8010271898986204
P 6.8194959458294235 4.0698966347780114 2.2154609524805666 1.426287339933834 0.49920410424368866 -0.9615802410257503
Ni 2.775787795502498 1.759335270475192 1.0283335772730529 0.04867278261535488 1.4637166884248856 -0.4623663665900488
Ni 0.9012031256383513 3.5451417990057834 9.027443329991508 -0.012371377081159339 -0.3491601801779987 -0.04388538852904055
Ni 0.00930142723607531 0.03639205070221248 9.965481822369803 1.1503879161231996 0.1438704482651264 -0.15455903832722412
Ni 2.5785942542752 1.568390113730302 9.844524957038304 -0.0027845047236726237 0.7431539717309201 0.36879235258662935
Ni 5.416127034538896 3.2914117803741556 0.7647338476779717 0.2100323888041802 -0.9553208903795998 -0.7197818726638829
Ni 3.7076727693817664 7.359620895255457 10.645172876809907 2.6868539684966692 0.1265370991930014 1.0351754979143977
Ni 7.561503005276855 6.699645546246415 12.35184293174111 -2.004118607063123 -0.7025071447438352 -0.49128742049977325
Ni 7.461747775058439 4.376386734937009 8.51982822333234 0.7640652679622906 -1.3307340907168566 -0.1649223838394192
Ni 2.9121394031565666 8.69996777970079 13.116003022654201 0.9649977513477317 0.09637754489048564 -1.4401934084919648
Ni 0.0643145758687812 4.912817384048626 10.866471499545543 0.47486809860148543 0.6166366700322606 0.582170517934591
Ni 8.97125712698736 2.7919514995942167 6.88143248690322 -2.0067169639179183 -0.49740638891331757 -1.2418983627293707
Ni 4.038080043428172 2.837414197784468 11.632007147217681 -0.9323989914761038 0.013897583917698646 0.12246241490299553
Ni 0.9708894878161693 3.6322725560509843 13.271737392624576 -0.40048454148358775 1.5961567833658834 0.652479904983115
Ni 3.0179788267323064 8.853231073238632 8.404773116774736 -0.6271943909434488 -2.0147820003142396 -0.20455285374684773
Ni 5.3857607981273095 8.248314481508153 3.84342964029386 1.1875503841061095 -1.2491735562345456 1.3346336828815788
Ni 3.045280162142303 8.714535181187514 4.073352857961054 -0.5691890180732585 -1.5941104423598158 -0.37269323030293233
Ni 4.824664993336229 3.11047316053029 5.672525158953158 0.23671632585326974 -0.7271573391923476 -1.1412846682703506
Ni 5.847639554721086 5.9400244277690115 9.61639051046162 0.23401306798949373 0.737723287633652 0.7702042909804928
Ni 8.115274061543301 0.10537330321508127 2.805876731347274 -0.5223980258616487 0.6275602589232998 0.14311711503886967
Ni 4.69273742433029 0.5786560456189399 2.113181739800424 -1.1504509081506509 -0.9371082240263152 -1.02975741222262
Ni 6.144688665187686 5.653967000953948 0.6856749087765416 -0.8133605146529927 1.1795452544134462 0.7282145768122684
Ni 7.644729662236697 0.0027292213680825076 12.06236211996802 0.2767211483809815 0.44857831166702106 -0.47233761887014786
Ni 9.190050922892532 5.013548639288383 6.241980116356908 -1.003815752656194 0.2778750594797666 0.06625809979728589
Ni 6.719567402756749 6.032993091483908 3.0571876674026472 1.2002665461211974 0.635086649207332 0.13487672940694834
P 8.881572285774169 1.572458404940746 4.414006570385692 -1.976706533598757 2.0212611802806806 -1.0903156334216513
P 1.9685603724795653 3.6854613588494103 2.017031416950544 -0.35390926482720986 -0.40433451135729725 0.10673343420351297
P 4.500506103772232 1.209979131127702 8.749818029622485 0.6432907822846792 0.47486552749832406 0.06904491851380366
P 8.501634022327067 2.1095823054693903 13.176067784902028 -0.8373167683582741 -0.4916710290914371 -0.07254676101947505
P 6.4560315252658675 7.931024254010219 2.0034135874705625 -0.29553648131527166 0.8181021431030362 -1.3271432880418048
P 1.991930242616689 3.542478254087735 6.510620513492104 -0.9328612758245032 -1.0371159094702203 -0.5466795241168326
P 6.879298002277113 3.9663102783076063 6.31126968331577 0.009175238741364843 -0.31106774418165134 0.5264480275613063
P 2.185666648488027 8.83560789247949 10.897151523440625 -1.0529942712633735 0.3272057873940945 0.11420094622515171
