# total energy = -381172.636069839 ev
CRYSTAL
PRIMVEC
9.22022604281941 0.00000000000000 0.00000000000000

0.00000000000000 9.22022604281941 0.00000000000000

0.00000000000000 0.00000000000000 13.49473280839482

PRIMCOORD
 96 1
Ni 8.833723330539831 7.340526172956846 12.707720218441036 -1.1412630710037959 0.9339943609876818 0.6716004278626498
Ni 3.268090659415208 6.615880952232171 4.117836828307206 0.10555689739690853 0.36871239127831335 -1.2202111075639241
Ni 7.1399217162328785 5.723316975895194 2.7146272322784135 -0.7025768216395061 -1.2022884616472327 -1.1373454811169446
Ni 5.389305069415327 2.1551817225234955 7.754167639120991 -0.5725013702759431 -1.0449444043757035 -1.1592433096313002
Ni 2.470467350030783 6.143040103118084 6.186781777206615 -0.5522811865743262 -1.8823195367757388 0.555469868714953
Ni 7.524663306074204 0.2657398211621154 5.051348750259702 -0.19991972585021053 -0.5335051915184037 0.6805704925717441
Ni 6.922462686410993 3.7539043664881424 12.002957493027276 -0.3797735341884814 1.117179804802347 0.9578266875205891
Ni 5.529765992048637 9.082752414129372 6.766448164566043 0.41787599748715776 1.3605964254939278 -1.0946911367815275
Ni 2.7625733294154413 1.7023764244716488 7.638666790247734 0.3710958039088254 0.21133310989347476 -0.18026698461628954
Ni 4.9535018680771365 4.616327424084915 7.677612102779625 0.114015569687223 -0.13034284609233682 1.4835355229230256
Ni 6.830103682733833 0.30448597681276246 8.708785580372417 -0.3720175443921464 -0.3404032599209751 0.23860120158080841
Ni 5.044616141246518 7.11794069748811 7.612837249177433 -0.18228221527410546 -1.4693813429098306 1.114069027087507
Ni 7.054892792212636 6.936597292843766 6.109254429046584 0.16158663459796688 0.5474269438058185 -0.4047795693145158
Ni 1.8232628073418946 8.622746119584377 3.5565777001013252 -0.8711116054205319 -0.2300916214479005 -0.06096419838819823
Ni 3.500329711488715 3.0064944078100977 0.770817346382468 1.5047988031771762 -0.24476696407188814 0.4863727568069752
Ni 8.631108864551452 2.5173060980271864 4.749889773637337 -0.4862256897061497 0.18837547265603685 0.7964025466424155
Ni 2.5346585633282164 0.9381211129216692 10.087190924460279 -0.6582630873237955 -0.7236518971422505 0.02286327775141869
Ni 7.121269199068169 6.020143710983425 0.1284783169450957 -0.6929518969552323 1.992490278795575 -0.42674450362138117
Ni 1.3650175759597571 7.428007677088712 7.93275696226405 0.8829659336559569 0.7544791669357522 -0.1284011489849337
Ni 4.99391411856301 2.082351157479481 12.73122810660868 1.5356150172270844 -0.3515785598115042 -0.7695023798174618
Ni 2.2419901501585624 4.9351443981439 10.61908639897637 -0.8080732981121245 -0.18569072673502213 0.8558667634463195
Ni 2.875640960651641 7.4260529891802 10.741564192851374 -0.09335855555850373 -1.0562135495316196 0.3708764888091677
Ni 9.00250878739459 0.6447639488710444 3.257669037986009 -0.31136162127298633 -0.5604634652748026 -0.4643152627863036
Ni 4.91240732086848 6.605379114836914 12.358112299710006 -0.6085636632161391 0.7828101526699615 0.24589747813190557
P 2.2236880015812273 5.5909514116754355 2.205309325128229 -0.5249344191302572 -0.24693748936064566 -0.2127901540549755
Ni 1.024302565189855 8.64442287087169 1.243055192717232 -1.849538742800292 0.89086616233964 0.9650221768277638
P 6.1960010811675605 5.711358342794537 8.924620006376003 2.209386227488808 0.479537993273329 0.41919343074700066
Ni 8.403415383887832 0.9029800656305879 12.878549799396344 1.9234525593706226 -1.7149903432670401 -1.376358573424191
P 0.1765359788165238 6.0844640074446295 6.513056992063689 -1.0137170709303058 -0.4675965046407366 0.44917763581391673
P 0.727299723785337 8.656399944424313 9.600207170710036 -0.055235009213904875 1.1483284624910095 -0.10444952326534268
P 5.4602362679067316 4.021051194135347 3.8663892794421826 0.1498454349016387 0.19344491675914424 0.12246421467520843
Ni 2.5961574706384547 7.831798253812038 0.07248019645663949 1.4413822865937436 0.8216803473725978 -3.0574527781644183
Ni 4.451091754233823 0.5435728907242472 0.9329623964838764 0.2926686728491734 -0.8878294323958451 -1.9795545445705134
Ni 0.9528734744953395 6.181193398237989 3.881854364484381 0.5122421683745694 2.4040256787766854 0.40408665701254926
Ni 6.169843300052246 8.98310021169923 12.5227883018439 1.0053327035213524 0.30089028942801727 -0.30778598810658603
Ni 8.051626881711694 8.29757640982273 10.730633614947882 -1.118631706757525 2.1153442727100344 -0.49384798213809783
Ni 8.324582451728531 7.463026095374212 8.259653620352415 -1.4760356150015548 -0.4669095058760411 0.3908390479740237
Ni 5.982884777783924 3.2833132525140396 9.547969058377667 1.0511039962191961 0.7823869490896139 2.192772530191527
Ni 8.249363848154779 4.200301607481426 0.8727451005853504 1.2816414469552637 -1.0710801822308067 -1.0917302543809908
Ni 5.779025581287766 7.8350253329062785 3.067757277335158 0.5270375815161891 -0.43788766472239427 -0.3310449586345266
Ni 7.763190552268487 3.7199831550946842 8.130792664029002 -1.0404640000068468 0.6324425267162657 -1.2853543770304767
Ni 3.2918696222267685 3.3684620394720683 3.2619333925033978 -0.6018582261715053 1.8363577253336438 0.6689339367740803
Ni 1.4712806804201017 1.179193141487411 5.548184315473365 0.6273293738594163 0.6096946914967887 -1.7103746988718995
Ni 0.3290707873752842 0.6024873686912984 7.370229130962833 -0.9812525226436971 -2.163671756170828 1.228016462540956
Ni 3.460664299307509 8.464333416961107 8.782884848511767 0.004215580743244352 0.13990477874915905 -1.5622146220924835
Ni 1.5350846442262263 6.097538287889294 12.767582535639196 -1.1163290267662773 -1.2571979692009188 -1.225029097777858
Ni 0.1416051526778673 6.3938671307744155 1.264368667100792 0.42529131611462234 -0.4229678101877683 1.3572352223311788
Ni 4.1379267787027505 3.386801068953338 6.043751177591691 -1.7378880738008198 -1.187200714076175 -1.4974932706546984
Ni 0.5064089258523763 6.720475195789494 10.59474131428942 0.44523124957165905 -1.167242525786693 -0.5394038163910259
Ni 3.696775846294104 3.4762372609937144 9.551571400669438 -0.3885664498897631 -1.4644895620351681 -1.308076758328657
Ni 1.5783459445410148 3.7506127458120173 0.20236459786422564 -2.313644717789267 1.0934858036195167 -0.6810633730477624
Ni 2.9611677768749955 5.815390152566864 8.555349955735064 0.13401026764159504 -0.4315794631161793 -0.2106132010083147
Ni 8.2313659670349 5.216388951319943 4.75470734171374 -0.44777715592196426 -0.253444437241228 1.052229368072891
Ni 4.607549768948582 5.491815541900371 10.299193424545106 -0.4607956796688193 -0.01194817350081168 0.8339846186612476
Ni 6.999322490209816 1.5403586134888134 0.8141302799627643 -1.7662830800037452 1.713261019280759 1.1832193608309234
Ni 5.721030359851274 1.7851832740298579 4.892448297681903 -0.131834857256831 0.45417894568325007 -0.24350352397843222
P 4.780558089303802 1.120312778356499 9.740633056484606 0.2284358310120324 0.4624396430301455 -0.11314293727428257
Ni 1.7661896085037572 1.1851309670208134 13.171075299063256 2.4421235140896718 1.5112121629026876 1.786528974736975
P 4.460533265640972 4.164582452021176 12.528334267773 0.3855364048141876 0.3979003256961792 -0.741782031084058
Ni 4.442646027232897 5.589725121619623 2.374196204468805 1.6977351557310179 -1.2920330746022328 1.6944989081819075
P 1.3896355793358195 2.1992359622728688 3.595401305650234 -1.3273628602517784 0.9290732695369806 0.20280758892096684
P 0.2344777229423111 4.439474269494558 11.823140035783208 1.7131980272533078 2.8998495536942315 4.0658957451799775
P 6.629102756292574 0.7536870885276417 2.8555261156459415 1.2729819715080528 -1.03737096290382 0.7540811601663852
Ni 0.5743610693284973 2.421212902826691 11.637722213276737 -0.3760384926260814 -1.4708707829711636 -0.36898698509593875
Ni 3.592034079121044 7.815681298792803 1.9430390750037214 0.4972680635632404 -0.4118429039192004 1.6634476953030577
Ni 7.342960312616502 3.1233146710216 2.7737611516238734 -0.910854946756741 -0.15548566390655158 0.4813506210020356
Ni 4.961726309654458 2.0053253896129544 2.5208291463754984 1.32074741181779 1.1873302976755036 0.30675626129049105
Ni 1.4155905154794959 2.740518548862804 9.33276806189915 -0.1587764188426814 1.5893263907076114 0.10502956413852879
Ni 3.8629888600994517 9.243737559802051 11.857403317560658 -0.4035786070278791 0.9491831529129783 1.2253677120641995
Ni 7.59484766626094 8.46818747142223 1.3180561989577722 -0.07125915255630308 -0.661573382643951 0.06921409710181628
Ni 8.07851306067971 7.508693874670705 3.6703239399699146 0.909593306435498 1.0026543853582408 0.017486586820537626
Ni 5.000561901497146 5.560570767059658 5.630271987404857 0.5440058339394115 -0.6237563117961773 -1.647662407444343
Ni 5.261853885644799 8.296645166998394 10.29309424505699 1.2366273441384186 -0.9813126864576712 -0.43840805600223853
Ni 0.5388180201845336 5.134282838936484 8.681876350839444 0.3964569083814333 0.27911381698287413 -1.5892577422532048
Ni 2.7268726144071582 1.3130155014125688 2.2591803394822816 -0.9882176411076207 -1.3830442129744827 -0.5908474768832985
Ni 3.493571285842777 5.614675053131094 0.34840467924017765 -0.608121690582714 -0.8743095435325393 0.1548950815104042
Ni 0.2113736806727465 7.994830289653064 5.6095449193938505 0.04614076022212053 0.5865568199277447 -0.2974059304238426
Ni 2.9395186862656337 2.638257022479317 11.585835391554344 0.32102999760068585 0.9445345983973733 1.2346442522701186
Ni 1.1567787721214153 4.115401766624952 5.066664467640967 1.3465715719697455 -0.4982605093834967 1.0067079866023245
Ni 8.548237473411358 1.6776385581578004 9.222435149689671 0.6732392490176535 -0.22621414077036525 0.34174229044737275
Ni 1.2430432064234531 8.845350035505081 11.927886413069261 -1.0150686998621936 -1.7245764442935785 -2.5781325573288503
Ni 0.2977376934154066 4.340273858137608 2.8858892418323503 0.20301944782145684 -2.0489257360754842 -1.6715068181621082
Ni 7.076929132313306 1.6938845963408047 11.034251968495592 -0.6076984870023664 -1.113972867829275 0.10164573526796043
Ni 6.665310583729951 3.7766230033115953 5.952310508422492 -0.04259546607302342 0.007793013681857547 -0.3431119171013897
Ni 0.4745705635086005 2.8402260726488486 7.136918688630038 -0.5884568651639349 0.4359107435016816 -0.36846787936767506
Ni 8.5821679050308 3.8542757465450026 10.224729957479404 -2.333924036863593 -0.5995007816829223 -1.7121112219470318
Ni 4.120869360633194 -0.015031734420971804 3.9578834259220868 -0.05666479968189596 0.7371861841832594 0.0140554496518016
Ni 0.42715923947861884 1.8734945985002425 1.3295482886236616 -0.8108274638184939 1.0376985214465677 0.7353337043555529
P 7.446780057191207 1.7347578581258556 6.809927984236642 0.5983283586413759 -0.07794170678280125 -0.03034004574443807
Ni 5.950401921643899 4.273537862468716 0.8565175028543129 -1.5976091995416937 -1.5439587612060892 0.2675754773259714
P 2.1708653269215037 4.078188934555369 7.200519807464525 1.5907361265709443 0.22801339876263313 0.4743924445166475
Ni 6.694372736030081 6.347821322212597 11.041754466378404 2.0796781867669925 -0.46913968075814044 -0.820472957328058
P 3.8868139240409296 1.0737875180435357 5.871531186558065 -0.7002908538188068 0.689494020313619 0.4080934641790972
P 5.504152204266352 7.756837816565825 0.5928042873633804 -0.25355268068431813 -0.5362465017089668 1.5638087060524808
P 4.636040267237733 7.585065006492401 5.417339166518293 1.2122298891306607 0.5229801236173639 -0.028412489704422037
Ni 2.5836456239787857 8.36573232029309 5.7878364292376405 0.6688444623840675 1.0674742100471035 1.1821700936308028
