# total energy = -340862.43836141855 ev
CRYSTAL
PRIMVEC
9.31385573198884 0.00000000000000 0.00000000000000
0.00000000000000 9.31385573198884 0.00000000000000
0.00000000000000 0.00000000000000 13.63176932273421
PRIMCOORD
 96 1
Ni 1.0205750219102923 5.31642318670667 4.295820223230107 0.14191769541412977 -1.7961348732578553 1.3131163776350934
Ni 4.3983750853007635 0.33675827639906425 7.622843941007046 -1.0001388180252386 -1.2338042728673269 1.8840002669122715
Ni 0.15287855431059474 5.001968799890805 11.648660152431024 0.11656199025816054 0.09315723818097504 -0.7506065713542234
Ni 3.7872650893837743 5.90561768081163 2.723000634451864 1.4252272741004357 -0.5304247528208672 -1.710295508894532
Ni 7.94918001318696 7.46342519741791 1.1603471188686185 0.9941759155735846 -0.2893676335003984 1.3257988581987683
Ni 8.132784045154887 3.156847471173399 1.2791993651597122 -1.6757265126704108 -0.06573976539997066 1.4628491982182676
Ni 3.437669526054187 2.4765541571689673 1.73180710086126 -0.14559180183160733 0.6714867851029209 0.7381097244387933
Ni 5.948629065158401 5.345668692737172 6.100257700071132 0.6554559568923034 0.27778352820722485 -1.1311516936014068
Ni 8.841428735069144 9.107991277296206 10.362461424920381 -1.1923305791035723 -0.23837443028198302 1.1252504976256232
Ni 1.3558831310198824 3.8389663008408816 8.447607260645531 1.040198662160602 0.6367894908310517 -1.0846766899683191
Ni 1.3726853262042855 6.843793023788211 13.41198347727509 -1.6457574771121464 1.1374030738277574 0.19961299324306914
Ni 7.330162554015226 5.363076288524119 0.35650737543953465 -0.3681894288953078 -1.0180609497212982 0.08045958810864853
Ni 8.390144498223307 5.039205593874865 2.8172773418219115 -0.14041642827825496 0.3254615510094782 0.19766975347376922
Ni 7.644104678782788 6.567152889992677 4.780879293999004 -0.5783871396327588 -1.3618218132605966 -1.1968022417216808
Ni 6.199441877863941 4.9108699799913325 3.3846457471269105 -1.2897481352227982 0.6068649353574774 0.05041290523491317
Ni 5.591899088574238 3.56113399355111 1.273774044375391 0.16434439984876215 0.8994371918381026 -0.9838513937191248
Ni 7.836147063764611 2.9636687958298804 7.7337933809711075 0.2902698335996936 0.002749794830995264 -0.4498620634754511
Ni 4.516484085929043 1.9849968094709356 10.436796236442687 0.8498508962695428 1.9985187443778423 -0.8490890784028539
Ni 8.905526688095232 7.289572772078626 11.799073329210959 0.2784926384591075 0.28928998618492757 0.32604236321361263
Ni 8.541829947654122 5.04501743965927 8.578281583625962 -0.08879896121227933 1.222559553191443 1.9489211359553724
Ni 6.6222722863902925 8.740196440468656 8.260279549279199 -0.08808933673976442 1.1557149847630677 1.796316907361674
Ni 4.275842003346213 6.643368168925033 4.920304915535568 1.7018154964479786 0.43520703256643756 1.346145025955288
Ni 6.895876103317692 6.072624422414476 11.674588063159595 -0.4413398849370528 -0.5766063935832522 1.0323971638383123
Ni 2.119451626367856 4.103340087043368 0.18872478967989223 1.413828802455507 -0.8437247287671468 -0.33193713143149284
P 5.243812369823296 0.5200894124030763 0.7168483337714753 -0.27340982461956137 1.7712278256035303 1.5743191186655014
P 8.245332674095202 8.495623910897013 5.052083861769252 0.593123931622301 2.044355857316615 0.13711667448106063
P 1.9495669034390786 0.37927043809512306 7.295804672742641 0.5231238482840797 0.4055223610178113 -0.6905139769377012
P 6.397081889955424 1.161093158688059 10.739066237593233 -0.8915055956958517 -0.7829695610659613 1.5354908329443944
P 0.3046767013920371 3.2839164007193045 10.227984254770444 -0.9027618853359614 1.2252406995680318 0.08114427288049895
P 8.718560354319338 5.512973477713578 6.5944909184324 0.8460441209289429 -0.5853226904103274 -2.3412725068088647
P 6.722265838219423 6.338935490545097 9.61970753367335 0.06435162680319238 -0.06060270128372144 -1.2194330917473193
P 4.0899560767994725 4.126634039458109 9.440927147429374 0.5114631241166998 0.6946228568997521 -0.1495225043445812
Ni 1.3097795466724345 0.20876913793729476 5.119928778832305 -1.566850063981966 3.6844993306760934 -1.0656425561550034
Ni 6.0559898766277005 8.341963924116369 10.863292578463817 0.6692111016948668 -0.9865291976616043 -0.3825626668978444
Ni 8.107403789125232 1.8573411070333354 10.062971609613816 1.7101170743351388 -1.0727513992856428 -1.849270833850886
Ni 6.145775442912427 4.519790504604466 8.305632436879495 -1.231964905665743 1.1165773953316576 1.271545239061526
Ni 2.9445381367895456 2.0107030504404215 6.104497367060012 0.5720442281338665 0.35575068891132283 -0.9840658237227762
Ni 5.721678350048449 3.0602534765739278 4.974886902475234 0.3653817842431836 1.5948941146033757 1.091190836937753
Ni 0.6420180251406268 1.6933241130215058 0.960582616354983 1.5017487034969428 -1.5134045425683162 0.04651665550430053
Ni 3.0749041711554503 8.257049504218251 12.069213323306275 0.8196854284297561 -1.2122481439631059 0.12307176635222032
Ni 0.6482452688769305 2.3161695667723907 6.547706491253478 0.2690456341135947 0.4290127308302676 -0.1829023653566076
Ni 1.4865937780364649 6.350000350788486 7.794850360201348 0.12620825509867295 -0.5724116387756142 -1.2723291684154021
Ni 7.870943627627655 1.3775751003017422 5.870521210803942 -0.9198062424127578 -0.8151034654860284 -1.963258635623967
Ni 0.2565967169236745 7.251814402190837 3.305158510784198 -0.057655188619623286 1.4946398603663034 -0.5581443302233227
Ni 2.5802918788784366 1.076709628549094 11.135600838101777 0.15231420815710542 -1.1510445758705918 -2.132568864118437
Ni 0.06962758899115475 0.9870637700957231 3.0291293659044602 -1.5506893950617036 0.24556914825820936 2.289343679150057
Ni 1.0712982785479086 1.4708440485149428 9.049967820777471 -0.05284928259054769 -0.09655212279513695 0.34006001764894334
Ni 2.3518416330452645 3.3846084917052153 10.674384305832078 0.8933704168187323 0.7725756194261469 1.1047287235231877
Ni 4.721798714889678 7.238076465440839 9.004668953538635 1.7730520232964626 0.5921754516661027 0.3440786518900332
Ni 3.6891715640610827 4.468312825677528 4.59094836004174 -0.327084688435198 -1.543858231072483 -1.0513238255394861
Ni 8.099123771653538 4.064380229805918 4.9984155640466525 0.09489196148389464 -0.5148932328441713 0.8786917317606351
Ni 0.965548764066914 7.530904079962811 5.703491184562538 -0.8962950466646952 -2.6116738836194053 0.892607827621095
Ni 7.252904123275413 3.8059766249300413 10.37335397883843 -0.9283574744168785 2.287476801144648 1.5795438573995506
Ni 2.2777871685712126 0.4520358649785314 2.6288869195517313 0.7043184869209611 0.6186004786268509 1.022895137885148
Ni 1.5847245587808507 8.188266681914028 10.347003219073622 1.1652625192421868 0.11480129881331196 -0.06872892993528164
Ni 4.428915217235164 2.8637683825549867 12.71998078423195 -1.0222037682450782 0.7296531090310079 1.1304695799327176
P 0.5333951862614125 8.72535946877866 1.5720428132359043 -1.8430965867193743 0.960593708742765 -0.5731279481163484
P 5.69369021450015 2.7049764614358676 7.260770605566292 -0.8952740615993484 -1.0217378843522533 -1.1751473824560663
P 2.0512555769553282 4.216428919598259 6.06446082813558 -1.2675703135741783 -1.4478851207092676 0.1821217784368412
P 6.103714071818876 7.131907827465778 2.5881546356271468 0.6231240775288172 -0.7372676881534722 0.41922299843335536
P 1.9811501871809363 4.649048190174947 2.411527612757133 0.34162196281942453 -1.426205321742989 -0.4983080747919804
P 8.261659862652996 0.8706806268774596 7.894634350283447 -0.25600114222481074 0.124304867428373 0.7937339986713169
P 2.475455122228967 6.892234385847015 3.955939011107467 -2.06284208904626 2.258264955467382 0.25105613951470956
P 6.4406055363505 3.7149988851510773 12.7294138570051 0.38002807340144873 0.9261856635765405 -0.08919028311342705
Ni 3.5416587218600974 5.8715289699607895 0.38515493195183365 0.9499133462107834 0.3179464735793556 0.4789504962009752
Ni 0.3267151460956596 5.189233177040257 0.9821404661187411 -0.34004819057440144 0.7027917658637897 -0.09505959741001048
Ni 3.559178083912127 2.300168363154428 8.467931955951189 -1.1762655552209096 0.5534433252032275 -1.3706319553530588
Ni 7.023298959369699 1.4798505467096865 13.180080585236345 -0.2914134602858336 1.0154618215355544 -1.374343599876691
Ni 3.3525688290475952 8.73198161998493 5.5557641236868065 0.030559103733779628 -0.8424939416838394 0.25444871013602627
Ni 0.2628202351178087 8.608815195861565 8.33012880802944 0.8170503047997542 -1.5803619824254718 -1.6822365458747865
Ni 4.45794650459092 8.572034780793269 2.34962586683996 0.1980459058662654 0.14365833225432034 0.19760573300505324
Ni 2.953200022333612 5.9847668242024605 9.653310061271075 -0.7868249302563095 -0.9738467170979292 0.17868781305462775
Ni 2.299721298094089 7.740130528201411 1.6213485010780293 1.6659066983665116 -1.7338964361429234 0.8381824587926792
Ni 4.7390107197127245 0.6534424002033701 12.21910864972465 1.4350442601908575 -1.6954180775620673 0.5115122321870803
Ni 5.661995164493207 8.187856872275384 6.104006526879181 0.7011855977189343 -1.7658894441097523 0.33708499418101945
Ni 6.200876211599195 8.209120404207752 13.421144585469868 -0.8797204301354655 -1.3079592589141862 -0.4447468537360728
Ni 1.204849651468728 0.1119432283377729 12.614675540654668 -3.586475765541752 -0.6367555522693227 0.9069828653958444
Ni 5.160835231853314 0.9714071791284383 5.659310911360089 1.0433696036894158 1.3587711993597307 -0.8860312028448418
Ni 1.8528238871528278 2.5907140830975868 3.767629619379473 0.5354319762274714 0.6947683813386809 0.3616061192508353
Ni 7.576281183587208 7.183618352778309 7.069503133355723 0.973414000435885 -0.02905886503916931 0.2719072719321059
Ni 4.603261276911907 4.987755856514197 11.517154102161255 0.90690213275658 -0.4584945423394684 -0.48061477127727553
Ni 6.374710009227632 9.243787289374144 3.802990602881194 0.8916107538151484 -1.7927664710062545 0.9371370203817215
Ni 3.0873474820015496 0.619319228087462 0.32215135693803343 0.18098997882524315 -0.17054975732852562 0.176224953336432
Ni 3.9927101123203403 4.375891438307887 6.882080420664067 0.38495379283784026 -0.1827748386398078 1.8849510608613151
Ni 7.461283010670454 0.6450170865870667 1.676898197596221 -0.3193600660974306 -0.4220249866585248 0.018919976832954512
Ni 5.715205220528958 1.957837607055348 2.953649881550578 -1.5369733310271916 -0.1820428455697897 -1.5682482298810732
Ni 2.458233803550496 5.770147653673524 11.955524678462094 0.12941673473364163 -0.4211932347858488 -1.649149790623147
Ni 0.08529908212711752 3.237728991673043 13.144542638481573 -0.6396943231826725 0.3688239771555132 -2.861015868656486
P 4.106525425598282 9.036060371858763 10.023848759906452 -0.9604037042191459 0.7692110738292882 -0.22371194317380183
P 3.879062448440026 1.2526762990695652 3.9426621102009447 -1.1468130542877475 0.2870628966266217 -0.2305752459525384
P 2.043003501049906 2.2188677191607162 12.72897796857127 -0.4625928807785582 0.7682479385850705 1.7580586352114238
P 4.650743311862065 6.958344131644627 12.507924786715622 0.8911209586629232 -1.0245496427694354 -0.20744740168582337
P 0.5248432042113464 6.525547897814889 9.659335194344683 -0.21695842650005218 -0.4109599870936148 1.3711304922560321
P 7.642316418541432 2.5723751017682686 3.3927022320684337 1.2891367268910443 0.2735005845611548 0.22558113517205666
P 8.157437820461492 8.874027229052187 13.086525701661634 1.967636710087005 0.6704475452051293 -0.47439784383328626
P 3.700972218882945 7.0445159220249485 7.245953192972686 -0.8190848187312797 -0.38554617500620053 -2.3412280267241745
