# total energy = -340887.17326322536 ev
CRYSTAL
PRIMVEC
9.07363350527926 0.00000000000000 0.00000000000000

0.00000000000000 9.07363350527926 0.00000000000000

0.00000000000000 0.00000000000000 13.28017981190550

PRIMCOORD
 96 1
Ni 6.499434468673388 1.8740228563595065 11.071287145628938 0.05757008510498472 1.0526908810903417 1.5409251165860882
Ni 5.024760361698221 0.5234660721134464 5.943623615888072 -1.3527717872431864 -1.245625433871971 0.5542192841373036
Ni 3.2548393003420437 1.6627977464595238 4.617398686734918 -1.749187557974039 0.6957317736932147 0.6928485386081487
Ni 3.838056155186809 4.379171351457928 4.893507533731547 -0.7267439058040128 0.520927097743077 -0.8090235778405358
Ni 3.973752341387 2.627188863162117 2.4478956836182504 -0.9361779989025618 0.19538121454990867 -0.156286305430976
Ni 5.176997781428533 4.681577402523121 2.544548933034703 -0.0054867341461841 0.6315444403820285 0.5237712520600915
Ni 4.770099769127539 4.630492846969322 11.038326265255096 1.305831671048222 1.7217415459479446 1.71543462989331
Ni 5.890838661451362 8.341091675004403 12.448136597126906 -0.8729663992410837 0.28309697000033823 0.32675275901707596
Ni 1.8437985837929511 6.908274238503425 0.2738377165783123 0.3592926406263103 -0.6579496698484345 -1.5955014091700714
Ni 2.6512430650756382 1.5676153330031546 13.152145288091459 0.7476847697217381 0.8338329235747316 2.8312332380774143
Ni 8.275906693281758 8.787550728551324 6.957180214698704 -1.9273284973862614 -0.07532046710987028 -0.5995406337819223
Ni 8.867988487873603 2.561994807806158 1.4835953032487894 0.602985140687097 -0.6220192745004127 -0.5723769288829369
Ni 7.288259854397213 0.7026539975108793 4.653666906451453 -1.5908348569323376 -0.9676866110338044 0.4757199050788195
Ni 1.105213905724791 7.631896495237977 2.3564615880835995 -0.23682251241383087 0.20505164776013718 0.6301768706105405
Ni 8.332371913390336 3.947248258478892 3.376817967699209 -0.9733726056749881 0.7310741577482506 1.1337292245205957
Ni 7.627550224880913 4.062020646258645 12.522544927112508 0.6224154814975669 -1.1792696321545562 0.20231727954810963
Ni 7.910574995188927 6.964984446711462 8.90608685942943 0.4938801209276139 1.5046699909087957 1.933610216629915
Ni 6.95324316520407 1.1411545672787164 0.5383023699440002 0.017995408136156105 0.7857052148295695 -1.6134945033133827
Ni 1.848045044183569 6.194270033080956 8.691027232091251 -0.38909404025845895 1.5354288693582074 3.0875675952719277
Ni 0.3625252233090315 5.011413047094378 1.2134033725357556 -0.7130453252709977 0.2181871567008307 0.2997505193966193
Ni 6.378310537574334 2.0719732407221523 7.107936817472288 1.729764673362737 1.0307048637375538 -0.37365765109873067
Ni 3.5545051141466244 4.642624294709185 0.29804344816816514 0.34141447479430875 0.29909823052460105 -1.1270587544789556
Ni 6.20052176643381 5.9121526261042705 4.385221650151228 -0.6011560578981582 -1.1930044652421457 1.489416664294151
Ni 5.295345180733721 3.186950375892039 9.302008497511341 0.6947069319731262 -1.837813483943564 -1.2718879671129257
P 0.4565280644346736 5.722840340655873 12.342333495877334 -0.949358759258894 -0.7719408140556254 -0.18028601077968306
P 4.241188609662789 6.460435992692885 12.251894777917151 0.1717823441840461 -0.6204480733585509 1.164135604726595
P 2.712444721773752 8.753524603626502 1.0927158831990709 -1.1599380217054798 0.7717212418456515 1.5899223724203975
P 6.372113246021359 7.981848384864787 5.724540739538782 0.9208287701400012 -1.4666891407896483 -0.006695409742304597
P 4.859992254362262 1.7312855307082058 12.632013776220644 0.3123476393353395 -0.9815787956348643 -0.31867306733273504
P 4.058754138265863 6.211074401977162 8.027815411229895 0.33397473068681194 -0.3947414683522234 0.5896879093575587
P 5.120124247820856 1.0889539548273826 3.737268051069492 0.324921362235292 -1.2394213619437882 -1.875241803993351
P 0.3702278306286799 5.855787215962138 3.480363548980434 1.6060403610281824 -0.17532815255377546 -0.36067229458265626
Ni 0.8534568758143599 8.915625062768354 4.5977179760784015 -0.8417814889978471 -0.23373436040681037 0.14866761254345365
Ni 2.077290389843738 6.788865224100582 4.683719687348388 0.2954462355943105 -0.9830165565226554 -1.0825403603516066
Ni 5.874878140453292 5.726379057648055 9.254930858428688 -0.12677286935289134 0.7451134094501362 -0.6478164380691747
Ni 8.52413407983332 2.742886761539826 9.768993016976243 -0.23482193704403428 -1.6399069318686401 0.37411170791701376
Ni 2.4710860756403465 5.299119812192047 6.848522548408774 0.8121821780741755 -1.2861233939860173 -2.476881743506463
Ni 0.7143245046784277 8.641692073040254 8.797136114783479 0.33727756980779977 0.26479251526419556 1.7652512963051212
Ni 1.3084179237758289 1.3860700776709298 11.344965166260936 -0.12423956140807636 -0.19189865531794695 -2.0912471225515143
Ni 4.007342931912785 6.9994279587686945 1.3459591742462182 1.4980342307598329 0.49630030033333233 -0.601289498152229
Ni 5.754888413518399 7.886493572375466 8.07721771516741 -0.9396911542621429 0.841833425281705 -0.28895471433269593
Ni 5.471246636145081 2.6825198791065348 5.04662781798324 1.0454727660753478 1.8748777357857127 -0.17096910425413137
Ni 1.1319176085657914 7.50452083078607 6.7126530558123 -0.09379024377928363 -0.5571164031794406 0.1642533827968526
Ni 5.182224194216985 4.46359243580474 6.957592157651128 0.9377525424785335 0.8269583079420856 0.14597335354074215
Ni 0.6365607450935734 7.181318012166824 10.806560264260494 0.5587845349104829 1.3632076378645297 0.19537684367453448
Ni 4.754048511796336 0.2976051916791334 10.249988133640194 -0.5913485848894332 0.12174764822415807 0.5474660245738701
Ni 8.226446318091035 6.96020264195536 4.888832797848542 0.9520625313433022 1.5321771951901288 0.5704375457683789
Ni 7.037637028650942 6.210529983978365 6.9335288821042935 -0.37388776483166575 -0.7534044458143346 -1.7140061249768999
Ni 2.5372056415942605 5.453298989451402 2.207882657305205 -1.0067627510996595 -0.5672349796706811 2.1184594213002486
Ni 2.427922801969045 5.109580685910817 11.411127378291422 -0.944791965823818 1.2255890840463861 -0.5566399777636543
Ni 1.553288066001476 3.3828228982259416 3.4971760841466213 0.20853754942620858 0.10027070929730472 -0.09105844667041738
Ni 1.5909799387848658 1.0955323389795149 2.591281774051451 1.408790468700651 0.2790739648838742 -1.6064807909997108
Ni 1.2129451540534346 3.4360397576083637 7.664722178475451 -1.2092628360825368 -0.3714711849703731 0.8427122283422326
Ni 3.680574175401419 2.7387673320155943 7.062412584412869 -0.4221825952823116 -0.8131602257167286 -0.24366061838158679
Ni 4.108123777123451 6.856300466884923 5.977249593583777 1.2524473418898108 1.3122941388441143 -0.6273424864855389
Ni 0.6028975655012827 0.20752125278149952 0.22970174941582694 0.44841453239564705 0.42772769347025696 0.37890681531281195
P 0.05632548615555365 5.793641901399443 7.640286883962773 0.03908950980229397 -0.7249500471283837 -0.3366908440663943
P 8.615832218097388 1.8045188251797364 7.71261009301298 -1.6957543778555633 -0.2421902044836474 0.9421414155748483
P 1.4770695461698742 3.3883487409137327 9.948846947058872 0.9524304562056822 -0.5604878907548347 1.628433898232034
P 4.027422882435086 6.278210214862164 3.6375869302163957 0.30898669328290657 0.2546968215910904 -0.06315863493635575
P 6.896741650562238 4.221789181638984 10.358659410380092 0.6637719329571665 -0.5068420804049206 0.632567225219588
P 6.48351024220857 7.973491568583252 10.460624364738143 1.0844681735019386 -0.33533433003849994 -1.7027696328311321
P 2.70377032832625 8.902658840763669 5.683703945449008 0.9949516173973445 -1.2313501548998793 0.24381925544663813
P 7.248018290652789 4.170795362418317 1.4864235547525406 -0.2943126362104996 0.5220141601596687 0.37869007131631555
Ni 5.438182316351467 3.352326416659988 0.6833453058202069 0.3418829297902951 -1.003182489947569 -1.4444434420175705
Ni 1.282521774299711 0.899256947326502 6.949809702358323 1.4368283486744737 1.3726980938534683 -0.7380521317279806
Ni 7.041339071042763 0.7351339753191176 9.031876452778175 0.9556078254923995 -0.5336450595303778 0.3270134688776304
Ni 2.6139322848914066 1.6647032094553136 9.105117006156355 0.5128713173181361 -0.7190997589951937 0.22384512631755646
Ni 6.642997494956198 2.2844505120193683 2.652489782292884 -0.16796014222447847 -0.16915082009847 0.4877763220227212
Ni 3.812749791876055 6.988730145092331 10.124171319391507 -0.12067755508843087 0.30324747680628417 0.25641843226788746
Ni 8.448505346167082 7.31810303436461 0.2220526765327269 0.6648610522562872 -0.39688448283715516 -0.7207732900428747
Ni 7.5000747504625584 4.060523496761953 8.004987057176997 0.7319195364676814 0.14034726560321634 -0.4078918896912523
Ni 3.3620896461050833 8.577087803849658 12.355878615687407 0.7863590463634845 -1.1237047504050584 -1.4903556311686526
Ni 9.12263093317766 5.043406678157023 10.000719093984266 -0.590750546294118 0.024558920286286735 0.30362440052972867
Ni 8.79869315026004 2.4609780481293457 5.54483380231583 0.19277051639993897 0.4837952258877861 0.6068050286538195
Ni 3.4148256029219013 2.905468123247283 11.39748789269489 -0.3365460909584139 -1.134999092371955 -0.6245944914267566
Ni 1.07922701991554 3.501687494629987 12.5885075192101 0.35786285015831915 0.6452214236484888 -0.05770378246937159
Ni 3.208155456945188 8.447207816603282 7.927059064829174 0.31940917416781117 0.05900424644834999 0.1849672183054363
Ni 5.722595352556414 7.758673299891208 3.1053711534989477 -0.8424648882181167 1.1476152384740688 0.4868944336384002
Ni 3.3025938324698676 8.648787654291242 3.3416785079668467 0.7088479993601986 -0.8659994810049473 0.19796285923415582
Ni 3.2579061884019342 4.196355787461844 9.205090298002139 -0.08180710327547847 1.0498942921818113 -1.2609078139523382
Ni 7.136076876466781 6.209713356980169 11.842799131627679 0.38173117213548446 0.5919808191567933 -3.2275258529668416
Ni 8.160635255669774 -0.07593814456222116 2.279968137162605 1.2929445306729088 1.4034322897125315 0.8043457127488921
Ni 4.866743037547347 0.43084423797808646 1.5198635229653246 -0.33311443956904563 0.16914979165720545 -0.6161255347237969
Ni 6.172756448495155 5.876838045248961 0.551034492209203 -0.8024603228007212 0.09857558098306894 0.5450250192325452
Ni 8.215557958115093 0.16507933295860464 11.394101612742372 -0.20148758455796267 -0.9981783518647582 -0.27991651538982765
Ni 0.33834580525578717 4.869728262907418 5.615125424867194 -0.4751074683058012 0.6930840516577225 -0.37576364169813997
Ni 7.733258052980693 6.76174413412717 2.4548941769927874 0.45691382811590986 -2.876673886908717 0.7237933078161212
P 8.918201974629328 1.479782562530547 3.5958609200619187 -0.6827726424293854 1.8249003754263218 -0.6604328412816045
P 2.081482408434476 3.347127224771475 1.2870232037864322 0.11167997957551089 -0.4327472581720353 0.7389856992858433
P 4.996804497459988 1.0453188522237906 8.261360751717229 -1.7758511833081545 0.31439140923824566 -0.40976802366804266
P 8.64914152599046 1.9945932958264496 12.537233324720054 -1.3493594191275275 -1.0312561082553338 -0.19967418549830773
P 6.712791882401993 8.068465288473416 1.1296292382441808 -2.372037041685231 0.29440313904177684 -0.13078816115987155
P 1.9270582430756629 3.3271198633156795 5.641752001825031 1.7556667379404796 -0.34553415338963717 0.09485596603963664
P 7.219481713882505 4.149191041499384 5.452045013327506 -1.4488798805223693 0.28133165056979936 0.6574832717349773
P 2.4244748213099965 8.771308924920541 10.314117851808504 -0.7855308940352341 -0.04477936109821966 -0.6916632600507958
