# total energy = -381172.23309863225 ev
CRYSTAL
PRIMVEC
9.22057042259372 0.00000000000000 0.00000000000000

0.00000000000000 9.22057042259372 0.00000000000000

0.00000000000000 0.00000000000000 13.49523684300826

PRIMCOORD
 96 1
Ni 1.290225206403 2.7018300025771635 12.384727260702439 -1.4121426730023359 -0.04663698313224872 1.4196466946888648
Ni 8.611136872169412 4.198291708859502 -0.14985547757808232 -1.2856526249971858 1.6919892543861763 0.05078854340677705
Ni 3.9710323082905363 0.5611915809968326 3.8095164972860935 1.264444623461003 0.5311937697764078 1.2759220279729833
Ni 2.02867303426711 4.676313744145616 2.713756810490336 1.5091473099538588 -0.4005709305498069 1.5185943142993716
Ni 2.4902271306796835 4.710337649209092 5.24800110051745 -0.5903314564788285 0.934136800102817 0.9157773237590229
Ni 3.4424631056445376 3.4501899437050234 12.43792534207472 0.87900154969157 0.28090253345218075 0.32767372816944856
Ni 0.8797281748977392 8.873821704514496 3.8898267440916126 -0.007432287908329134 0.5297603797639908 -0.9542708518485306
Ni 6.113099918294943 2.0230853685574988 9.695504544139716 -1.0961857190491833 -0.041156933854283956 0.11345146965363688
Ni 9.286589762528465 4.47425416269277 9.75088882277231 -0.38232998206174795 -0.5244500232946709 0.5452731306876093
Ni 7.838443845550358 2.2533598956727396 2.949438280133821 1.4416743639128655 0.9013050982847768 -0.014566842070581365
Ni 2.0913544723759196 6.966666568575717 10.142736328428958 -1.0053977524313331 1.702269553266262 0.9145154263274637
Ni 1.9385880606979622 2.875646976656182 10.147446195829072 0.3804314794874545 -0.08757717299003626 0.6358273840280985
Ni 5.262668261976656 4.094569511553529 9.008502889257088 1.2663554673304707 0.6494012660577912 -0.5410390380016037
Ni 3.939857559504734 8.190393020692055 9.096167463075785 -0.006216927443989293 0.43071017313734855 0.37226308474404923
Ni 0.7267303269007864 -0.2391290409451745 9.142226978784072 0.16737907291002785 1.3877863556451584 0.3666549945286524
Ni 2.3018693169570064 7.357406683717968 12.648221659135482 0.09888951267906196 -0.5247904373532253 0.24770779186776698
Ni 2.579887958006848 0.674571403821364 1.9954596173486425 -2.21631355073626 0.7165260847307466 -0.5599222480593519
Ni 4.239148056647106 4.14553160458492 1.1441298774658082 -0.6884367826936982 -0.8947341299354785 0.6740378336595488
Ni 6.022489372208554 7.032206383532678 11.018320778953926 -0.4985672419906382 -1.3117796611015409 0.40375498470474336
Ni 8.778849828592056 0.26994603159643416 1.11603756539077 -1.0312771913012562 -0.07161216502034763 0.5147685343408489
Ni 7.645263673467736 0.4088317964769509 11.93615941575095 0.4398494164344554 0.7843366166168169 0.42291227435948453
Ni 5.451026075699333 1.6659357916662625 12.067913069366805 0.7794885444958962 -0.46315363837803464 -0.46530462328276645
Ni 4.074505550193605 5.712355484184164 10.227540681285408 -0.4073907816851178 0.21945728166250592 0.41534526064550403
Ni 4.736358099097744 4.407109968472653 6.635850940969382 -0.8428215002265871 0.05059622489031286 -1.21276056482315
P 2.0235371765109162 5.197663240107413 9.202483406857192 0.6526123167959212 -0.16142619776070263 1.0376087899462387
Ni 8.038327372370418 5.523370671668989 11.591842106793814 -2.058638592487874 -1.7009156103415288 -0.8465274883232646
P 2.2166343634592374 2.697496334452547 0.982107857142128 0.6346598460825585 -0.4167755653341274 0.46323462812761507
Ni 0.7999997460893761 6.901698428988388 8.103255863504693 0.03848787166255307 0.7705907277856342 -1.0077719090904644
P 7.385022292299298 5.4756634400163 9.37415567624305 -1.237993885468642 0.012046646751888929 -0.32245310320045756
P 3.8745759205211545 2.117900494781813 10.74623004266433 0.6691437387920411 -0.36093454710510736 -0.12464116772186923
P 1.4114664876169947 3.091472869832543 6.197552967416184 -0.134242181146743 -1.6762839278357775 -1.5461740236898533
Ni 4.181860652267872 8.20428842040226 2.1085499142601676 1.3036544608912453 0.4508588801710815 -1.0381101550626894
Ni 6.559458514559926 8.249008187220106 6.446539720259289 1.756583593327794 -1.3710479598445549 0.1807845476826564
Ni 5.492887465669029 0.4998360609227462 7.809612965780039 0.08978986437063892 0.4669195331783701 0.13537038121391526
Ni 4.314673749431639 8.759200792903638 11.507186205122057 2.436611583132507 -0.3668303437642521 -2.1023146932195855
Ni 1.0344004784934802 2.252548485470684 8.214078822135702 0.37144470260781187 -0.4822497357775372 -2.1373526586603253
Ni 3.0960831550714962 3.779539500605371 8.196575413197491 0.47360131607391986 -0.8793545621556146 -1.0790351754118255
Ni 8.109583941023681 3.8390582830402584 7.864889363738042 -1.5297207632298364 -0.787575949489721 -0.40549793553777913
Ni 7.458464136155825 7.416307687930835 12.940461186033398 -1.0661860873632993 0.5362429021645411 0.5093594475101357
Ni 3.2722974774747704 6.641318739262781 4.176438034769816 1.445776559006697 0.29657983497812146 -2.3392585617026294
Ni 1.5325049162804751 4.868203036361331 11.609277283510488 0.1471259790879466 1.9536774196934357 -0.30597850258420206
Ni 8.672711841820874 6.698264982534332 6.099792790981227 -0.04398360466980167 -1.5040899500356097 -0.9839118146434154
Ni 4.972625997023624 7.477163453085019 -0.2665510175464689 0.12378627592074165 0.24414552843780538 1.2859943246073207
Ni 5.90085160646401 5.203075714977945 13.491174510739139 0.9140968507328064 0.8099057233351729 -0.5765513719756006
Ni 7.242619801838507 5.965856628333252 3.8398669270711707 0.4848709754504682 0.14163950205207862 0.7229695263632453
Ni 1.5315828592326848 4.69550175131014 0.46652398390016503 0.5253974748096049 -0.05495090231458278 -0.504693152382718
Ni 7.661279804387859 8.960568831570642 4.453225729660856 1.5929063947493856 -0.9436822776994069 0.2815301397338506
Ni 1.8073701222268725 7.25604495245434 5.639214230925217 -0.7769058713703846 0.6413642546859277 1.7282058135160494
Ni 6.521432881909038 4.082757960771331 2.2394534312779606 -0.20735432775138482 0.16795242891499462 0.15335010562078752
Ni 6.564114902651268 0.5771265708967509 2.6454305391349515 -2.1246215842469023 -0.902039148237324 -1.8660238849395088
Ni 8.67801366984567 7.223579323801631 10.070672037801831 -0.3917718442009382 0.0962451330776794 -0.3124589681022232
Ni 6.40541044358554 2.8766335776973175 0.20494100972719223 0.6794602902267008 -0.5502438444293234 0.28484686281190946
Ni 3.6029932376648923 1.4504971624499736 8.753239694089672 -0.24467131903428832 0.35099260540104715 0.3761073981908039
Ni 7.159551682403047 3.7117590870222794 4.75091737988236 -1.788424906208107 -0.3978365623377793 0.966945876213038
Ni 1.1715380232113857 2.403858047013132 3.0068059034762125 -0.3737810640504724 -0.19097177262830337 0.11391812487741027
Ni 0.13728691795964773 7.301105880379869 0.7338707366788773 3.084265013261256 -1.0679956297682123 0.45544932775524144
P 3.9004857235640724 5.720663218184757 12.522190291558216 -0.11904850412544013 -0.957360546517448 -0.4749884262294336
Ni 2.295986592992102 9.086475721446456 10.992505025729882 -0.30815879806497254 1.1653807899876059 -1.2508650850043554
P 7.693644006765312 5.74148326632387 1.1389276316021733 -0.6367856341763097 1.1295977188507256 0.7599198783353494
Ni 6.228071211583961 1.3966766925704324 5.334869939103904 0.31328403510667985 -0.7302933137181681 -0.5039254209787579
P 0.6319815887839132 1.113734266885389 11.192180167657142 -2.381548837830408 0.4211248434417586 -1.5590305679375471
P 6.00942382384136 0.26869941046782114 0.34342660184896784 0.39135506837849376 0.25234914729452024 0.2717833447597319
P 5.056699158641177 6.488543107014346 5.549160607295694 0.6848197547664012 -1.6623806874911242 0.052618654636980344
Ni 8.888344103017198 1.700144108139296 4.9823195827670475 1.4256201386634804 0.6919867048284857 0.21191289365634472
Ni 3.2139865897724884 6.380312050744678 7.47625338277885 0.3109075644547033 -0.09325185477731038 0.07793347925268514
Ni 4.297901531732327 8.36505828725504 5.999388154933206 -2.019804393229496 1.2341081772609905 0.6476056076099492
Ni 3.162941511606797 6.185094132586437 1.2392566589722755 0.2423979496190793 0.9633787276870698 -0.05977120652136158
Ni 9.024246091291065 4.50526294120997 2.2915044736827914 -0.8490389418912088 -0.1257860799595898 -0.560960459515879
Ni 4.202385642151692 1.9239273536380908 6.138403007800414 -0.27214792718800224 0.1156559335041234 1.6962747691354076
Ni 0.9744852115280426 4.725726781336718 7.486928037221122 -0.5971081130810297 -0.034731489943914375 -2.1551752886640436
Ni 5.590616292164362 8.029134463603945 4.001621550850992 0.37220189248881064 -1.1306554706912786 0.17882022486743399
Ni 2.2437705023757166 0.7990260538469091 5.436084141239886 -1.3227736982191993 0.5850882058020181 -0.16418370590118175
Ni 0.009296179155825486 4.338840864654233 4.542280765507622 2.015670316456464 -0.05379313456105574 1.3818535351004912
Ni 7.958265158910754 3.023969073363788 11.52266477678332 -0.3568284953565338 -1.0080786416976057 -0.5462213535334915
Ni 6.752500378085379 5.434991503638254 6.628590663775078 0.6735446960732142 0.925220985670426 -0.3001662667777992
Ni 2.3895753833428546 9.152015536403418 7.504957940733621 0.05200416098143302 -1.0865394542086706 0.10747262636238264
Ni -0.10778293654444204 2.4007599353325553 0.8754774919074243 0.6370309174178964 -0.4275731701702637 0.8673253989052224
Ni 6.809216107094984 8.782362865944139 9.862386727162301 -1.5980527148370156 1.0038653749472066 0.5384895321068726
Ni 3.7803232490959933 0.5411654239758672 13.38081073651793 -0.7282094346059459 0.10465392596666492 0.8678370484343182
Ni 1.2889988705294386 0.3526351855852532 13.078436880607745 -0.2862121185905523 -0.3776636869343302 1.0817199213328403
Ni 5.418523564764712 6.259863738591783 2.23558079167724 0.4931213883847185 -0.12551097192133223 -0.2685368127979762
Ni 4.586533049402239 1.8306889449654986 1.7175119746914813 0.9971473394970827 0.6774615146291172 0.5715580325260673
Ni 5.565075311940561 4.096026361689039 11.35204457448899 0.7222092511584529 -0.2461347909536922 0.21296267507709776
Ni 8.363785848529089 1.7535404317768537 9.38252334395175 0.1478003794471519 -0.7573125226194893 1.1320641781133471
Ni 4.617182225670801 4.559101852230467 3.8726737168315624 0.288548994253845 0.9600105825457853 0.12458331790074029
Ni 0.6941780248855847 6.507878643306515 3.6402452644526826 -0.2919366797791553 0.14343747449276587 -0.23840399796833778
Ni 0.09760803702207205 8.793851696759612 6.325757623455095 0.2836613271442405 1.16652081712932 0.748866191624349
Ni 3.140544745915962 2.757356277995117 4.293711704507166 -0.1678768384820528 -0.2901980998214938 -0.8181648780201715
P 6.116446985378423 2.8381653576634913 7.418102010945836 -0.18976438258376352 -0.9058299827383239 -0.31381831034359503
Ni 5.7055414826009905 6.774251703842761 8.586789955822502 0.6492565129498109 -0.5664304814915149 -0.6379886533454754
P 7.958477232031746 8.831333315752302 8.235670632023815 1.019517993882799 -0.4510008050655846 -1.5782984150282238
Ni 7.8013955933701284 1.327872795664293 6.983555887520099 0.17546184991816233 1.000719116008741 0.9079819960843201
P 0.1952345151850999 6.932615001800808 12.074255899798558 2.3184303121033687 0.766617344960183 0.13690712957341583
P 2.1495270515210327 7.794904311753682 2.266659646530072 -2.166604356436591 -0.680624485738131 0.6639621945911017
P 5.47368101736355 2.5894035867400476 3.8117700047108936 -0.8327391762899207 -0.28098198053986445 -1.55104626418049
Ni 7.811694970593951 7.7757070840186815 2.2791562856987793 -1.2914972567034209 -0.8829116833792535 1.157121378192291
