# total energy = -340855.78149459447 ev
CRYSTAL
PRIMVEC
9.37024263438009 0.00000000000000 0.00000000000000

0.00000000000000 9.37024263438009 0.00000000000000

0.00000000000000 0.00000000000000 13.71429725405193

PRIMCOORD
 96 1
Ni 2.34752683607312 7.794111432102363 0.47802385460804625 -0.8157930353538854 -1.4212893724986102 -1.2158147782684414
Ni 9.00112047028177 7.331839892043962 6.0021584510392705 -0.45438797637026257 -0.6202513839667125 2.5267166647507193
Ni 1.8799704792840068 2.4708204859715357 12.41078021524608 -1.0505962033448422 1.2098634457810131 -2.2997779871095037
Ni 2.74557473451397 3.66067261026099 4.631057727419746 -1.463943202613395 -0.11517076633758876 2.7089196900474573
Ni 2.9918528163106006 6.74779268136086 10.324534156124805 -1.345793299042824 1.0911581839276046 0.3691227393428546
Ni 7.048755497980954 1.8141726369381583 5.361343500640437 -1.5054150966049362 -2.4975104755004085 -2.9413918959123926
Ni 7.143554240648705 8.908889174039931 4.522056508300328 0.35951298416723243 -0.6703099911860003 0.08612064304916782
Ni 0.6325007342903911 5.673841085692282 1.7178531039239628 -1.4257782615078993 0.10243866348290101 -0.8371933554065324
Ni 4.973265540145469 6.426889988848999 1.8015649757481356 -1.1999960660686302 1.8564321274860156 1.1559088459414286
Ni 5.24460902044326 8.683965874742047 9.393045852318636 -2.348529959702226 -0.014072418932666085 0.02086347371257052
Ni 2.975492373027227 7.683233353424148 6.133994013937183 -1.952045283406651 0.7475227902225771 0.5903054883368994
Ni 3.4628574223140793 3.5848017573025257 0.14357928773585923 -0.16359260928440214 0.9646323975885128 0.7861672420676525
Ni 3.7074957116853997 5.039054012248888 9.11227216003895 0.2265437561956421 -1.3445008054836458 -1.3020999719199318
Ni 8.51797203008857 1.6391271380969736 1.9508994663847097 -1.296731765629483 -0.4838918993666505 -0.0644783821890438
Ni 6.901764504976208 9.136155033945402 13.464929677586616 0.23060327097699637 1.3399211565327631 -0.07858268280090983
Ni 0.3160592141996166 1.2542725409980426 13.595709214162632 -0.30360897391076097 -0.9285004277526461 0.28433727016534255
Ni 5.514153414194425 3.1181074628170036 12.889409387515123 0.6213261050881299 0.2313074961328726 -0.12362326798031611
Ni 0.7627995774297291 7.190555376679292 9.010238653190735 -1.279208669144055 -1.3878151520005646 -2.5447591240747274
Ni 5.262946584879436 3.279397445770449 9.45351202672162 -0.038890763527926565 -0.22776631574883355 -1.3350134348185008
Ni 1.173547902460662 4.750375583454968 12.907717904199767 1.9806179528380212 0.08170631603155606 0.6032612771666191
Ni 7.884515531070284 3.872533791610981 2.6662097181532323 -0.5181420787987722 0.794649825617367 -0.160951057896497
Ni 2.3154993474462175 9.366513073852884 12.569605824440345 -0.5333542677628363 -0.12824662568494044 -1.7995634393234299
Ni 8.283922114663534 9.056133163590296 8.115640993832812 0.5131163434494066 -0.259702759446114 -0.7743941606921243
Ni 1.425204503412308 0.4592927399897963 1.9444133845744282 0.3824863051339542 0.10832726105319408 0.3142106606860072
P 3.0110618132927978 4.213217065893288 7.038931735816986 1.789912289386911 -2.747908926826461 -0.6650191751007063
P 7.647232882006781 2.345109313526092 -0.043230550476617356 -3.236786966553794 -2.376679939773881 2.351178710178983
P 8.287810765272125 4.780247916322893 6.570218154087726 0.4481075426781896 1.3303620520894186 0.6635821855438636
P 6.2039063297341945 2.1484091844283917 2.9829829448260403 1.6899323718571477 0.3265355007999473 0.5155709756374863
P 4.360545387625527 4.268604568899029 11.239168204871525 -1.4304188456037044 -1.594876888212195 0.9477083681396647
P 9.300181127688507 1.5614853093191752 6.0021172219725765 -1.709991604500868 0.23596967749523232 2.2489243947927466
P 5.563178522589965 1.3819608345962882 9.958019934534779 0.5240319619206458 -2.0386930026038823 0.9571772268620483
P 0.626877651807944 2.9941953769181855 3.3106865592938406 0.7765292047572562 0.768936994232295 -1.207275887559495
Ni 4.859023544434763 2.9649508502930937 4.30491800641357 -0.4377578240127494 0.020787369058996457 0.03451885971247603
Ni 1.0602897822051407 3.256084282603763 6.607822811009167 0.8204410756488579 1.4217832814158933 0.6456191733075397
Ni 2.5705011249454945 4.588926306380207 2.736592420120246 -0.30408205689243756 0.9670471776775925 -2.432527899981437
Ni 5.442546021541766 1.6101730889872226 1.144093482405131 -0.23067371920361565 -0.5138426800924699 -1.201475478827634
Ni 4.768150933345324 6.079169662501506 6.684787171259251 -2.8722999262107374 -2.071012026451562 1.1376876949477117
Ni 7.466274760192052 4.766211293162244 11.801193471794841 -1.1813712518785913 1.7770125506061072 3.0584028007825133
Ni 5.838148286708297 5.320835942614077 10.323930712512292 1.4814470158251132 2.6039312635595087 -1.166834748825313
Ni 7.208996013782201 7.16434680860163 11.990190324590559 0.08654796039457352 -0.015975806602966033 -0.7182898614993888
Ni 7.292653538200279 9.167582827056762 10.06581426642917 0.7767685744615719 0.3318772247278349 2.026153989596607
Ni 6.741926909599466 6.547363195775883 5.8759178598965125 2.765898421425346 -1.7006687844380455 -3.6358712852557447
Ni 9.293228407805193 1.2632773439735996 11.244914037529808 0.09233088562493776 -0.6076588920136825 -1.2849026342050387
Ni 3.7327672555200273 8.929344413265364 1.720732579422806 0.34666029657428044 1.0795627657805216 1.4497265447933807
Ni 3.311246899791175 2.101998373670917 2.4562441368468986 0.07468103375365848 0.22262668052942303 -0.8048118537520333
Ni -0.09823293651847105 2.1156976681040742 8.562836750845038 1.0781450594973883 -1.3517657145761752 0.6179001101257164
Ni 7.469207646072748 7.024533421298525 0.7115153035842345 -0.8094231272717994 0.5511617282579023 1.080967873658164
Ni 3.807963451023507 2.0068060808210912 11.22480924537127 -0.09158835103195839 1.4822774821462086 -1.7296070647389503
Ni 6.35168442310309 4.600985808388055 7.794328821726746 0.42485345724625545 1.3739183394138146 0.9903447147529525
Ni 5.004037416286708 4.1408132026340505 2.07225816122126 0.6558701616115865 -1.164245390831582 0.9179213666852191
Ni 2.2165308468969647 9.39310582187019 8.805085628396624 0.22170699692863108 -0.9333718969123344 0.2391272492876075
Ni 4.388384377886068 6.2128642814976 12.210496905443016 0.6101783160014266 0.2960586723673288 1.0268482089956252
Ni 9.190980322405322 8.495033676619098 0.7167748206603844 1.2728793844919175 -0.24030918541085064 0.358350331317699
Ni 0.7074120744239885 3.3520449353328763 1.1281659443220389 0.5779024866868564 -0.2433482293474906 0.6838033976867449
Ni 0.041618868778598855 4.471901348667689 8.516880396845435 -0.47422789391432524 1.564300300976919 0.18698064919103927
Ni 7.432120226533462 2.609743700243759 7.281126265962474 0.20821667575168012 0.0768988673405837 2.2144962950218634
P 3.3481375442394246 8.171357392347858 4.054056002020016 0.37335323248443447 -0.8479608783356815 -0.5276572173780589
P 6.534132413464242 0.3461957879040766 7.1171442123587925 -1.569323722333439 -0.19507782437687693 -1.0680079710633863
P 3.901075550053797 7.181869161946366 8.408551024108272 0.10067591515552338 0.24904347996005496 -1.0868919524520828
P 8.220663608016308 5.096287453013406 0.5234723414679252 0.497721349050575 -1.2764421621425113 -0.5360153595347672
P 0.7106270046018381 3.574672525235328 10.590234876431046 -1.1332841665633773 0.6765354032704219 0.0034254807417811975
P 7.663499622865851 6.232063908237366 9.377575582066143 0.8033231850216488 0.04996836149832685 0.3668822800481101
P 8.845583816180552 8.756163592667816 12.293852708054835 -0.7175781801443447 -0.19634872066950054 -0.6567916449845914
P 8.340977520821875 8.667727244610267 2.6549785455762263 -1.536903911241837 0.6167582832117894 -0.9896217205439989
Ni 0.9796213651223423 7.922942895277109 10.916100049334013 0.6236025598271325 2.6726661070320614 0.9128115562624796
Ni 8.699267480630791 3.4449696295145595 4.9563335120738445 0.576028409592595 0.4021272192933332 -0.8851894236698369
Ni 0.636964717784205 6.85002202627587 12.727704302822016 -0.6912606252957386 1.2122802827526218 2.8157503119504668
Ni 4.798023266213248 0.6186393346631889 12.666771490346 -0.03256173598610521 -1.0908352533705472 0.6202783805499059
Ni 8.558039186720706 6.0981162926956545 3.944396054857746 -1.0699504395017378 -1.007188782893485 -0.3937359099058445
Ni 7.709994765805199 3.447302819879714 10.175144381057892 0.6621415964425951 -1.2024614968899872 -2.2777068662420774
Ni 6.931149585237755 1.730974254399168 11.640709329690404 0.3161220187761072 -0.8554178488343591 0.04771401824651137
Ni 6.362806900867903 7.233339903616225 7.829067121488746 0.7131234868071009 1.6169158702901056 2.9866926767317206
Ni 0.1307776625275285 5.602383616918508 10.91175319387058 -0.5378668109212092 0.25527377714048294 -1.7363610956333322
Ni 3.070459780058724 2.264590820322179 8.423472198154347 0.35711260225585595 1.1986374951582066 -0.10418110009530444
Ni 4.85342950970385 2.8655232078647543 6.677669535109166 -0.789413516919092 -0.10060598114953641 1.0447569709552458
Ni 4.732159832170387 0.5238658916499994 4.235743128695827 -0.21288734175447205 0.7563990096662844 -0.7182479525178598
Ni 2.076211466502621 5.914047250394052 7.40251119747783 -1.1243004750075283 1.553251499361925 0.8961076132442374
Ni 5.124416920789287 8.135450623354794 5.66187903420571 0.7645933725516186 0.8721220489629175 0.07177157341634735
Ni 0.2288213201489067 8.16507932991953 4.130211710348363 2.978601415083154 -1.7432017727042495 -0.5703863808154693
Ni 6.047638796723412 5.255600314814049 0.2665487272461853 0.3551819608920464 -1.1425025998378517 -1.6572392524995005
Ni 9.400414610965855 0.9208109125567984 4.063601467983805 0.07830654632138773 1.9794483580099522 -0.7740396055661831
Ni 1.3627143566443694 5.973023556250613 5.098879262069638 0.3701648074541238 -0.7266181788594259 -0.7744484109688274
Ni 2.0962356745762576 7.111292495961044 2.5639147815412087 0.9658259036759816 0.5080193885424735 2.30863569461045
Ni 6.428492300304588 4.078135651017504 5.452337924881471 0.5388116913329817 1.6082702787999656 0.113765658459946
Ni 3.893907314594587 5.942991929261374 4.471793590879741 0.4147927305761437 0.38402870992040955 -1.1126749749534581
Ni 3.9132100140010877 0.4858583143040537 7.049834012884687 3.4631412324464486 -0.945589779134765 0.39487208039281674
Ni 8.964257936560811 3.295148823295851 12.610885490442966 0.5517949909665271 0.7273979944482439 -1.97675744144135
Ni 1.9598517960026567 0.9852341403381161 6.444210881981483 -1.6588029974421947 -0.35117695349771133 -0.9652612894217634
P 3.9156087960632546 8.324261008326149 11.443950168065392 0.7237531986068052 0.20270191658103798 0.5558899869715072
P 2.695687563814839 1.5263469002053998 4.430019176076798 0.37400706401834943 -0.4899527608487498 0.06620822039595695
P 2.7415923814810754 1.498395467035695 0.2357365590624977 1.2950212106962793 -0.9615861545630214 3.3821329709231818
P 1.7083638594147572 1.744195666468378 10.012108721939676 0.863937713379912 -0.6629208978107809 0.5733760595714125
P 0.8508133275536713 8.54217536628614 7.345788434925765 0.8789210741626219 -0.5130965459550647 -0.983821311812138
P 5.782376603762912 8.737123260049366 1.6309178687037529 1.2139946943405673 -1.0951102265968173 -0.29236476845550935
P 2.9095258663176318 5.747922222346552 0.08284418737512342 -0.16767243578073057 0.1890670994064228 0.7965534703979831
P 6.083283198928426 5.446903184271874 3.83016998855917 -0.17506718558290493 0.4135606579412555 -1.344889042061
