# total energy = -340858.1533691547 ev
CRYSTAL
PRIMVEC
9.37776564132565 0.00000000000000 0.00000000000000
0.00000000000000 9.37776564132565 0.00000000000000
0.00000000000000 0.00000000000000 13.72530793515931
PRIMCOORD
 96 1
Ni -0.008500944645767814 7.338542448661518 3.0052250676533503 -2.4152883961746987 0.5784491032189457 0.01657795896333919
Ni 1.9080377290750168 2.9682597906487307 2.508725824841519 -1.6169114994147313 -1.4351674160322831 0.4009457973907224
Ni 7.362858995232369 3.974859787705622 3.086162688225543 1.6418074913254628 1.5613946972943495 0.3117022924418567
Ni 3.8043532509716442 7.338317382283693 0.5194325689356317 0.7177134201706284 -1.82944377182263 2.1805039972368188
Ni 1.3333213555329533 8.161872769808602 8.12317260614158 -0.15728209368534204 1.2324595859139742 0.5299118177401906
Ni 7.656111107772695 2.7357568445896887 0.8596288390073962 0.5850807496028504 0.13568816956465016 2.9872894297754553
Ni 0.31668621135478714 0.8473974191491777 6.702548002650282 -0.18982043263267953 -1.2684951393812929 0.7963284988713705
Ni 8.294483755176282 3.41474459542496 12.605803711081773 0.09478346093048838 1.550068216537937 -1.9996353744807884
Ni 2.4495568118878825 1.8534778879839222 4.698585107793071 -2.207148339297224 -1.4209420164615205 0.15080548482206285
Ni 4.246880638604449 2.199423666232543 8.28415695954041 1.0101800043113247 -0.8021865003140443 -1.3810438947150023
Ni 1.3579567461390558 0.47614667782042475 3.118719477554514 -1.9803392452553377 0.1541980554433796 -0.6628604768864906
Ni 6.415882832767636 6.296269430719353 1.0434968163715885 -1.0296838786722071 -0.3611949998553457 -0.622143973003735
Ni 8.88702726139524 2.757485127815551 9.848388916509291 2.6532038845423918 -1.4612916239231608 -0.7731204361860233
Ni 3.364451637746799 4.3872939250700655 7.423621290585692 -0.4835265456074318 -0.1788294808388146 -0.05054840237151295
Ni 5.791558078446631 5.849306359890247 8.425087898675022 1.081013382184119 -0.851624700340514 1.0846502076057576
Ni 3.0764510740223914 4.7941295362861105 2.4268269832806983 1.150179142546503 1.7378214822289426 0.35478986765995024
Ni 6.3951110816475305 1.2032705002130328 6.956315970307496 1.8902151374737317 1.233106475469354 -0.017202222810899406
Ni 7.9289478242911375 6.557759050689116 10.906047096928948 -0.2740991373771022 -0.6011822831504033 0.47276365066397297
Ni 8.474930723597534 5.239882875334408 0.767629205965101 -2.863771319914436 -1.6019075698067315 -0.747326615051371
Ni 2.8975139258857165 0.2481263037863989 1.1247542187556079 -1.1837569785019486 0.961281993059041 0.9074130109547275
Ni 5.663542198292879 9.235195570124883 3.733105675741395 1.0452341677019805 0.08817521158535137 1.4570246211166908
Ni 6.802218648070115 2.175613519011799 10.404922740052813 -1.226398981542191 0.6410212695242122 0.4488757883027818
Ni 8.297765973186232 7.942254873880045 0.6382469853426356 0.1972288092816087 0.09109135679088183 0.047859285575124026
Ni 0.8973546528137495 6.198871955715553 1.1507568876069978 2.7610968862716447 1.0692143326666619 1.535728145766181
P 3.070327392992401 5.418210468697806 0.32854720946616844 0.7485113793880915 -0.4653555311253598 0.41833236829828596
P 1.9278529480893658 7.81422961596055 2.192713874843633 1.836580125757095 1.4331580989117383 -0.48732817874170914
P 8.296143619712742 0.6149929396304343 9.021206209195102 -0.5331789185272366 0.7740678877009572 -1.1969973884516223
P 6.765242117746604 5.217254326597247 12.804792397929512 0.03279107838809192 0.2964780192929346 1.424325845332089
P 7.445120756327432 3.69853454233089 6.1677143290353955 -0.8876944494798776 -1.2186162522729789 -0.45544778509334466
P 4.7472969741670115 1.254876345095173 13.509134814003353 0.10781432597251754 0.3482942326332775 0.21609067918311817
P 7.620250531572566 6.295706764774791 7.116627000125997 1.567105888746514 -0.9877131906673764 0.17176717467539449
P 1.9202382023062843 2.96375846309223 6.448780972769642 -1.5814698707776698 0.791357013798708 0.6542570514881958
Ni 0.043506268610160645 7.586181108629296 5.981365932632255 1.4636896918416922 -1.6768277161543894 1.2408925471726757
Ni 1.4805710332250064 9.394739498705633 11.347686410145919 -0.2773163587628192 0.08143557886867264 0.4372122359219244
Ni 3.412268865268884 0.43901353880901073 10.211684499158503 2.0456938594017475 1.0784289092863946 -0.11165169744073673
Ni 6.288607796107559 7.87026176627325 7.1838674560543865 -0.9324537559734394 0.837020577274094 0.3012669560411456
Ni 0.25761097605857713 0.7167810845549716 0.7341149467537993 -0.2599138470156556 0.06396004779172856 0.12176256062249351
Ni 7.7644805686954665 0.46315472116047246 2.4874926876468724 0.013138080043854793 0.07934552910886335 0.011856899338586031
Ni 9.123046869607798 1.5184103179968467 11.556517062140633 0.11489257297553761 -0.9192280013117846 2.378899316022703
Ni 1.4723467326686488 7.9924540539007785 13.189335184421985 0.687422739606887 -0.29854492912429226 2.159251772726262
Ni 4.1170267163651255 1.999086456671001 2.8003884060884556 -0.331231620724036 -1.0506424832017456 -0.3040092946729732
Ni 6.135075015367889 7.903384034876506 12.935142403976625 0.2778930572018956 -0.23965586809756792 0.23169753248243968
Ni 2.1062086747499924 4.156835331942935 9.401245792577924 -0.5643985386631506 0.6582546026833631 0.35306620010062423
Ni 3.3283003508086466 8.952343399793225 3.801402068092413 0.8677696855314927 -0.2122887889385247 0.0924023622928215
Ni 4.190238933518472 4.893505719861622 11.961263307149203 -0.8651890692885099 -0.3190839296179085 0.5945187550872987
Ni 8.130579165525175 4.519529799808038 9.095363705135314 -0.05978534758874865 4.189883595588564 -0.3744449228867164
Ni 9.139945603476164 2.3478361868766924 5.061577788608792 0.16705177147759617 0.7314731929588822 -1.3486788481207352
Ni 7.113035315846538 0.8005020259996012 13.644205587325345 -0.41892577890791083 -1.2500456744268535 -0.859740387469113
Ni 9.086126605878745 3.0381429009634155 7.4281638803114625 0.506764690199766 0.44030912967969327 -0.060312423736812254
Ni 4.68545060909383 7.166010314527115 2.6780001231569046 0.6621446817663887 0.033730045262593523 -1.882196123823997
Ni 6.363104767167657 4.493750321781325 10.922106520763341 -0.4213243610470744 -0.31352366192131165 -1.649515658602998
Ni 0.6874783799387215 3.5326043552793553 0.44599153429816224 0.32259297121243147 -0.9674850365459596 0.6387646122795515
Ni 0.4532940004820115 5.944256238035198 7.843285685337767 0.06865719615708177 -0.6871093221315263 0.18220148263484104
Ni 3.572956881270242 8.843467539520345 12.840149388109257 1.7831513165139936 3.143510686296451 -4.171137682439629
Ni 1.4174774253080449 5.488543711768142 12.798781250088433 -0.6157864062168233 0.777768476480996 -1.8062369946888635
Ni 2.6140522007807814 1.040247420541739 7.179708416947493 -0.8409967883130226 -0.11297170180374091 1.0446335580035042
P 6.118391970111605 2.445458728258317 2.4915279402459607 0.2230192879821514 -1.096551587029034 -0.42039130770984373
P 9.205627474738113 9.017293805327244 4.417984539016237 1.0970755778533041 1.2586920372479418 -0.5775440749061731
P 0.2612092247740555 5.110929218606384 10.807431450155171 -0.28786405237167845 -0.7798952930160118 -1.565525945853904
P 4.095692299300457 3.2182053809892155 9.983706325070319 0.37702271091622164 1.516775515923078 1.8872755952294336
P 5.409911146015507 8.834024129417436 11.181047264004235 -0.9209061603451558 0.479943970462496 -0.909621588570272
P 3.507772031592656 3.5156868658795046 4.268557344118726 1.3941500930796569 1.875529767547415 -0.18836801645686913
P 9.105707380749525 7.676357704011209 12.300319240906655 -1.9905902335593848 0.6062972357794655 -0.9804557377740147
P 0.2216847554982501 5.141228779721085 3.010907055916859 -0.2585727596067289 -0.750947756743726 0.6939158035303984
Ni 4.430900535773674 1.3632270504864596 5.562784669823465 0.9941298928269975 -0.7451530044388199 -0.5530700010242088
Ni 5.146349039816606 3.562031784179984 5.963413137894409 0.5669711844863332 0.2093795857115297 0.5944925298350536
Ni 4.628574459864285 6.097460796973873 6.51809391492717 -0.49605218887826824 0.6705763574735096 -0.599468128672774
Ni 1.3755869457353533 3.5155180660961354 11.713891913505094 -0.381392300738827 -1.1505478387398314 -0.038444934239759594
Ni 1.786108018888284 7.262357479767731 4.426933740864507 1.6026354491116914 0.26255102752818654 -0.24075655736091442
Ni 7.768409852541662 9.023558152843375 5.80934676228398 -2.0640186258528646 3.2632778137554705 0.5673650774906422
Ni 8.18763349230383 7.75657511217436 8.900340875420168 0.03571930777848042 0.25166369119172144 -0.8194398880778533
Ni 5.204237987746362 5.168002300916526 4.236357847664553 1.3781277495094717 -2.7567280677799872 -1.300909036935624
Ni 5.791529945149402 0.1323390301611422 9.05867600999668 0.2769970277501875 -0.272265426602473 1.0093569941893972
Ni 1.4662042961071726 5.231639819246564 5.359842316938598 5.307369875887736 -1.125017812789527 0.5458693695107115
Ni 6.765879805817109 2.0624801530917294 4.556733272062522 -0.4328871261840094 -0.35070464184698313 0.5042763765602735
Ni 3.4883694342709863 7.634917357194166 9.487674094992474 1.6925800938926399 2.767254678342925 0.03417561744044437
Ni 5.354919927700248 4.064126739810491 1.1414063173849405 -0.2983078734128217 1.0092050419925653 1.7303858518865036
Ni 7.317039231813482 7.088596858321033 4.8666234165835665 -1.2360928117911874 -1.4318908021635404 -1.4447357764470086
Ni 5.236488124135547 9.324612566481635 1.475772430494461 0.548701696753184 -0.14516962669252417 -0.9045318327521906
Ni 8.88073478058188 5.159843644720367 5.301770502576857 -5.415551869612318 -0.32040573375312564 -0.2607849367666992
Ni 3.14029490319877 3.346052461359599 0.24985181268305778 0.33351424611062563 -1.350116094787894 0.067527967648645
Ni 3.4401489628219646 2.3156704503791925 11.838366749314396 0.6698482210582334 -0.6959459465865498 0.44721614121217174
Ni 5.201893546310685 6.6784790290950395 10.603390960901832 1.6465100390074545 -0.1691258803978055 0.7067512647321699
Ni 3.036520547489926 8.327062113366463 6.367870547718103 0.7417020697757419 -1.5571559766226537 -0.7942294502504966
Ni 7.443517158385429 0.0961211610862168 10.894257369837211 0.6334457711697993 -2.8014374948722205 1.5758460968329893
Ni 1.3853679554050011 7.0369816356731505 10.583475399794036 -1.2531682792162353 -0.3198231217767782 -0.11372734902284284
Ni 6.370034936051521 3.330729192136009 8.406147625204468 -0.9168769845811048 -0.0915577549043391 -1.156823387335898
Ni 5.985002630187279 2.9962993102194377 13.02980532248985 -1.0079344028102575 -0.3431075462260155 -2.3183745191647684
P 9.183252125676004 2.1900271449583464 2.441251862546137 0.6541724621941895 0.5331730049899656 0.35561699154693593
P 6.895058528922958 7.69960518528739 2.5301643351059315 0.37715717961155687 0.723633128089173 0.8904213614927374
P 4.736428143671208 0.019532010488919147 7.235914055926434 -2.010115448076506 -0.21270556476096916 -0.15746207090663206
P 4.280518684323555 6.834947050512177 4.582688114308625 -3.0096284595922875 3.568187765865842 2.594405069236629
P 1.5548898267359939 1.6976475546372882 13.125155631232015 0.5680027110746411 0.29861717712312447 -1.099992494389783
P 1.5175663190800026 0.8893347875505827 9.34354439996302 -0.6202282440382608 -0.0624279274179183 -1.1869950258232718
P 3.3060281571697074 7.1688611553129 11.5425038667913 -0.43281487818517717 -1.4875410445379929 1.3011154965194753
P 2.674585678649983 6.4130507475133385 8.267219776832498 -1.9695601523619628 -3.5396228097439555 -3.2691525273686928
