# total energy = -381165.6148099313 ev
CRYSTAL
PRIMVEC
9.34206319384609 0.00000000000000 0.00000000000000
0.00000000000000 9.34206319384609 0.00000000000000
0.00000000000000 0.00000000000000 13.67305379441760
PRIMCOORD
 96 1
Ni 0.23931937019928184 3.0673450097637387 4.429003038877483 -0.07405008503787892 -1.342667351819333 -0.8258799872762421
Ni 2.8225549273458594 6.355872708201511 11.646952932685519 0.08682769641852144 -1.7020060151922303 -1.0069923506119627
Ni 9.239861043248016 5.6030518860986085 3.722940177371066 -0.3231069347343726 -0.3530142638167662 -0.10389159387934366
Ni 6.311880932522934 7.680222273660559 4.421099653397747 -0.6257913399483351 0.3738013757654466 -1.2415834025921133
Ni 4.5315639456750425 8.502790939725296 11.874883393619616 1.0713473198492647 0.89957217475407 1.553971408247085
Ni 6.415110731046674 0.7115924287232684 7.423059562720974 0.6011280328737002 0.7795476798686058 0.38271590464625704
Ni 0.2724939708814225 5.318950401672774 13.079588221280165 3.3367825678128398 -1.1981942369732008 0.818767544601177
Ni 9.267896574955683 0.6849965089570027 5.722405151524803 0.9376628109782045 1.4544224076071532 -0.7680198817346644
Ni 6.862259244760728 1.9427848082167922 1.9521567660338977 -3.1139440283829276 1.3471634399174737 -0.08963662662222627
Ni 1.7295989256546427 3.097276980304016 0.10834551234017469 2.0263067131243875 -0.3891819719865749 0.12265653319167263
Ni 2.2642171772490394 8.75912781227669 5.409935557940852 -1.1980073177733754 -0.05518538692289205 1.6120911952079529
Ni 4.422654172716693 6.818641151610743 2.536283281635223 1.4437597856869846 -2.2353209450766984 -0.1528024606474336
Ni 1.6053308007711318 7.680978980780958 3.1775906977618074 0.7860811101117495 -0.5898162074053068 -0.15715533829949063
Ni 0.7260604820240573 7.207952951961858 0.9657507321329675 0.6034312270855802 1.3193219922251729 -1.618247958837968
Ni 2.3581983331901095 2.0641288673140648 11.290291643270193 -0.5712204466809905 0.08654307529856708 0.832059890834709
Ni 8.577303235926685 0.15609746846271755 11.27324144369683 0.8032015718421199 0.2627834552539668 -1.2850126774203419
Ni 6.985546453006683 6.8668461977992035 10.681293752772056 -0.732878557946841 1.017418688151609 0.35722701634653314
Ni 5.72315345078831 5.335625984511224 5.094456885795409 -1.6760047060324619 -0.3426480900910937 1.7501236966350633
Ni 7.521276410123643 8.64565911246951 5.985215139677744 -0.06693815658344601 -0.13916970035534743 1.6351048824943069
Ni 2.7948743940403538 4.464572010361582 7.2915391941638 0.8358376127095863 0.16455471608735533 0.7372108667736078
Ni 1.1684492145301622 2.4258068446757486 7.183330075946562 -0.09838377668723701 0.6695445737748856 -0.023060738474205447
Ni 7.130581984416734 0.5935900256379363 3.951458254081375 0.6111514785479734 0.08793481343977114 0.0317909192583517
Ni 4.519447289685424 7.542604340443073 9.97410984367986 0.46430832080776807 -1.6197595103864881 -2.0851302110204992
Ni 2.2878339130560996 1.4866585717532972 4.017334747046986 -0.12464810970040467 -0.6332141147749676 0.546414186270588
P 1.0024314091396294 0.7740553317901854 13.15470868579684 -1.2162968601111825 1.08840967464819 -0.06165582513858415
Ni 0.8989932826061986 8.877183465122346 9.765787439227346 -1.550904082175671 -0.9143290213482705 -0.21813804863045014
P 3.24731985759721 1.8978588262167317 6.6412073449717015 -0.0707287339741298 -0.5891572336650692 -0.6874368806742741
Ni 6.844630771474367 3.28970479840284 12.56349901786604 -0.4832046434916387 -0.6045206034950169 0.40486030195378014
P 1.6988541956146763 4.356680522293648 11.459687538719203 -0.17978953075923876 -0.04895997483847052 1.4187797187028792
P 6.763672451654752 8.901285988216577 12.129037960204029 -1.9428870139461507 -0.020655985687454748 -0.016397467521416922
P 3.0533412570047265 5.371648980267563 3.2037195143673323 0.16428295048320737 -0.55275246978379 1.8062351949166504
Ni 8.756231772680096 0.625810801665844 8.296466802594429 -0.3037624687694898 -0.2033572907768498 -0.7494107512739093
Ni 4.444196970490064 0.15109666202382538 8.384412051492406 -0.08554008795534947 0.25042030570292356 -0.30980327564693094
Ni 6.321176285421678 9.178866712518468 9.844543834747226 0.3545368711088797 -0.12373511096783207 0.5929475539454369
Ni 2.516350121353766 6.860353463864905 7.639503956932452 0.978394998590244 0.6661851703843494 -0.4733637461418171
Ni 7.34961599855136 1.969755344717972 9.81606268662421 -1.050699561691926 1.1089386478394772 0.04224836714624982
Ni 8.039686182040331 2.54672116886514 6.9727926683058135 -0.5658545543833867 0.11726672963466901 0.4908891566200901
Ni 0.825031233928162 6.541975949503903 5.582489070756472 1.5537767757377756 -1.1228375173087566 1.3185586316965872
Ni 1.65884213886561 3.929066262761778 9.435432465618625 -0.3518143299713941 1.2727210045371822 -0.31459658327051626
Ni 3.815102433604211 3.9221157677299527 10.759380322359435 -0.81946534199915 -1.240054881762729 2.106926995180617
Ni 9.052235045641607 7.973208060203684 4.4128683614991715 -1.1732182837541536 0.8379821698564148 0.34129440427667673
Ni 0.5693417663575544 5.234507492274033 7.794994191286207 0.11455730112330594 1.5504798501540589 -1.2006933492459708
Ni 3.570256298807043 1.7343073255149108 1.6764668753266858 1.443538670815114 -0.37522113893110864 0.4269057117895938
Ni 4.399327040869292 3.0054164727127093 13.31699340272673 0.21978304043304087 -0.026695507013315318 -0.11063405480949977
Ni 0.130314308196141 7.201843242619367 11.696996496914657 -0.8400835324701339 -0.217861912150928 -0.2636825700294685
Ni 0.5131614008026025 8.178070164441431 7.0762158475381005 -0.4912982191330507 0.10195323920605023 1.0401498112005376
Ni 2.4742828106974395 3.376109541076693 2.6432882079040714 -1.3893639845449233 0.5248346603275994 0.42166991731195125
Ni 7.266565056571627 3.952001027954156 4.062934291804836 0.6793515325629784 -0.5887381438497795 -0.6177178189115813
Ni 8.840188894791666 1.3923317594732787 1.6613719695841827 1.0857231289549625 1.1386058358866067 -0.17561765876973626
Ni 5.52743722643787 0.7891306191999374 0.2521161283909397 0.2879447850109428 -0.07306226720331288 -0.9875008175462542
Ni 8.343480735723002 7.890278565045745 2.2376773098620624 -1.1853325505191843 0.2540530173595044 1.151854473366397
Ni 5.404402253898715 7.664191293183931 0.28228165051158743 0.24116613409450727 -1.7857581580092217 -1.434834972393529
Ni 2.006329522203985 8.617726343457202 11.92488585277061 -2.51712465018691 -1.0712218500149937 2.42605643332448
Ni 3.1293669674469164 2.3947631686129083 8.979258584632735 1.4037112544055308 -1.6179545959672652 -0.9756912265058356
Ni 7.993209417546611 1.0959641460463885 13.256162558103442 -0.5550770041519086 1.0860488877254972 0.23737812780698472
Ni 4.766993280751674 0.29453283221149995 5.5640170091618115 -0.08429258870149355 1.41083603837577 0.34139262041743784
P 8.756633481398334 6.490977626414211 9.631216887030533 0.6647967746772551 -0.47092659745523413 -0.6496033547662684
Ni 3.7841802043631634 8.442712131190799 3.888452577141677 1.1552853534248169 1.2347455537346734 -0.8776463212152563
P 6.743970040334701 5.951015714660939 3.384996645812949 1.3042812958419665 -0.5317990074605745 -2.0145930242318855
Ni 1.4769334839466717 0.36709824243892125 1.7074638410734526 1.7113370627851687 -0.5756337452573377 -1.3962697105258213
P 5.297986811818722 2.4133632164736105 8.991277148958599 1.156257230419783 -0.8609464919620722 0.9878258049858407
P 0.2430150904070639 0.4535758532058496 3.376943787321776 -0.046428466665868424 0.08093524219348641 2.601870267265422
P 5.740697845505738 4.637904651249317 0.4185776817841765 0.6282475147983115 -0.1509659216593271 -0.9847168270432138
Ni 4.984756774289085 4.0925430269578795 2.502018462175913 0.47305341399024986 0.3373595879986448 -0.7088911938933081
Ni 3.5397264362210175 8.628161428068154 1.4964200936064607 -0.824584151282954 0.1766299020843345 -0.9121736655681646
Ni 6.157008208547678 2.380619284905673 5.495542488416159 0.3156846741283724 -0.6629052140814969 -1.4086871103535674
Ni 8.211608171382629 5.313205032795661 1.6237430731612168 -0.8855414076926168 0.5942058518325701 -0.5801766274330137
Ni 6.741625182467782 4.5418028469584835 10.515918681330703 0.6697029537296207 -1.3551850246703694 -1.258486606105355
Ni 2.1774200679201643 0.3418718691399478 8.09297144220501 -0.93503848598148 -0.06629872322723421 -1.8186795913275904
Ni 0.06901542620579039 2.891200407848343 12.213988143635333 -1.0333921807617301 -0.262131937712897 -0.8730664151540578
Ni 2.9816782900838565 9.173952787267474 10.231109068513186 2.3778382217480405 2.077511261022661 -2.3920736486211323
Ni 1.6930340902318444 5.332412314765326 1.5988446062810837 -0.8153374358737057 -0.46844702556649004 -0.1301970645430919
Ni 5.8010382318102485 8.706513312250834 2.1536977667987767 1.304553575666747 1.5405736467839402 1.8356123625271872
Ni 7.587081903408822 5.564104824556032 12.7187155297676 -3.02272951575062 0.6081044641915334 0.20296596887570206
Ni 3.296384373601435 6.480290306096459 5.295341139516285 0.6674365262929473 0.05372602876854618 -0.41681875986723704
Ni 4.61440936226405 5.3155592327257954 9.40913922870052 0.6548399205748594 1.2255677438901473 -1.9855395585093543
Ni 4.835984417593107 1.6821319024601518 11.153424811935178 0.36136417844335833 -0.183049175347117 -0.2736594787365222
Ni 7.940949915922918 8.057464128338129 0.02476113855087544 -0.0060042972125509495 -1.0430003932754555 -0.8571266039953496
Ni 7.594742395244973 7.767402407581241 8.206101959323814 -0.14986574661661287 -0.5028396441137469 0.6064820980967619
Ni 6.6596485777577525 4.98579374330593 7.990232102000048 -0.017473731304731198 -0.41799941043889943 0.5447972194924553
Ni 7.733359929226444 6.086634446350454 6.2640635819578865 1.0262031192124585 0.410714446741712 -0.957914619248705
Ni 0.3357294625762049 2.0379897744390036 9.87794731597813 0.8817138064164105 -0.48963394405675026 -0.10725588236588626
Ni 5.248819533119135 5.500102349471312 11.786897039643494 -0.9346682471262547 1.1913173073477097 2.0988532170335463
Ni 1.9501183278404244 4.528621195762375 5.181827597805674 -0.9660081948901169 -0.3369885778124712 -1.2408298122555406
Ni 1.612001033906512 6.617469162342848 9.744608047713031 -0.5480411803510497 -0.4125018776594379 -0.47743174556360357
Ni 3.997020430586365 3.5496663914815842 4.6177865181162066 0.3175662074218015 -0.9940103365299977 0.5479589050498885
Ni 3.1989092860180226 0.7970330704733521 13.188071061949598 0.29313378541105 0.6638403243012567 0.38339801831494613
Ni 3.6284760367617896 5.314307396255009 0.04237279612345057 0.2077335654676745 -0.3262094849190963 0.8450588741975381
P 5.110089894379085 1.3635114944555646 3.294905524994529 -0.05324214715359217 0.16158663459796688 0.672336534697726
Ni 4.911599077253844 3.3266900266703052 7.060983613466339 -0.17003939335101037 0.6156102856502753 0.5201020307386205
P 4.731652255610017 5.765211419381421 7.227275141309066 -1.3681554687881083 -1.1941550339068208 0.11463597688004129
Ni 5.358766275094329 7.597750539600145 6.568644737363244 0.15395251509147678 0.6616859969624153 0.7603903902138647
P 0.1026020118757045 3.593676851286592 1.3019519689015207 -0.34609311121690073 -0.10476936849860666 0.6190522214522887
P 9.048694403683193 4.1926338922414415 6.120824529304045 0.057625106712636244 1.0255467165753822 -0.5424423461070336
P 3.176777938262118 7.395018425775376 13.377087158562372 0.31211212628576573 1.289610066983037 1.7173534441825775
Ni 8.71030618991605 4.199733860284703 9.314658272377455 -1.2449574612706689 -0.6331655209252193 0.8118924147478986
