# total energy = -340863.08763905143 ev
CRYSTAL
PRIMVEC
9.30033065400925 0.00000000000000 0.00000000000000
0.00000000000000 9.30033065400925 0.00000000000000
0.00000000000000 0.00000000000000 13.61197400397470
PRIMCOORD
 96 1
Ni 7.623146273241861 2.8833908311691716 0.2900940555223915 -1.666054793908602 0.6601903862534952 0.9247216774365041
Ni 1.3957099303759584 5.240792158554515 7.881101175920598 -0.06367851199556776 1.855506530347953 -0.04225402357320465
Ni 5.738843468877585 0.8073514788001247 12.818096171680725 -0.9626958426874324 -1.4289998537689903 0.4328529305119643
Ni 1.1762035248963296 1.4258244012234729 0.7873111261805372 -0.609143446979009 -0.4137097819246101 0.4230102333899295
Ni 7.296565160267659 2.808495267940316 3.8881920511308383 -3.3896462485810916 -0.249603466228583 -0.19720104136746683
Ni 7.442738458078154 8.446644056192195 10.811868821773007 -0.4578047153612954 2.4626560868253846 -0.3554907503817168
Ni 3.5031927708513555 8.325730456597217 8.104610443738947 0.2048531585960859 -1.9861669076807087 2.8610428652396793
Ni 1.5042633904538427 0.49615404285769155 12.317202680291874 -0.9922128783099428 -1.3607638043097274 -0.5044051888286538
Ni 8.249542147399305 7.019024691141182 8.038060997291609 0.4001641820296915 -0.3267915826748114 0.06669595866565287
Ni 1.7395152558299638 2.057437760910704 10.649600371631225 2.5115304439285846 1.2820543661229662 -0.8662486209012759
Ni 2.2431746655727522 1.436696487826544 3.2487292123221425 0.4692911187343402 0.8489823776216604 -1.508003940378035
Ni 6.854306533889691 0.6732239693286346 4.351340150322456 0.03775716414411562 -1.2028304501936316 0.17756269831124905
Ni 0.44848519779007706 7.885220292393225 9.673648777540153 1.0001318760467035 0.6364218230789879 0.6818208200390774
Ni 0.18369455203755358 6.428918707424445 5.958478218921048 -1.7909003643317931 2.469827664873159 0.6032625627181998
Ni 1.4275170614131725 5.157982013889208 4.849864847478799 -1.3912092652837782 -1.5318262396086135 -2.861694897001381
Ni 1.352723801822156 3.163172679997393 6.765532087138369 0.6545303597542405 0.007401177560077577 -0.7544837949214425
Ni 5.337441195320227 5.274422154411407 11.015490262395454 0.2901399928900487 -0.5140139155630116 0.42109013354908126
Ni 5.683897115027333 3.00593198863886 12.469942941618562 -0.9698273115258911 1.7112761276402462 -0.6030846423794388
Ni 4.961447425269789 1.9596075821444887 3.376939851394254 -0.8045606569731757 -0.014553729444458806 -0.47842599115607276
Ni 4.25242741306129 7.729774564862231 6.059329145102728 0.43175198413830157 -0.8819079247050876 -1.169894104476927
Ni 5.1035099769053005 0.5261541196374406 7.122016553452911 -0.32279017482490213 0.13920518157897316 0.1653075350929798
Ni 4.264499242326291 5.121478215842112 1.4288897902263575 -0.6189910291970501 -0.21633313421122743 -0.06302390913070437
Ni 3.1414192064605375 5.123245278677513 6.119466943556773 3.745054980771963 -1.351553341455053 1.0916569779408942
Ni 0.7613027513426515 9.035103881372795 3.2497094671792546 -2.134262963991408 -0.6397830262417369 -0.49888065946599885
P 7.166955751456366 5.159479367133942 13.235058828553395 0.4248629703279522 -0.8486293651576159 -0.6706128671384
P 5.518007116106049 7.914097819255959 11.74741977924839 -0.42221190585835033 1.0420850805500377 0.005798608959648078
P 8.499600139269942 0.3646064451258865 1.2542574804351962 -0.7655773337314428 -1.4713384666362015 -1.6848999516395626
P 5.887630159618332 2.8265286091921165 10.195899548377502 0.21499076125072009 1.0323475415472996 0.11725413122917869
P 1.3982024190069446 7.484031926442257 11.673452389024654 -0.4514075535857 0.5203948793886909 0.32528594466356237
P 6.070595565728015 2.0638642894331354 6.038652649862397 0.6517684807383871 0.9791028232905459 -0.38486046179308553
P 2.2696434067809137 8.62147167292832 1.8523580284325156 1.5358456451806517 0.14991485468699342 -1.1175526147607333
P 3.3816002471143554 1.6267487459392556 12.471454245359366 0.4684997331812964 0.4341012010967685 0.057852649342410044
Ni 7.22102787421963 8.274727442969121 13.613199114932309 0.4348504205579672 1.3210096643402411 -0.7317907241993009
Ni 2.6651120693436106 6.587638151366287 2.689603560242266 -1.5435489273621803 -0.6574927848166741 -0.5684310568613113
Ni 7.777596865386604 6.342388430474082 11.259035232668033 -0.016203863453372092 -0.8775056818723339 0.26052114158235135
Ni 7.336528681339854 4.697169227739532 9.157264655316338 -1.0844416911393775 0.7882104977499264 0.35644694364739904
Ni 5.250445901834232 0.7648526875756645 10.3200812841849 0.8552463562535013 -1.3562795432861288 1.1821253564357963
Ni 4.479783297662384 7.754020527030073 1.6621988165166088 -1.487384978576103 0.344827871351232 -1.633264486851458
Ni 3.656573824964144 8.781093248949288 12.856359592298652 0.5403412406036306 -1.1335356204525509 -0.6119752600008493
Ni 3.698369511186729 3.468762946553178 10.792308366218192 1.0790233483372835 -0.5328230778497146 1.0537419480626755
Ni 4.060924303357408 0.8939198871064095 1.0656151524585205 -1.3412167354157354 0.4210873053356038 0.22903052717323782
Ni 2.822324859710005 6.542475745425727 12.943721318814724 0.6039385057393017 -1.5862642068425197 0.969065493659202
Ni 1.4079584659244995 3.6135876964103413 2.64247878452134 -1.31178968840387 1.0967459624280274 2.6761872328114427
Ni 0.4343784561651512 8.750495160904716 6.729432853477274 -0.5430794654704002 -3.418237944175855 0.5459652716586274
Ni 7.958255789479553 1.0753693393099328 12.529944955244204 1.3271034359428047 -1.0373249401572329 -0.5221663694668168
Ni 1.0015898157665934 1.074932223766439 5.4457965583539325 0.8833521133507819 1.120414766799877 -3.5921604746313553
Ni 5.44648757292588 3.950464275483433 7.583325977262641 -0.6510778824292658 1.3097657159953056 -1.2220628160606823
Ni 7.830041430275157 6.456401184680284 1.1515427679787045 0.3965486967642912 -1.0475998397206796 -0.18404547782211528
Ni 6.083430022111453 0.272382505713248 1.7955822995310884 1.9419686158969391 0.1841318668883345 0.7857034150573565
Ni 8.950833584785602 1.7332375325989346 2.709640192729568 0.27381374492619937 1.5134901603035869 0.4248154049194684
Ni 8.512955414173287 4.562184227776337 6.960509800396492 -0.7927528657049702 -0.5019585270603742 -0.08347394945494012
Ni 5.550056055741793 6.574022467202988 13.422535825091776 -0.8296595089233324 -0.623677636039442 -0.3314501644927453
Ni 9.381243589835671 3.5384968262365204 8.850410473816705 0.46443199086982595 -0.8834289893353044 1.3708918938826649
Ni 4.507312276571786 5.961456184815234 4.006847530428788 -0.759815234436685 1.2375868798382104 0.7925201808688739
Ni 6.049353610380355 7.597635466097103 7.705031035001264 -1.1648711973410388 -0.6082103936417783 0.4175003593152939
Ni 5.322700171140698 3.9575046258328985 4.663230460902981 -0.7412387569860783 -0.8013071830328845 1.0181573660898466
P 2.1210706236465575 0.34578443582965435 9.13656118911694 0.2056424872666007 0.18194051566397054 0.8153240661372668
P 3.2604541392515625 0.7219763029242713 4.8848201404622404 0.14350560872653995 0.448418389050389 1.2764267355235437
P 3.828657844140043 4.350778410347413 13.042680557729454 1.371086269281658 1.060999400956037 -0.2220633518267853
P 5.900911031875976 2.6358904302445088 1.5197363506604546 -1.0897309645627749 -0.33474143364950737 0.5772350283061866
P 5.3191009431549094 6.920097073350876 9.6384349353629 -0.07834125621406508 0.055694208238510526 -0.538426282969105
P 0.7445844768536175 5.902864101325629 1.7289249692474853 -0.5496386067451566 -0.17698034344521776 -0.021226770589260216
P 5.892754641840995 7.342397190019527 3.0529888719455833 2.8773452019441286 -0.590030637408958 0.3234954284220429
P -0.24545525820095376 3.37046775125133 4.625458097746683 2.8382420652950797 1.191930001231044 0.9370380329100121
Ni 8.447639191578446 4.38206472286472 2.6623796321802384 0.6409119976398574 0.9256375043825541 -0.03125304447701069
Ni 1.8510448217358917 3.6654184394718605 12.831463537013997 2.327447428000314 0.08040610916289377 -1.646758664683151
Ni 8.555178915608654 2.025546926897076 6.292760935758386 -3.119149740953583 1.5043398612628867 -0.34656336598509996
Ni 0.2457761196105397 3.9480368891674353 0.6672968685654719 -0.0714545563965608 0.9999940649172584 2.0002930626694453
Ni 1.9150403973695382 4.902446127228828 10.349946506169315 -0.9601237110848819 0.49019084500148485 0.43526565371851483
Ni 4.237974699133854 2.068514454789453 8.830427783247535 -1.1193336179205562 0.837932547565402 -1.5078812987572419
Ni 3.2913312372175128 7.097240472434449 10.579920433866016 0.31401782794891075 0.30978784902796325 0.001824969023880728
Ni 7.3755249680179364 4.959485055489423 4.9396353596494444 0.7333616682308466 0.4904556686270973 -0.28918894183068905
Ni 9.0432044694235 1.4245874572386923 10.307449575010997 -2.3334018458115366 -0.3245102428398024 0.408165197957297
Ni 0.5860268586661757 7.717433026006564 0.1853695415988993 0.6381776294278299 3.741883010801885 2.0274914774611084
Ni 2.892970171803186 2.899796614546261 1.4026051955663066 2.8889156803905474 0.5504482471306456 -2.059958339740562
Ni 0.29219407019730465 5.8468296087819995 12.913434791849026 -0.426884114523039 -2.0730761080694426 -2.023192335865122
Ni 2.26444452191255 7.986342788231713 4.594871170098966 0.45157133285707385 -0.4979512056731941 1.3422588035270044
Ni 7.3269214397137015 9.227202212242286 6.589352202316625 1.038022994665522 0.35071055538425405 1.1070015787177643
Ni 2.602623147285411 0.6322467122087616 6.922846251109531 0.6937245134551988 0.980104525082183 0.3785154934116642
Ni 0.5516900376751246 1.2702577693932149 7.959370899131998 -0.2940969206552677 0.5901229400124481 2.1478656423765075
Ni 8.448773831925386 7.0282506192081176 3.2494909094075077 0.20076150502521553 -0.783523119576586 1.0764509596244172
Ni 6.307651695262387 5.210380077124197 2.585322672093766 -0.10184550998359235 -0.025829559468594224 0.34486926611212865
Ni 6.996248181225937 2.552438562760029 8.272840405867528 1.228034203152769 -2.4075223790760343 0.025067998712221345
Ni 7.865243182022483 4.031246948053387 11.514001009055729 0.19607669795503652 -1.4555122982372224 -0.3933877825378064
Ni 6.796346872888544 7.163235619171313 5.243971941625166 0.02484122741339593 1.2972470147030046 -0.6681420370004042
Ni 3.788238606862928 5.428100819107 8.707157479849975 0.19122682606190292 0.1356287770816245 -0.10757469915788571
Ni 4.701196270938103 8.896138339864592 3.9341059237929783 0.40790731631022004 -0.7015663780971207 -0.6591922840062842
Ni 3.766894347877429 2.6302544298326516 6.044178906371845 0.1317006456718119 -0.3872639290282556 -0.29289930080274074
P 9.231136252133732 5.683339095184575 9.688404682248821 -0.4270908312172064 -0.29996932027564466 -0.10181671362818594
P 2.493353561742654 3.4714507421291296 8.669724578764688 0.25605436406024934 -0.003911933459896489 0.5714261349338932
P 2.2764140475397125 6.905579257108451 6.66413709161 -0.9312589643343897 1.8537345260491949 0.3242477332070351
P 5.574050908980392 5.814873672453383 6.3639651977273965 -0.7745527977571757 -0.98655670846543 0.027804423806777924
P 0.054301840931866296 2.7148316373333614 12.57931483079916 -0.2774235737646448 -1.9826514383282823 -2.1909143939368656
P 8.618021250233934 8.538484821979472 4.78252580295396 -0.03225088961390575 0.2618048933907814 1.3697557233956925
P 8.152409493436537 0.09021599801178048 8.923220902899788 -0.7052980772254112 -0.8859373575794548 -1.5835241822035373
P 3.074382422683859 4.051196157431991 4.016199012960342 1.7315639313550049 -0.4861650116715434 -0.029909385964922687
