# total energy = -340891.4447468059 ev
CRYSTAL
PRIMVEC
9.08154858695681 0.00000000000000 0.00000000000000
0.00000000000000 9.08154858695681 0.00000000000000
0.00000000000000 0.00000000000000 13.29176433401336
PRIMCOORD
 96 1
Ni 6.400121581685072 1.9765627583650531 11.402314007819093 0.004064656987676871 0.05548414911023347 0.5554649836189466
Ni 4.698984033687751 0.33403116889009 5.945512873785009 -1.5488657115894036 0.20925977230421378 0.3085120676393332
Ni 2.6846057063444846 1.4218072716688233 4.68141305317405 -0.03954742327531899 0.41037711800695137 1.250662482075246
Ni 3.415697625041184 4.469275339707224 4.680123473252123 0.45609261776619514 -0.14471042766791853 -0.2098035606228258
Ni 5.163505252044038 4.164598460828728 2.804509394437506 1.3237198641825525 0.8355607048991159 -0.034224982621141056
Ni 7.134827956782667 6.030448058431679 2.5347665091201272 0.7178142074145509 -0.5916717725568068 0.3552848050184978
Ni 5.082098249085176 4.238286147353516 11.318987165455335 1.657286046577036 1.0373002575668846 0.0551974711077501
Ni 5.455177353118307 7.956081491429342 12.694007206139805 0.7287344538714804 -0.20626957932763829 -0.42835247153844935
Ni 1.8964634984256112 6.6084250652713505 0.30916407211387914 0.24269774024768526 0.5089856091104846 0.9160082088229062
Ni 2.584481631420182 1.591205400427373 0.3561184035951599 0.4490413673463686 -0.5033533505253719 1.2453048173077585
Ni 0.12894073725013488 8.93922271402165 4.934713794486854 2.2584248780840133 1.1540329690749545 0.273203107925394
Ni 8.660991305091413 2.245512824476909 1.3496725299795957 0.5752046281397191 1.1953662806061027 0.9021540765486334
Ni 6.908770045398019 0.619966455621531 5.195897320111158 0.08689017422534069 0.6387381299169903 -1.9693727189415053
Ni 0.8839988630874451 7.479645281118343 2.722060737837482 -0.8305018023189696 -0.03331995430836842 -0.8550776918861208
Ni 7.663519398577967 3.9963082810171864 4.1098666910013995 0.5234838027266598 -0.4692623223789338 -0.4550734324730614
Ni 7.792286678247054 3.856597735109207 12.39575370668933 -1.0446566979319558 1.0054543167008814 0.44069093849914426
Ni 7.835424034790404 8.294396426862905 6.900233389576809 -0.8206945864205608 0.34169215393572766 0.8582666311370639
Ni 6.913220004283544 0.9819424581578405 0.5024457659194514 -1.041715870136077 -1.2006884641499644 -0.46422527417565856
Ni 2.0162400448361892 6.621475250819307 9.110135645111027 -0.4253311682136223 -0.17766014312106176 0.007791985240593032
Ni 0.22880871249980092 5.004214887039751 1.279914429597188 -1.0290650141412858 -1.1759716781295746 0.8774414042933016
Ni 6.28992606920149 1.8746859445327788 7.0886310264668 0.7216438655732862 0.05822828751427391 1.4396671036748494
Ni 3.2288992488853587 4.190371896169786 0.3316735988356365 -0.678091177793316 0.2210235977083613 0.7530069532656
Ni 5.921133456176457 5.542995929491822 4.949959898521586 -0.631571436965222 0.623571706589197 -0.8965012491382301
Ni 5.344146338150097 3.0040401019351792 9.262977202350802 -0.2849455931733028 -1.0205765170543004 -0.7968758867344082
P 0.19056449442077852 5.743825298460169 12.58670325877694 -0.3119144084526628 0.06588657539048008 -2.179126143052686
P 4.218361229404861 5.729658082416458 12.558710292922365 -0.5458840247987308 2.1462018815208395 -0.20312743415423082
P 2.247846782504623 8.478406767553718 1.365568872904539 1.3753352743659992 0.10762355011795013 -0.600525880513327
P 5.96613253021273 7.680647199512864 5.8000609727598285 1.7864564696278267 -1.0887801706137312 0.5374104401100809
P 4.756624623578412 1.0344610545557762 12.827044630029246 0.08966079499194235 0.41754432517935186 -1.042081995226244
P 3.918888077957805 6.360716741676314 7.962711022013899 1.0274894421240497 -0.08043619106988081 1.8411854857395904
P 4.796701498194371 1.0619963103535526 3.8272043944380054 -0.7409111984433304 0.1650069731334255 0.6970247814730254
P 0.1787893583167558 5.593507503616898 3.589826332541509 -0.666592176014781 -0.49191554100207535 0.3285697576211567
Ni 1.4766144183507428 0.8741998719905453 2.6582601334324303 -0.8056320356604834 1.2348111168652862 0.20015035380377788
Ni 1.9384929060219533 6.497148848486999 4.5430456683256 -0.49728349018220813 -0.03974257000526059 1.9209606461867046
Ni 6.144221701121172 5.5170317816270975 9.117286456593602 -0.049988158992668744 0.3847324208556535 0.31025784668584633
Ni 8.75547573824447 2.347680247869054 9.933440701619416 0.006825250451949536 -0.21202730774702194 0.6878919659338217
Ni 2.6449011752271105 5.14782141735975 6.828059597227974 -1.8803667839247424 -0.4859657511765437 0.3814709764955624
Ni 0.6527789993955897 9.327658716984212 9.29881208554752 -0.1275647691265674 -1.145494078366008 0.38897551240272366
Ni 1.4720918070752504 1.2702907123910854 11.493149474686021 -0.9687739305607121 -0.8649910943450909 -0.6236120729088291
Ni 4.201514956481089 7.079412346334767 1.3228737877851173 -0.20720726065055925 -0.13043129204108506 0.18825308814555966
Ni 5.553303487318495 7.972546339305782 7.9899057197337005 -0.3087748343824166 -0.08479986735521525 0.5813372234000181
Ni 5.23470459421243 2.9207532183859026 5.172649463476353 -1.029435510106827 -1.1345231811768008 -1.6274360530951393
Ni 0.8241151306565291 7.29192058699043 7.016496284777571 0.5080471564566154 0.17514688978090479 -0.6165842195277703
Ni 4.923198390676966 4.527724187436276 6.965522459821326 0.4913745808969408 0.8979765481321761 0.9994474483851692
Ni 8.416879274799781 7.254922357399353 9.282914834467702 -0.7172472791674874 0.12458280368010803 0.046174698783849506
Ni 4.923525326431821 0.23599766648710957 10.504428548544189 -1.3398113704277765 -0.38600074604511586 0.4122609652932255
Ni 7.9123629157662485 7.13191277963521 4.773258388261527 -0.03706579450404584 -1.5832117931694412 -0.6319532457846729
Ni 7.42439313854787 5.805852276395133 7.005570273481297 -0.9811486500759812 1.2436425991139872 -0.4077029136088978
Ni 2.2645931583921888 5.180587645235204 2.5740832581060484 0.5464108438364783 0.2858452221694367 -1.1549459678075271
Ni 2.1993694752986435 5.69016242692024 11.448847863593437 0.529834684645352 -1.14693775279107 -0.3533595629713269
Ni 1.257067977416955 3.425705491759241 3.7752470377525706 -1.5226070350031906 -0.6706702027388965 0.5798619244060723
Ni 3.4594252822530223 2.684569380149501 2.6466557304448313 -0.17201117236540053 -0.6874908738406611 -0.13780290191480785
Ni 1.475188615197626 3.597710025007884 8.391915005451988 -0.7350220866524051 0.4149081731080854 -0.9400199983564714
Ni 3.596847277877017 2.6193002893122252 7.214251549495408 0.36006268602311536 0.00274336707309205 -0.08855367797069265
Ni 3.9129396635291958 6.885512199059595 5.87680732490226 0.4273605399388253 0.9974255328591337 -0.7138909611007447
Ni 0.780982314887552 7.752418679252252 11.318495853668178 0.9929602979989287 -0.8401966610092303 0.23503945237147908
P 0.1656356431130951 5.594824328185063 8.16740368181878 0.8202886092313937 -0.3511327305233372 -0.3142384286001491
P 8.430901186063556 1.0912116526693332 7.747025147452021 -0.1695529406328951 0.8285513634608183 0.1974111004957439
P 1.7216709297119561 3.311532260924926 10.466466766631166 1.183823827184142 0.2766818105026138 0.5379652841722864
P 4.209016315745259 5.991579029798935 3.209629110601288 -0.27244463249281464 1.165073286049516 1.2892393139071796
P 7.080847231036629 3.79412576128569 10.24038705952953 -0.051358556977634126 1.0153782606828128 0.21444980114558554
P 6.377308731235199 7.602818326759913 10.156064879423212 -0.03116562696952697 0.708828716086489 0.1323238810781076
P 2.1707898413950804 8.614239492147169 5.865203830069535 0.3499510515104102 -0.04471199819539397 -1.6529807343334628
P 7.020100751474847 3.768779158735692 1.4267776032974917 0.36289038527989764 1.6985517380950423 0.5324063020272701
Ni 5.2413795325407175 2.9458364560222674 0.6326007062369223 -0.48355971283821236 -0.6463298262213192 -0.8755038209509567
Ni 1.542210444942873 1.2609457987314838 7.341652964233101 -1.1928219169176941 1.0720317475107988 -2.1505704429021804
Ni 6.988460635643892 0.62981267077191 9.392160416952454 0.2201674203556531 -0.37001156970571114 -1.155705471681371
Ni 2.7436266916445335 1.6138366199023264 9.394618792197988 0.8087854936878006 -0.006216156113040908 0.526495335859474
Ni 6.400920757974717 2.1022877192042406 2.8109691000605137 1.3224147722178838 -0.6743725912911482 0.0997271780890089
Ni 4.239730113604125 6.780574903299928 10.279079906116603 0.23673200958255355 0.5576254816053752 0.6609591460987198
Ni 8.038251344482864 7.375189307442215 0.2925929701171105 1.7539952637753278 -1.2164549829556017 -0.8603844488110151
Ni 7.998683036596679 3.793635357653408 8.114609006338966 -0.5468397038437808 -0.97070071526978 0.02918999130039489
Ni 3.031066791003181 8.715389782079765 12.374512872327385 0.2811143923526707 -1.095429557609449 -0.0941550833178701
Ni 0.09350725850798973 4.879316347136446 10.23447224683128 -0.14330763378312095 -0.08408278668353261 0.7754840513221934
Ni 8.70859678361778 2.476574669220585 5.994665848217688 0.048712891824670944 -0.15077643135634033 -0.18499807154337172
Ni 3.507557490606655 2.699726485006522 11.7666675598171 -0.1604733469291301 -0.6182418097358513 -0.7865631919544905
Ni 0.9859655842523045 3.3078723967803003 12.589653853964505 0.834689358037756 1.1018429173349606 0.44688781133847555
Ni 3.0242556294437053 8.676448101057051 7.817883931542441 1.0833191474991601 -1.3041049181651023 0.9812864612054261
Ni 5.755331620721311 7.855040180081695 3.6241727498987615 -0.9045032935071003 0.14107874445260218 -0.7393798494004686
Ni 3.228554150033012 8.31859875427091 3.747453865970409 0.5543925764903742 0.07187955974912137 -0.7823321845922785
Ni 3.6079267673470987 4.592857055042363 9.362067797027814 -0.6873206668113839 -0.38268530851863775 -0.09180458080782253
Ni 7.303508643190285 6.177569148116368 11.449566214099244 0.3484024760763677 -0.500572445346125 0.10704993700266725
Ni 0.3768633853955756 9.261454226626103 0.3035789196351085 0.5879534431649551 -0.28948307603234014 -0.06194995934023524
Ni 4.688467600239919 0.4662712327996352 1.716485365378008 -0.1964479652515262 -0.4966425141640995 -0.2609399742873248
Ni 6.117440213869311 5.592780979717221 0.30531985252971067 -0.039103136649048784 -0.5690375800970586 0.07884159288925133
Ni 7.866237729685475 -0.3238035286923803 11.592172865902311 -1.2799843709678151 1.021597502119647 -0.320114684875268
Ni 9.453438167115877 4.952213938920336 5.957435130978716 -0.014177319941646551 -0.4528075192570202 -0.7311538619462504
Ni 8.046960549730247 8.969237232627075 2.7402301924135415 -0.31751915623394994 0.04117287469388393 -0.4692625794892498
P 8.512072068755023 1.700392861000152 3.8186577489131746 0.08209275283669731 0.648633020433199 0.038873537136745955
P 1.6090324806157092 3.1040461167257845 1.5476403029380879 0.21779480635841844 0.6630427681006259 0.2595729187364691
P 4.640653246092394 1.0559479988887375 8.40797118363486 1.0148984928329166 -0.14510354934127914 -0.5149413124732873
P 8.449236832981667 1.7831439331734165 12.329998752994147 0.263709566612662 -1.4383594406070195 -0.1039090773808404
P 6.560801423647491 7.957670762459885 1.4690058968113704 -2.7509171175251654 0.3072049187921354 0.9769428395247497
P 1.9070071765196805 3.201136954368933 5.945432956156044 -0.42165114825887384 -0.47335346172917186 0.1900636589917372
P 6.799046773449229 3.8549176485912033 6.171007729147406 1.6994097152199636 0.2885042570588386 0.22092898111202594
P 2.584872138016259 8.495643547073565 10.177451018565094 -0.27907884997988064 0.31087773965803234 0.7100880424148867
