# total energy = -381172.2222079562 ev
CRYSTAL
PRIMVEC
9.19569669794963 0.00000000000000 0.00000000000000

0.00000000000000 9.19569669794963 0.00000000000000

0.00000000000000 0.00000000000000 13.45883163271252

PRIMCOORD
 96 1
Ni 1.6599059801011824 1.0655605280080473 9.623697322995637 -1.366889714701807 1.199360232256844 -1.9183584326771672
Ni 4.893287588869708 4.8404491167621595 10.167164825475714 0.3598863083462512 1.043788950615022 -1.1213642751973398
Ni 0.8946171278612904 7.6715465906039695 10.363798242943538 1.191793989873812 -0.18926918811489984 0.11119069864391819
Ni 3.6621953281070527 1.1642303514876837 0.6378116703245932 -0.6632682538478706 0.04706455758797056 0.6290098468856329
Ni 5.744146994920387 5.2229073300279145 0.6890261824296712 -0.057850335349564894 -0.4124802803928832 0.8449017797943835
Ni 7.968595174747743 6.672268642991188 6.845175324341384 -0.22688725557798992 0.09764869829342539 0.1676904335028596
Ni 2.342116312282661 -0.16451193001239917 11.424233089720687 1.3210086358989763 0.8754269449664343 0.9913793266650538
Ni 6.098530746761787 2.3727103945489003 10.26506404958838 0.4911467811568509 2.8328808009831663 1.6615103690710287
Ni 5.671832037619002 6.545239291495597 6.1659352021304485 -0.44531789574819436 -0.2833319688292798 1.0722245802478954
Ni 4.9731981914827585 8.705464726944408 7.564321091097729 -1.762953758520196 -1.1965001371002297 -3.1662862894300696
Ni 6.8979862093594235 8.988719766333341 6.323900715802201 1.6334982001288187 -1.3626191123509115 -0.07654148400116496
Ni 2.402623995273901 0.42031045878199297 4.61702495710183 -0.04130040141068372 0.2741801271266826 0.6745602818219222
Ni 5.545731451470237 7.781352402549015 9.468732365092892 1.8906447688119825 -0.13657391460371318 2.4380994805319434
Ni 5.752542665827835 1.0674272543982026 8.668079622810534 -0.576280377702401 -0.10763640563375655 -0.648702954439186
Ni 9.008738797620868 6.558481094460245 0.275888366920196 -0.8916351792951807 -0.5511241901517476 0.5986533460809625
Ni 8.437732023252925 1.5095931250594175 13.012859547946746 -0.6662103671953301 0.19016856000071763 -1.5129972798275684
Ni 4.362318877076819 4.235730919013383 3.303107057934601 -0.582938506448867 0.8273043784275946 -0.5065461464310566
Ni 6.790267820520611 3.8700732432590246 2.935155975472338 -0.4162713720041992 0.7620973456026423 -0.4253615072309255
Ni 7.947408290004305 2.0063262587707875 2.123695531089738 -0.9384493114352418 -0.9656605817427112 -0.5961269801146829
Ni 8.878996715656823 5.579838289800709 11.574393296200498 -3.061534147322644 0.7655295112126429 -1.0061827102264735
Ni 7.873879500764494 5.5170592697731715 4.5544951404495295 0.7944870747872576 -2.2822260942686694 0.3489686329924829
Ni 9.260158335715625 8.68105015272834 5.553544115219379 0.841565516332299 -0.8023937312288439 1.27092071810365
Ni 1.9014677315444786 4.993897704311525 3.396672350285295 0.3980034269329468 0.15309608062845245 -0.13010013395391143
Ni 1.8679494177902125 5.390204636511141 11.102351527169946 1.38807380497859 0.8648486552299558 -2.073184094402216
P 8.303612789753345 9.12650808273771 3.8175842076185993 -0.9411433133276372 0.595909207676922 -1.3171093008445705
Ni 4.893158849118661 7.0304870002744355 3.406376568805152 -0.7438911070072608 -0.9667643563298511 -0.7495210515995285
P 4.029471446445979 5.622818975256797 5.182457300249515 -0.7661699730101192 -0.40800501823034896 -1.0097817404316414
Ni 6.307751233603231 1.4383264771594004 0.3641753294780377 -1.5342885851061767 0.1500225839094513 0.7833552265401541
P 4.6030070373523095 9.169976140108467 10.886821872957638 -1.147652262359591 -1.298143815485661 -1.6202881291964482
P 3.9775617396852567 1.43809658474682 5.678738925262577 0.9983030503680806 0.18182327335981588 0.08504077972142773
P 0.7290311404973143 3.9789594855537476 5.56397479376299 -1.300819048324979 1.3026854121097566 0.563509451189978
Ni 7.032050268679984 6.736463800280223 2.108595277861787 -0.40409385610140086 0.17666692596985703 -0.5092530038392584
Ni 4.257736220745607 8.215389277501377 12.851434613250483 0.6368733087941096 0.5381018097501507 0.33406651906966983
Ni 2.578546865077156 7.282770933840496 4.374820426472958 1.5046059704400798 -0.028662143821382893 -2.210204609625045
Ni 6.620276174961938 0.5267460479586055 11.41595604329813 0.4996928709546491 -1.0949826998800176 0.36137934795200993
Ni 3.058396700008599 8.60044067718104 9.018775900354141 0.06120613919567523 0.047470277666821464 -0.7250410641802932
Ni 8.291649188602646 6.684967899862147 9.567250459580222 -2.1685869340842587 -0.5597232446746683 -1.4462290731630836
Ni 0.6295704871184002 2.9303558218976526 7.61044394604897 0.8867464837443115 -1.3177713599086014 -0.23816771358781563
Ni 0.7867129859531125 0.8070005315785341 2.664727093566108 1.1884014192524952 0.5818033644031594 0.852932363408344
Ni 8.43438478972575 8.79847919707456 1.580753102879997 -0.9854220806403545 -0.6999571246284719 -0.46089415291989655
Ni 0.9044620405376463 4.317076050280938 12.761839103080233 1.4509164513364239 -0.8449349470251643 1.5020004144964325
Ni 7.685386113841327 2.2123098604430944 8.666773833907076 2.2186954207048757 -1.334787949071256 -1.0887081797252154
Ni 3.2204616551814897 4.198286042852239 1.0305019350894904 -0.7565085386609551 0.26457937081212496 -0.18537705214934525
Ni 0.7567469697580433 7.913908367643046 7.7572799082428645 0.2075355905242555 -1.2781262347131535 1.0167733412581264
Ni 6.869874965149055 7.401450592911155 4.407121230010197 1.5011442371437245 2.3763616372025136 0.04494982523781291
Ni 1.1030513826517079 6.337195853806567 5.621363296500336 -2.3833555520218437 -1.450462651628457 0.9575415521800026
Ni 3.5875354681973444 6.785550428214455 1.2531518171042482 1.3459519361078753 -0.73036093373131 1.5951378551830657
Ni 3.4988889539062265 7.114370143776881 10.661991691301965 0.8807699544459026 -1.4082155700337877 0.9028801560813805
Ni 2.0886093510816717 7.086488791979093 12.720990899643242 -0.4204373304564308 -0.7154868448329549 0.15301843331298165
Ni 0.023808577816507605 3.3101196960879626 3.496604742894825 1.2768584237443235 0.578875392123087 0.37842216236690956
Ni 3.7924247819857673 2.0968854779345767 9.733790040671584 0.0979420611641281 -0.5987767590327043 -0.29355390366760414
Ni 4.1575491073429385 6.511417519756725 8.354529361291718 -0.6451887706383405 -1.60718347349369 -1.363322566175839
Ni 5.691520023832413 3.8895129456668487 11.97273431646663 0.8240845859387161 0.19404295535445937 2.3392763023144423
Ni 1.7797810797172624 8.055209440111646 1.367861693994465 -2.272386996691061 1.0303500515012964 0.3233316491506689
Ni 2.728216021363695 7.8222824476848825 6.570022613141447 1.5316796867284201 -0.43831266807495484 0.4159055040243482
Ni 7.475144904688024 2.1901298404773084 4.576702747504825 -0.13424423802927204 -0.7475749836167512 -0.695036547398403
P 1.5943038812471537 5.660548918009542 1.1729681023050509 -0.2082580705125768 0.08859970071727967 -0.030412036632954078
Ni 3.8757194009120064 3.0503136827822614 7.175172089056225 -1.656622187740792 -1.1257024975613774 -0.01439277838656231
P 6.460684862148415 5.842890383972049 8.382375769442794 -0.26307296146992754 -0.24490477520133308 -0.38899968077243974
Ni 1.6509677631000448 1.964246751572016 11.852479434584964 0.3452240783483861 1.5857363593635077 0.4217185111616995
P 4.84215951631176 2.9121667342142676 1.421064315683541 1.52629631092932 -0.3195811809693012 0.8168554151801286
P 3.2870844763473763 3.8171060314004315 11.451554423601428 0.5493748115608087 -1.0168319624102038 0.13372024720500197
P 1.9452116598103342 6.293838144793846 8.838777497860656 1.3235036344066882 0.33486047572587496 0.8364407935112239
Ni 6.029185999430946 6.4483258460480775 11.795602212573199 0.5367450386119401 -0.14926179448402682 -0.397489977631638
Ni 0.5228617857556419 2.8084300819613524 0.8332238992967894 1.6819496107619871 0.3359655358645956 2.8630231288945014
Ni 4.5601642873437696 1.6821687613354974 11.981011362889184 -0.7436239693888032 1.4182742398213701 1.163289968896848
Ni 0.26295186107945484 7.035480263475688 3.547801783176547 -0.1481374510715965 2.1811848253539274 -0.1166576352957604
Ni 5.383786040351889 3.7615732202174375 5.372038538069014 0.29839863335441513 0.9913417885588991 -0.2771764907508452
Ni 4.933518761071329 8.682585834044376 5.056697874441019 -1.207495716879785 1.1234173010716266 0.25556405468739213
Ni 0.33691008934596667 8.542875617070834 12.829254593284695 -0.3171782279547634 1.0824861100749037 -0.4379457716538393
Ni 3.918157540274404 5.749268997872686 12.76622636988192 0.5374832023295453 -2.023298008205051 -2.429201406711365
Ni 8.876385137849907 0.6029425087540029 10.723269973660175 -0.08030223659517782 0.17379886039344264 -0.2695930219766325
Ni 0.7997092638211246 3.4262705386202352 9.97907696876834 -0.007745705383689886 -0.7991649398789011 1.2757178823819773
Ni 6.215509201979351 0.2342594488500829 2.8951832023424555 2.2584328485038134 -0.15023161459646384 0.9167556285118922
Ni 2.4546256589996553 2.4114334725239934 2.6989939370157368 0.7927675209929895 0.12065698626314061 -0.34151320515570216
Ni 6.223104847291018 1.8773382239200083 6.3842640263583394 -1.5124136394099565 0.13752110900833092 1.0988753500662043
Ni 8.061811950200964 4.3528105268924815 9.402150924561267 -2.273440891876872 1.0512546628644477 -1.211421277186436
Ni 2.416766976495866 0.8591612808537942 7.150179105530102 -0.4767275204077273 0.7715896013637937 0.3144086356294263
Ni 8.933821458209069 5.316216062446169 2.2997774864424985 -0.7686953105351342 -1.6891998645664972 -0.9786569940023792
Ni 7.837795587685828 4.069803771309137 0.3294799665713585 -0.5923042639344831 0.000764646080166425 -0.8335570442055257
Ni 3.3496519953553396 9.011387158213797 2.7016045952530034 1.321113536907957 -0.03587768773321563 -0.49853818852491555
Ni 0.6640276814856458 1.763192043225439 5.302564131417477 -0.9590147942914193 0.16567494573472757 0.41173800291021995
Ni 0.38844645082865764 5.238981407515557 7.88079190582597 0.03273091457411783 0.3648261688500298 -0.35326623192657225
Ni 2.630373810569349 5.15463847918795 6.904555614941329 0.8691387979648774 -0.7722611735095215 -0.4822021703690534
Ni 4.941132797776002 1.8431762114105164 3.617653213384717 -1.1490717684149372 1.3217979645694913 0.5116857816504672
Ni 2.9038906073613626 4.087487095684844 9.186460345660153 -0.9189374666545593 1.2564654619102684 -1.0775189958776152
Ni 7.82563887690856 3.9704994447707778 6.559942290634608 -0.11952107288648449 -0.1936467483573052 -0.0639523344822447
Ni 7.637265034039935 8.712122411212745 8.672130327120207 0.4101660304374097 1.0956398738480422 -0.388090538694609
P 8.046804573507696 7.783927197569918 11.451823857508973 -0.9153024410051334 -0.2790210001587517 -0.5623357425968509
Ni 5.782787311626952 3.5629369800512096 7.990413803840952 1.5132101671693228 1.7446714152712404 1.482202663044215
P 0.009715253355660378 0.6320137836793078 7.627173676697292 -0.15761530865504467 2.3934833844844654 -0.3829987259939985
Ni 2.583825194870009 3.175770570175801 4.943954037463193 1.4217560277223837 0.05707000554011462 0.09838429090786927
P 5.228654640342432 8.379799135282589 1.5067967137527858 -0.9582573473001047 -1.3452626233503349 -1.8882536428719867
P 7.957495969068346 3.3441161860603965 11.221892823002959 -0.08054983382960966 -0.7639624238358391 2.0086465768404635
P 1.4044679226345151 0.9862752327572155 0.30303222385842443 0.83935591027549 -0.8932740004501842 1.036105465927835
Ni 6.82875181038662 8.18993558958044 -0.22405866271905206 0.13709970520019615 -0.12963810671582834 1.4546520071194562
