# total energy = -381172.9602202791 ev
CRYSTAL
PRIMVEC
9.17928890429313 0.00000000000000 0.00000000000000
0.00000000000000 9.17928890429313 0.00000000000000
0.00000000000000 0.00000000000000 13.43481716817389
PRIMCOORD
 96 1
Ni 0.5328999415833104 3.713361967325374 8.271199230937128 -0.2704995929513019 -0.28301623736107384 -0.22964322105657226
Ni 9.217658262034856 1.3715142619487302 0.5383845666620471 -1.1378519884397178 -0.9582840867729819 0.18177442239975145
Ni 4.590709214857719 4.21361485023917 11.501265215613056 -0.39834075566770755 -1.4993295525324888 0.7019821254783006
Ni 1.5730180104481915 5.63426584532008 7.634804643600277 0.1706410314907513 1.2689643657082275 2.803671526409062
Ni 8.407714532415756 3.602292572425434 3.460445939991609 -1.3878652885122098 -0.6285601609427239 -0.034769285160385285
Ni 3.432163633162997 3.9753664085343816 1.913614604731066 -0.673248247878718 -0.3936857733941994 1.400496347012659
Ni 2.2019094470915546 0.4946893159510807 5.0763321472267595 0.2252270942667476 -0.05829256509330606 0.05008457536121697
Ni 3.3564345002766744 6.066793935211417 6.263782391533087 0.689594036226593 0.0013264321209073928 0.22085981843698738
Ni 0.9819819609591555 8.647973238375345 10.43064436995045 -0.5993172049172065 0.40636825395787435 0.8867675667902342
Ni 0.8789031369898269 3.061981273036982 1.7711786619540533 0.9500316169562025 1.3141389053623367 0.4498916311618058
Ni 7.142689200238447 4.40875735157618 5.2538063534147295 -1.2430669291161753 0.15799248948880532 -0.009887948537673292
Ni 8.78306483215571 2.894330741759916 5.945605292300097 -0.8020093513062316 0.5372137507182425 1.361900489017332
Ni 6.992589469213338 6.37603499676382 8.587696520313367 -0.42349000123982544 -0.46831615641558055 -0.4351751508872376
Ni 3.802474503332698 1.2101882606787762 7.502740379277597 -0.5671223653522168 -0.7752323403227036 -1.2454104896476874
Ni 4.445052259628607 7.488206811265608 4.6514963013789075 -0.040301527832524144 0.0018126277287065558 1.5142254958077146
Ni 8.729641371137722 5.348707348961218 9.626758053033372 -1.295416132141853 -1.3189543244731092 -0.004338993694986076
Ni 7.190155302802712 1.3910294300113148 2.661733070261772 0.9118610194237521 -0.1888040755530232 0.17550735844411708
Ni 0.0836325005730044 7.322529827088003 8.220710388559596 -0.7655667922084816 0.7835251764591151 1.0823817232865551
Ni 7.059699249883873 8.686746554413142 1.0473752146175994 -0.36453383442059156 -0.1683463219193036 -0.28184150032668237
Ni 9.036073570306705 5.7742224621828395 4.354909807414029 0.43851732788659314 0.4394115575660884 -1.1893002769176808
Ni 4.378217857623114 8.675960890032362 0.7100179913644925 -0.08038836855108092 0.9385902078884804 1.2215449958839995
Ni 3.373599770397574 6.621452463048514 8.953754625965948 2.110620899092436 -1.0112950917523744 -0.16060010231498148
Ni 8.849495345452477 8.620141634628517 12.725014957616228 0.3333160140568905 -0.20663930396223124 -0.8005893310302535
Ni 5.220215663853006 6.01319606770557 10.303242266426919 0.2701203552350122 1.3446159909052713 0.19937568042128245
P 0.8988671722764284 0.7348360345868865 2.449248138529352 0.21817507251597268 0.3542630486222028 0.6652462035098479
Ni 5.906174739181735 8.524052839106817 10.41188924700338 -0.48088088045446864 -1.4107180247406672 -0.0608847513005145
P 7.472574482380104 6.865327808808977 10.645103766711214 -0.3566590596582051 0.32518824274343355 0.7015473519337272
Ni 4.732125338645196 1.3877891410526635 4.98717830441968 -0.012439511314933415 -0.5767634879864066 -0.6138346818070912
P 7.740325158399637 7.820965210812527 5.02092687774936 -0.7171176955681585 -0.8589189200090821 -0.3944905286836819
P 2.2866434623247236 5.1993052438875464 3.9385914236758994 0.22402510353884644 -0.0025875582215181244 0.06964167155753813
P 5.998362336948685 2.807173394274384 3.853374577850025 0.3128821716825708 0.8231841856116339 0.90601818748973
Ni 3.526820459626483 0.2309867063076529 9.882947414765594 0.10442329801309756 -0.3084824999529784 0.011054200931632575
Ni 4.876634882769968 1.6957909986123814 2.314160216464521 1.3112716111168707 -0.41973824750687716 -1.1486830176169507
Ni 5.178899684807996 7.782302046240746 8.223062122359046 -1.2816455607203219 0.7658964076337583 -0.30520948562866146
Ni 2.514399976891444 1.4065516074308022 0.8920506323877759 0.3319618140218412 0.18988985241803427 -1.5767917485757101
Ni 6.47557520488737 6.314772423080994 3.6939027929246815 0.08043644818019695 -0.6715376929455144 -0.14871029285593096
Ni 1.329619987707133 4.564539062389972 5.888453204157452 -0.05735102711564317 -1.1751381264846859 -2.4044357697309104
Ni 2.715619167437029 -0.05026027808554805 12.254138552760141 -0.5510244313490897 1.4654406130945279 -0.18542873132288712
Ni 1.169845286250244 4.223344896403958 10.999151690852466 -1.2820147711342824 -1.6870141697690881 1.1899260834271377
Ni 4.017627854329367 5.64052612030535 0.24736163965988456 1.8603764568457446 0.33292417793511053 1.6350573170858227
Ni 8.811566523987471 0.9454942878411999 4.23704590291864 0.059400967666136416 -0.21679773255247178 0.6300711982706116
Ni 3.8466911376494757 6.4236112507941 2.7296588897097114 -0.5480635489485529 -0.7823776931182332 -0.3578271118243773
Ni 7.567552583952804 0.7162525643410247 10.97265842741774 0.8092776028328708 0.06566237519481595 -0.8463549673011423
Ni 8.436289658558195 6.091899290174338 6.569047903091178 -0.7748978398014204 -0.6299043336754442 -0.3386808779132296
Ni 8.07794858102895 1.8032712915779516 8.223854294985482 -0.3872011941111203 -0.013123681866151591 -0.07927790909572154
Ni 4.920961668552763 1.4946819595328125 11.26451666970386 -0.4119586035614583 -0.2234987987217312 1.2151308648275396
Ni 4.462557163436391 4.706579377818209 4.547242528438736 0.7710851509235495 0.22404952901887867 -0.49676849821900254
Ni 6.2239066429062415 8.618865713480492 3.3779424919452734 -0.5651495578965622 0.24104889179035258 0.5336954531523389
Ni 2.9820113087090254 3.4070123817559037 7.502055604330528 0.4376981744194075 1.7645288163168 1.4813829953563973
Ni 6.041789552425678 3.244658300136462 9.721527784749526 0.6223877135834248 0.007352069489697015 -0.17339056921143042
Ni 1.863404812734109 8.279608377438601 1.3196439366015749 0.2508864467060647 -0.2807420966149165 -0.14884296177905335
Ni 7.277496236064937 3.91192834339773 7.819748955041929 0.6273586844354551 1.5584456419683546 -0.5349444950680916
Ni 4.599383642806515 2.7963601920271013 0.1188442525429358 0.4959274903749459 -0.9743511675381735 -0.21141949895969395
Ni 2.122517777960184 8.261158006880843 8.438220063000134 -0.12867497147161067 1.5028861595354956 -1.241472588045862
Ni 2.9781560073984488 4.533531424706336 9.765634267600285 1.1750787340016602 -1.3981625566731597 -1.3898103280537226
Ni 1.3905062105477366 1.7836735099158545 7.0226341994982135 -0.31996376111970054 -0.99424662091052 -0.05092918274969938
P 1.8042167583279263 7.298994130515817 12.781051762165456 -1.6116775047093015 0.38859987423085973 0.8687209937011684
Ni 6.989220670211001 4.61158291766784 11.283392041334665 1.6088397781501904 1.6712633346927346 0.47654651474517284
P 8.176442350225344 2.86410334362723 10.195440698352133 1.1419706385937816 0.27803472498608245 0.6777047409881748
Ni 5.750539896989299 4.08475599357757 1.863704975479004 -0.48745210591408306 1.459814782267318 1.6645931217614105
P 2.5715961256204953 2.149128536291996 11.680337535987148 0.7036857384329688 0.3004709425024115 0.43472546494432873
P 3.2523046477357718 8.388520639462387 6.655890400969679 1.3059219167691833 -0.3637216229319413 -1.545163580147468
P 8.782816991357173 4.968905094136431 1.8962978763443938 0.3219633080482326 0.08064882130131917 -0.7635813863473365
Ni 6.870275445490884 6.88768855641032 12.76185327956767 -0.3341665349826438 -0.6465267727234737 0.23490086991108577
Ni 5.87953644298342 8.703012254228241 6.100239592009551 0.28060788502989736 -0.03311863693083974 0.16559806975020513
Ni 8.945198610843118 3.9648194056633046 13.129967545919225 0.7526274584389941 0.27441101219056613 -0.32971724096203864
Ni 7.346864121788808 8.640996978860969 8.341449246318014 1.0069247305988207 0.37353295259540836 0.26632360719674136
Ni 1.4179247462970026 6.338473346852204 9.921169055544425 0.8277826036155939 0.7960996706900161 1.3238486764509327
Ni 5.054189866699683 4.878424844092737 8.247419365281939 -0.9150551008810176 0.8799659704873685 0.39829730402428176
Ni 5.889284847725877 6.337362652903204 6.44931693124681 0.15904869866746157 -1.2035714421247143 -1.0115429460971224
Ni 2.8488749034504526 5.798575115461314 11.889530774743443 -0.9351107339803122 -0.09445024596078572 -2.5308044616668477
Ni 0.5118958928717366 1.6091109741462548 11.730234314234844 -0.535268968287046 0.6591871417999615 -0.24814230830202427
Ni 2.866609289479104 1.9738041195491156 2.989327201910286 -2.0511924206224736 0.3787574342191412 2.3131292116054287
Ni 1.8106330812233855 5.637304189924368 1.491573852333381 -0.46857738049676717 -0.079992675774559 0.39559970258746063
Ni 1.2700922996140658 7.566350097115459 6.067123471680583 0.739312743607959 -0.9112141298683727 -0.5684624243198791
Ni 1.6682072356640907 2.133854199671046 9.589664546852328 0.8106973659985329 -0.5451803138634869 -0.00888264720161051
Ni 3.631969213228038 8.991967087455944 3.1855161421744524 -0.06047466034628939 -0.3672527760136514 -0.9991581992795244
Ni 6.915474263712975 2.506413995605249 12.258088400745715 0.5075895000939065 0.32162212265872997 1.048416164974388
Ni 9.223900178442456 6.163084675087481 12.042916691171378 -0.2806569931002779 0.393508881496703 -0.7612481102284696
Ni 4.447907018456201 7.625125083524079 12.164864461269326 0.4853558855066866 -0.7846060682281197 -1.2134689037440842
Ni 7.558841438848669 2.994284017881027 1.2058886817885999 0.3608273321032818 0.32233740355819973 -0.6866454951212303
Ni 3.0643678881340057 2.943632702091121 5.278821751347069 1.2017726983530788 -0.03823873176622447 0.43510573110188294
Ni 2.524175919500405 3.76075463557896 13.189376821186324 -1.5528609487917258 -0.24788339821368274 -0.7841574107264753
Ni -0.4091658818781269 -0.11404807412680203 6.386992313845809 -0.22686180165669315 1.1591450934905394 0.6809345607793821
Ni 1.1048834591670313 2.6547054067299216 4.405853942517763 0.5894097159955074 0.12330445118831668 -1.5837180433818983
Ni 5.793379637980871 1.0403897758143883 8.58049536822254 -0.0007412490413987233 0.6182328108747868 0.14650042968880575
Ni 5.366322404235018 3.4644471919946573 6.61924025443935 -0.9345949706861582 -1.5286948930684834 -1.6529280267186566
Ni 9.043316029197289 6.881281412803696 0.9030520100561709 -0.9888257070052647 -0.26670901556061805 0.3715172077169601
P 5.4163403490953295 6.952182239762963 1.534632060399219 2.4637272084023767 0.7611470658742311 -0.4333892626314084
Ni 6.9593329057652 1.5429099430703568 5.9621032281227135 -0.5127605027718846 0.6949473301187064 0.0160609101176046
P 0.4317065435406304 0.45046258441658477 8.578440125452449 0.19912679763526994 -0.6025796777185622 -0.16751765537042118
Ni 1.835637464009124 7.384187110190722 3.60449468381688 -0.0743519325490139 -0.31664035317342243 0.7480095000510086
P 5.92582759657684 4.532384013601997 13.187079245190997 1.0696593906238805 0.3057082796419509 -0.07619489929502361
P 5.797023815648249 0.9666250107386927 13.283702275322879 0.35868560316993064 -0.8142622005316558 0.7782083922318921
P 4.207363754542735 2.3842560197929847 9.413964697196107 -2.391755346049765 0.28790647557383964 -1.5988261026679305
Ni 8.770672792228858 8.03429188333109 3.0801333167076126 -0.40167341958536634 0.08413549429833897 -0.6706828011443868
