# total energy = -340871.2245848817 ev
CRYSTAL
PRIMVEC
9.20055313016993 0.00000000000000 0.00000000000000
0.00000000000000 9.20055313016993 0.00000000000000
0.00000000000000 0.00000000000000 13.46593951216415
PRIMCOORD
 96 1
Ni 5.10554343094047 9.15761430943415 6.442873293651787 -0.9582498911009368 -2.5178167911579283 -0.5321916149133028
Ni 6.481366568513377 0.2528808874422142 2.657355324791707 0.06861991516124312 -0.5255849082300625 0.7755562993210257
Ni 3.763992354378945 6.761422210157798 12.54139563914647 0.13172378560026346 -1.022461392781839 -0.19075837106591664
Ni 5.538291455013052 5.988088104335054 4.640362536459506 0.547961733263366 -0.35449933300272496 0.9927839203220643
Ni 8.28783080345508 6.363433876421055 4.261633720928167 2.056829307193277 -1.9300911477330631 0.0550750865972729
Ni 3.4346953515176333 4.310726033181732 0.5806643992870498 -1.9285443720712334 0.5451386619922741 1.110495965024268
Ni 7.344755689954754 4.692788209170636 1.5633147727160623 0.9114892379066303 -1.1084267412000652 0.09041927042452169
Ni 4.943724099646995 8.241846438103432 0.94739845349207 1.160888558544207 -0.1906447283061878 -0.0964356518219307
Ni 0.3505530411310018 -0.1691227304963833 9.385827593446132 2.100577655923821 2.01219855585778 0.006759430211020617
Ni 2.92140568392998 1.8809519143908706 -0.057819037050692614 2.2820247768911406 -1.1159878413767748 2.1402281804359076
Ni 7.819513440356993 0.07965839039907335 0.6361924985681225 -0.3416178490543665 -0.22542789742364402 -1.1699349850171916
Ni 8.415672491442503 6.762967903110794 0.9463219887569473 1.2261732386846302 0.08835621724790589 -0.4231984381413357
Ni 3.721568603151164 4.221931493364054 5.677886849830554 -0.33712561761096776 0.4080446132190328 0.32756188518193263
Ni 3.7653816379259832 2.11047811735757 11.324491818469513 2.320005369899972 -0.23628129519838012 -1.2292498207274247
Ni 2.2840833574176433 2.649777749100707 7.2369592474238384 1.6471751833952792 0.14461632529221546 0.6560665938931088
Ni 3.315520584730939 5.846197171471286 7.653420452059549 2.0112037960446782 -0.5076887446759322 0.20251654004310932
Ni 4.426146974225435 8.30834803729545 3.8292555590979087 0.6022498051829693 -1.6581010862791639 0.7689264527093338
Ni 2.643291359030097 4.036843962796007 3.3092678887139364 2.1072761509899194 0.14016291750655216 -0.6794561764616428
Ni 8.025927853455077 2.6322138928669543 9.484613014083209 0.23156460644900118 -1.238439457646493 0.821792704580746
Ni 4.867847136650789 5.432567897138744 2.632645398816333 -1.8177722490219723 -0.24444274796324997 -2.458863709662488
Ni 4.9233724757658734 2.1310873567308577 6.310839833584688 -0.3605501671824952 1.94841257175007 1.0883065734114226
Ni 7.1932225772413405 2.306357896936719 3.887427897395 0.7363238361829642 -0.3287037120958597 0.42789841472016626
Ni 3.057334658260762 6.803726354192787 1.364045509304271 -0.06008668087925136 -0.14455616147824138 0.6179659303666454
Ni 0.30957653693599685 3.922223469888677 3.1270334497216283 -1.6884136212197762 -0.1166280676094056 0.24228713507282787
P 7.200509415448324 4.509973215265624 3.739612728266741 0.471906187759684 0.5265465008123835 0.7184693245000464
P 8.939469190889218 8.664657864621036 3.8122207346784256 -0.8225956600980155 0.5135575447518832 -1.153219986255356
P 5.564982260112117 7.469110368244644 10.644905830356668 0.1989679034599025 0.9963891211748196 0.17940720771915553
P 6.485046789830036 6.613486513781417 0.35068368898774316 -1.650951876828892 -0.9624135355603233 0.23229299997459346
P 8.439603130554076 8.748658916173765 7.585175348018763 -0.10853372063704535 -0.29231874570892236 -0.5101989126922954
P 7.420503845204878 2.4039849679143774 7.371969086480785 -0.062248464417260535 -0.35518864576026565 -1.0731098110663262
P 0.8786611198501807 6.205809997428571 6.985509966073805 0.04396303584451138 -0.20077693164418325 -1.8574811375758207
P 5.376692936998577 1.0121804692738805 4.566475653140282 1.5450406814163586 -0.3218193262712006 -1.9648810017187388
Ni 0.6700762962305974 8.499995562360443 5.782921286263318 -0.2347545741412086 -0.3380473580942888 1.0953992185921457
Ni 1.5763491965643377 5.9515067044474685 8.987733453346536 0.019634229291159735 -0.9700949633649809 1.1788145468950086
Ni 5.253359520124059 3.526305260642555 3.884398155196061 -1.731679373886947 -0.5439425848016439 -0.23997365644830285
Ni 6.764283582231499 3.4281353570206896 11.65043521965602 0.10089394470360044 -1.919360134468804 -0.8788403415233574
Ni 5.866217575433907 1.1360015154728558 12.86770154213267 -0.5187509160273646 0.6010041057013262 -2.3582345885845
Ni 4.821881172405725 8.09635808890263 8.530618683936359 -0.7343564280439483 0.44803966555473157 -1.1571506887683296
Ni 4.024230004233159 0.7299111745074897 2.360942939505398 -0.7622662670803388 0.094012901313051 -1.2596433454176177
Ni 1.7868946580903708 2.036643677192109 2.498712944549838 0.7876823931605983 -1.0485868862242973 -0.5861824673074615
Ni 6.449946679022405 6.488589002847319 9.054902092652199 0.25969787435010755 -1.0991036640269265 -0.7997632355845322
Ni 1.6382137168973672 5.515032456291769 4.787667074880079 -2.6236089444940944 -0.33621853241566607 2.031707829535301
Ni 1.6289579602859712 1.3374016270269924 11.484372593184437 -0.24658859066165922 -0.03333923758207807 -1.9028737067780066
Ni 0.27050638738302096 1.610777666981678 4.703450730380324 0.6292307046471873 -0.3217995287768587 -1.6399465268573241
Ni 1.9293560252582216 8.047171931005488 7.910930137862791 1.09309242483584 0.5081494863624345 -0.36013313424973464
Ni 6.424911973515836 5.714242836162494 11.610373250458203 -0.0732738689934867 1.082136954265601 1.053804940090127
Ni 3.0997676100418343 7.004105204331551 5.7675563622662676 0.9494672598123003 2.0621229514920483 -0.9558423101007085
Ni 1.6536246436608746 3.6501079057349473 12.553729900889252 -0.5865028267613577 0.4939554542502396 0.7539394923821983
Ni 9.239839654201594 4.269084328983741 7.946035769002395 0.5856103968540753 0.299134225968859 0.8257570885451326
Ni 7.672865821441443 8.668062069338944 10.354310954916668 -2.0199028664805727 -0.024980324094421493 1.3851257780938597
Ni 8.580785620814387 4.628126720636945 12.671475821749755 0.3077703043773022 0.47876460544241417 0.877801615846198
Ni 7.587659497407507 6.690890768624037 6.66294684816665 0.28588456004780444 -0.32145320118103343 -0.34551461300561137
Ni 8.68128326441904 3.85120439903046 5.751625604241783 0.8849533963996307 0.07689166825173209 -1.400695864617975
Ni 0.8274397995649276 1.3165347721615388 0.21376105490146347 -1.3699027904965182 0.4082099351523034 0.35430572893468015
Ni 6.785711670847744 4.238234873796851 8.112272285931189 -0.5822797898189456 1.4161854756131416 1.1443795051455905
Ni 1.0132293323491282 6.263433062694152 2.4895427530840544 -0.47613770934252836 0.4698691027249972 0.4566495187109297
P 7.777816532839252 4.806755462794257 10.009811877851568 -0.9414402757427658 1.0231046827927928 0.3402595352542591
P 3.1709246891994263 9.164974752067469 9.723715152915853 -1.1257809162077967 0.5181500492185721 -0.6608789276800876
P 4.206014536169506 2.7540384190016427 2.0923778688669143 -0.6494812273661072 2.1767059636469672 -0.9968092394313736
P 4.393954238257964 4.090584394572512 12.03296202358615 -1.1749476077404346 0.3857940293509485 -1.7374934094655623
P 6.003425426672228 1.5437332351454516 10.451548842490089 0.5429673653725682 -0.17226031226172914 0.5071002191623138
P 2.87697621208462 8.817405450368947 0.5361640831813443 -0.07091976693901335 0.633856890565289 -0.1290380112379842
P 0.9145230364703595 4.639977033276585 1.1064290970828463 0.4251761306929968 -0.013688553230686103 -0.9070566560565733
P 8.15191102967759 2.7662383526663654 13.717887869600535 -0.7043809647277804 -0.8139474975047144 0.46044729519046507
Ni 6.737703183771934 6.784211980661206 2.5436217652216926 -0.7545568142512231 1.1397474056902177 -0.04604845761863038
Ni 6.559939293624036 0.4055686695937298 8.308753781695613 1.1663256703993785 1.4599322816817888 0.31619786631936514
Ni 6.277960736341662 2.0999342832853434 1.258988991543608 0.42293515717762 0.7180175816746086 2.40323377900301
Ni 1.8761400250193394 8.65394842058956 3.6273604577766814 0.9118980433092747 0.0012508416879655876 -0.24282500985416894
Ni 0.7475449549462589 8.47561409613758 1.3052640943792722 1.4964527452053258 -0.04431913363234948 0.8191388118976667
Ni 6.98006415858048 8.053345502264182 4.603748934635399 -1.708073818652865 1.057156373060863 0.5297477813585005
Ni 5.589547737400814 4.015379071966596 0.17318569482997428 1.7487916080872012 0.7408404931063951 0.877605697785308
Ni 7.477777289445376 0.746092187581508 5.843611815996333 0.02230380570352288 0.6500594684670804 1.0292179947793823
Ni 8.564500641488175 1.7121217614891617 11.834541051187847 -1.1491347604423887 -0.20590833933347763 -0.4754841349189295
Ni 4.51766487781744 1.6530634099100843 8.717808540931546 -0.8627678614415271 0.22972343947520435 0.8727589112159679
Ni 3.225520772432055 1.692450978551622 4.587697649362793 -0.752007565466808 -0.07800367036898824 -0.142634004754864
Ni 5.140128310763767 4.27187209663111 9.960405826730756 -0.4460313768754512 -0.23953168381487777 -0.8232631184786854
Ni 1.176621958255474 6.594514972894042 13.153192870661796 1.2311730058920667 -0.86089018480284 0.7741041402555314
Ni 2.709056913958784 3.8972899704683157 10.35225095103467 2.605926696722983 0.13904525896234116 -1.0014919896190235
Ni 3.65990649499055 6.845450863370402 10.0013961317557 -0.019578436352559833 -0.3467968221521447 -0.16582638371092728
Ni 6.412463624912237 8.206203494651593 12.42051140955819 0.612810354307635 -0.8727164880138066 -0.19925689545523104
Ni 0.5929250566034977 4.308885922523403 10.495326915162401 -3.0757518335839222 0.9543626402313886 0.5278279386279684
Ni 8.726421178867856 6.8996605233647825 8.760953615537392 -0.42990901739229187 -0.26183446107713615 0.06509878938186209
Ni 4.15540229251216 8.94802570545045 11.648522424626686 -0.03341354246343923 0.2239189169782853 0.5634464591625263
Ni 1.8466154495064466 8.123628528859069 11.259989499507768 0.9317603294508405 0.374540053703684 -0.300547818486934
Ni 6.387042496167419 3.890959989803663 5.968831346295638 -0.5016613075349295 0.6882411217431244 -1.400886383362226
Ni 0.277263273720406 1.6864430172521767 7.03804052509246 -1.0309239217268957 -0.7670842572942724 1.0254449008901954
Ni 9.193560871144612 6.659930906797648 11.204442999120111 -1.817312792887051 -0.1310460428069485 -1.168226229856201
Ni 8.7069896103159 1.536989229582675 2.2370427685481142 -0.10286032440135189 0.06390939705945121 0.29784867438821605
P 2.1443177523642447 5.936169382110295 11.025575042577218 -1.2854302245737346 -0.8929040187052751 2.9216923606009355
P 5.440912798974268 6.938910083706945 6.475986084948422 -0.6247518429402272 0.841941154504163 1.8674019962339579
P 3.0123255515580283 6.4582455780914705 3.5401548535124703 1.468941941379567 0.48585853617471814 -0.4049603178667542
P 2.7655207095096173 0.3429763854953311 6.304739866752327 -0.38315916283126267 -0.46077639639510964 0.298612292027118
P 1.1556170950906457 2.683562180787632 9.342548190762228 0.2315232116881045 -2.1254607923187456 -1.250614145335814
P 1.631037285329883 3.2685517601770853 5.225512205476233 -0.1807467524661855 0.5097764804428964 -0.5336509730676486
P 4.14818905873151 3.826519314548973 7.847357074783503 0.9200389272488543 -0.3317121599048803 0.4284442599213073
P 9.235699405220352 8.72929175149485 12.218428616949813 -1.123190272662485 0.39627281739508524 0.2726400363330724
