# total energy = -340858.0786665589 ev
CRYSTAL
PRIMVEC
9.39807025413454 0.00000000000000 0.00000000000000
0.00000000000000 9.39807025413454 0.00000000000000
0.00000000000000 0.00000000000000 13.75502578842703
PRIMCOORD
 96 1
Ni 5.3660725717372975 1.9404101710300048 10.558563725354164 1.3971258878785293 -0.45553880214525416 -0.9590579888245291
Ni 7.686437325801908 5.164812896858223 3.8729334814875824 0.5880894545221872 0.17497771119289218 -0.7062594126974159
Ni 1.365539610550057 3.884682948941882 0.2870743943415216 -0.17259147034890276 -0.2080976336753126 1.0142562312632273
Ni 0.8611968684278026 6.340408109136929 4.203687287033189 -0.2860108012130236 0.47079161453926666 0.6252280112456974
Ni 5.022864443466976 3.775571353081688 2.0021949646134747 -1.5088022679096145 -3.1850669124716826 0.18774632371247021
Ni 7.52723401539091 4.182225853759602 1.0485727740937618 1.4358904102412369 -0.7295731477226919 -0.3838842139227453
Ni 6.991609796367651 8.982722556516153 4.502446302144132 -0.9579033063947954 1.0652599760046042 -0.13998371161621054
Ni 1.1991937667321901 6.503427036078439 10.415374726686986 -0.19723626548077644 0.2324441808404771 1.1682568259838202
Ni 9.388155308058682 9.243866735169659 1.0521139669723252 -1.357403886698559 0.026666453547592787 1.014357532727782
Ni 1.8226899428004795 3.7032250081263243 11.735760368807252 0.9512904290639681 0.7215852444212089 -0.7215950146132218
Ni 2.424805508999523 8.97432068169281 7.693130631449765 -0.5439474698976503 0.6495696733148555 -0.03113760194506895
Ni 8.358408748334183 7.3040580406370745 5.507361280595435 2.2418219794200103 -0.532647985724431 -0.083331767450121
Ni 3.5978444461641925 1.9108062496725877 7.5729123961418905 -1.013105662598552 -2.4970481911520093 -0.22773700517279488
Ni 5.349033870333805 8.829674982133444 9.524722426412069 -1.1552696696955331 -1.0094721796110229 -2.3745271550969367
Ni 7.095411482524056 0.8454062307564593 9.292290292247149 0.7815510834518798 1.140550104097171 -0.3958329016441893
Ni 8.915291402313148 7.68294124366065 12.70613649920121 0.5466165320893812 3.359942807979388 0.596986757011817
Ni 1.316895198821171 3.136530768783187 7.682938424239569 -0.26292846547226334 -0.5390760007379619 -0.5318388595595744
Ni 2.870020292004257 8.25092301863108 9.983823798050999 0.6373566761884313 0.8842144613510772 1.3910704257130686
Ni -0.1772570034038859 7.245113343889863 8.729049843729042 -0.8591816867521653 0.9812196125232328 -1.4535690584679224
Ni 5.597058342887327 4.720556717021253 5.105535508423375 0.8049815465606781 -1.3825878421633544 -1.086769825051922
Ni 1.7111818390208757 8.826197696132732 13.454464423273993 -0.3086064271253524 0.9499935646294154 -1.068462542102302
Ni 0.6310682012865975 3.339171959992274 4.4944410258862755 -0.5481424818156043 0.6091578451567122 1.5350727715703691
Ni 2.9373292712937236 3.9634669720336997 6.187973288935967 -1.0979291841028511 0.4293150925620348 -1.161821868991754
Ni 3.711730261722662 6.068023838437877 5.576934255013474 -0.470420604353093 2.040801564306453 -0.2657479371989294
P 1.106134074896907 8.72612704387439 11.348776969016072 -0.061124121004830216 0.5121910034216598 -0.41210258533849026
P 4.4097625331197365 8.385973288442534 5.738624294818495 -0.2915808391016333 0.19922578510697947 -1.538727337603821
P 3.9536459885992548 4.678697712028892 3.762687538545535 0.10325601717787379 0.003713444295845218 -0.04963257542546291
P 7.610782860110731 3.2832534418727084 10.894737398025747 -0.7065797721513121 -0.6584160679618919 0.40327598818579585
P 1.4838613152770026 4.6247527886664885 9.489138512940453 -2.317899122190247 0.7295165834531436 -0.5939392284347448
P 2.100788240225027 1.9519510013242611 5.8293250710154565 -0.6435113829359176 -0.6066777590473358 -0.04173800316873457
P 4.342143417511287 5.25134092985433 7.54577358861687 -1.2025980224678514 1.563532569572959 -0.3678654698969858
P 9.14697263066332 3.3983704046368355 2.5511033559664815 -0.5638866320237386 0.13484587616901292 -0.915035817607308
Ni 7.721050418614404 0.9509249443515925 11.560383919264833 1.4081523208960198 2.1669889934695195 -1.6062079969542984
Ni 9.007148141153591 3.419544256960093 12.456785019125252 -0.8053044771177357 0.5345187203845827 0.16289172656263562
Ni 5.083388016019917 4.474035935711283 9.360364274456773 0.9540042284507054 0.8554965245910944 1.2832787254483706
Ni 5.4946381730609355 9.220822666862235 11.600011822374574 0.12704720606020056 0.31446931366403263 1.7932441819736213
Ni 8.531511804677757 4.896544980938392 9.510747495917315 1.2846902610839164 1.3343292642672826 0.1462680019630255
Ni 0.93498863659103 6.016841947735498 13.091276937412013 1.7092269584207016 -0.9012030254892738 -0.353751656203423
Ni 4.924645211052257 7.5578529283377245 7.540739042372055 -0.2165272524999045 -0.6294119674200579 1.362478215897673
Ni 7.169176936090521 2.1229300937863202 2.863053502511478 0.5368530249447142 1.5709761703351977 0.5925348918880504
Ni 6.639670860814462 0.1292074895232302 1.949100566610704 -0.08201202019743295 -0.9636615490348114 -0.7542979041628816
Ni 5.820770007646676 3.7268893490717137 12.350376308275344 2.379319434279257 0.49940336473868824 -0.7231255923251353
Ni 2.8368826962244946 2.4592682326876654 1.5608239923500689 -0.08643046098010276 0.11929970090429777 -0.45342484112604486
Ni 6.940559478649083 3.2586398958298277 8.904797517047214 -0.957972469069834 -2.2799187862917316 0.21270402209907238
Ni 4.773091929842828 1.089866015255736 5.307018857374927 1.4576342296762315 1.2668588893294503 2.0309282710567986
Ni 0.4332547987763375 6.164100310830535 1.774646067761987 -0.42089935769451386 -0.7754328863692838 -0.9617591898057759
Ni 5.001944339041069 3.4181063522084467 6.857375279055824 2.78288981377702 -1.8360625626907283 0.526343640772958
Ni -0.04809838384607113 0.44770527162686585 9.321464721793125 1.833230749668888 -2.757894063063631 0.8588659552839596
Ni 3.109520714820896 8.876966071743134 1.6044827277995546 -1.2699984633996966 0.197597248364621 -0.7784408199576722
Ni 3.956296244416014 2.798519773373391 13.2474380924759 -0.8250994003564759 -0.2011566835811052 1.0820883604158527
Ni 4.704279259309809 0.4640240808475067 13.745562131499042 -0.14479681673413772 -0.5875505512995817 0.2009859623311958
Ni 3.3782679323246088 0.99658076973392 11.524043461136307 -0.8785019843473321 -0.24908538894158389 -0.09785541498759276
Ni 6.262742456407503 6.79113016132117 5.730577667051439 -1.2866633256498874 0.6719745233726169 -0.5577974884068653
Ni 3.6883008725340773 0.16495586922460875 3.6594553754476267 -0.4230040627423425 -0.897068691605926 -0.061895451953215976
Ni 3.1534848875542285 3.4823985509405384 9.228755577978996 -0.3191314950263923 -0.9150676992865079 0.2563035039565779
Ni 6.617895531993784 5.975321273272937 10.52611594793238 -0.33909636818409344 -0.21660747091853663 0.060387757059437934
P 8.496663760108456 5.981514601582314 11.658801450962295 0.27963112293892484 -1.4796708977612967 -1.2922063669553034
P 6.911416062735004 1.9486522786587204 5.000969759153842 -0.15387898154106402 -0.8244064880545091 0.003611114390026039
P 1.2122476863402702 1.605820073199288 0.4588758179523978 0.4294511039192669 -0.595849043862948 -0.2752173101419454
P 2.3230995925138194 1.399945945816566 9.37409109589634 -0.8681689778524404 -1.3701709565562403 0.3532904002962883
P 3.087266084416336 6.270589845084786 0.2592025373352704 -0.9894368582267024 -0.18430335946919227 1.4086706552933355
P 4.693358701653518 6.921255842309994 10.872907560397488 -0.5028386156724824 0.8840550529550775 0.44753470089385505
P 7.159976225294041 0.17554655461434626 13.285608354886422 -1.0985423922068178 -0.820427191691787 3.198020901529189
P 1.0991513086846656 8.082133676542442 2.62029100950336 1.3794652373739726 0.25628113535907476 0.6800608999251772
Ni 7.6195606577449615 3.172609960558147 6.63432429863661 1.6497146619876815 -1.1689255699160706 -1.8748353125835517
Ni 8.9561730079972 1.333059879689348 7.2504533274185246 0.14866966942598267 -0.35461348998308606 -0.9754965939965264
Ni 0.9943910193604983 5.604633187526717 7.20298461428069 -0.8799356314700651 -0.53488947346044 -0.8426770042289229
Ni 2.884408737590989 2.4940035004137013 3.867170584796672 2.4970908714644864 1.52895611714967 1.730704154457871
Ni 2.708843386836098 6.681266719839201 8.315119357046395 0.3633382714505936 -1.2101434389152772 0.12399042151174774
Ni 6.292741096716352 2.1621858333132824 0.5116582000221314 -1.7230587220974714 -0.007001113908181492 -0.3883990710739633
Ni 8.514191161166101 2.125119844159742 0.6678353318054819 1.4458390368135166 -0.6619245953357826 0.4366414510201189
Ni 6.7442431887331855 4.920369089078409 7.501495520336448 -1.0029791156875114 1.8090772923511358 -1.563818476244494
Ni 7.585511449148797 8.199233632134002 10.470105328724147 0.7858669372184143 -0.3582526293975701 -0.7164857184111144
Ni 3.128175884311205 6.823177580949357 3.032845618698159 0.31778372274924627 0.5160738834158337 0.12286324988584
Ni 1.211552229140128 1.449624145275393 3.0674944241776907 -1.993573484557425 -1.603628152042264 -1.561907118154394
Ni 5.125698128385343 5.634208914673317 13.518865639621243 0.3184702072933096 0.22333707633288635 0.29870896550598236
Ni 2.303871140736907 8.34610667434788 5.322108399003964 -0.456242255970182 -0.6884174994199886 -0.365872350726357
Ni 6.07890680381308 5.539711318086387 1.939692158461209 0.7286439510402032 3.315039519708794 1.2638625257052878
Ni 8.408415880252537 7.793509540413035 2.7951449263386454 -1.536150320905264 -0.10097493445318093 0.8255570567191847
Ni 0.9209610769027505 1.7361149194530114 11.243660492828589 -0.21500104566336523 -2.2157625633287967 -0.03823821754559221
Ni 5.040128698557001 7.630180477152543 1.4630257934835444 -0.6445529368265545 0.19425301448273644 -1.7312186322004444
Ni 9.164810168039947 2.632634434998862 9.278479827982157 0.0755966035893924 0.7217569941123828 0.8364274237747853
Ni 6.647132928610585 7.50921791467911 12.598090644509881 -1.468086278247491 -0.9047048679949451 0.3913506975031195
Ni 0.17909150672101853 0.09872484859536294 4.91300664082717 -0.18215108901287985 0.24296950585183313 -0.28805894199130394
Ni 2.033122134265217 4.731561857309995 3.0056654596639416 -1.063165812479737 -1.3947093080172366 -1.1649092496678262
Ni 7.256193668740781 8.848113996007493 7.307096436756076 -0.3699254377498081 -0.9016503974393375 -0.07641087196057163
Ni 3.243208264442882 5.478736638160381 12.00745012211319 0.486334190259556 0.2795776439931701 -1.2056949162256203
Ni 3.5904199706491577 7.871410144899266 12.714527096340225 1.6491791011991854 -0.05404201734706821 -0.9508093756624917
P 8.71842062625119 5.025495903143192 5.7210865558835495 0.524008307771562 -0.10970922900238525 0.6964000034048329
P 0.08034880179213841 8.567506413820269 6.875215635853534 1.0271958221430308 0.21643366434483371 0.9326201063479744
P 5.689394383311651 1.0861255832874022 7.711260448811858 -0.6454865043844173 0.32668179656982443 -0.04382548182538259
P 4.567838075098071 1.3409636567882648 2.048206037052091 1.186398015669221 -0.1648388229866774 -0.07306946629216449
P 7.448703740196441 6.227104973935337 0.374895601807083 0.27755084337112845 0.06142236897153938 0.8329060408850882
P 5.926159967679081 7.2192310583602355 3.2466808514084584 1.5919738556327874 0.7662653609374029 2.2965432822222898
P 6.946517855201656 6.703314592697772 8.302286292089711 1.096975047719698 3.448709887512467 1.7479004637314994
P 4.055605652982307 3.317171077485064 11.222134212870124 -1.844933897038429 1.5210211785733094 0.15508585736497163
