# total energy = -340878.9207102389 ev
CRYSTAL
PRIMVEC
9.13768255341830 0.00000000000000 0.00000000000000
0.00000000000000 9.13768255341830 0.00000000000000
0.00000000000000 0.00000000000000 13.37392206803567
PRIMCOORD
 96 1
Ni 0.11796108181459024 0.8637448998143378 11.229948352813485 0.4740692568492739 0.8232057828781887 0.3414514986798313
Ni 0.39773498268964913 0.34982337320823337 8.771700739920867 -0.02705366168368244 -0.6155534642704109 1.1817561460218355
Ni 9.29877961523719 6.640152681467067 8.745140238847187 -0.42849208244010717 0.8184731532892098 1.5439803584726441
Ni 6.105123108801788 4.785477309765473 0.3863220175260521 0.7527755539810842 -0.3743734462188327 -0.4347419200045609
Ni 4.648220184287178 4.843081258837784 9.620088850900984 -0.15028509354221858 0.6877963208962219 0.28031889303456886
Ni 0.35516891734010225 4.625302877137217 5.450635701964995 -2.1379602103373374 -3.1733797059417412 -1.8375651153781838
Ni 6.131384807665021 2.7956921679206084 8.825357210249644 -0.43615962628769395 -0.008540433370843356 -1.2182323865709987
Ni 7.931636143726594 6.1074075293709615 6.8599925242892565 0.30945951915426706 0.48118118530370685 -1.257720160252976
Ni 4.5675435874662025 5.709772147418128 12.046359144666296 -0.10473722970909059 1.1258858172167772 0.05319278197289549
Ni 1.67276239293707 2.519103663087207 9.288536273405011 0.23547371169542028 -0.026603975740773538 0.04807834356446559
Ni 1.72735090685807 0.7025543569169124 6.8216096898859835 -1.0484349340274652 1.5563851598949001 -1.30509196466872
Ni 8.127401848822593 2.7824882170307785 13.055836370270567 1.0885032628032607 -1.303971735021348 0.22194276708852098
Ni 1.4132979046902023 1.6481546145659196 -0.28639597922098264 -0.8999167025776824 2.82694926599008 0.847539731637863
Ni 8.660622160397086 2.4424659218325324 3.877648575575429 1.735768713464972 1.3549004035504149 -0.46321920150864737
Ni 2.0950055532610534 2.933232561549482 4.831195875500481 -0.6875140137691127 -1.6183225208296452 -0.8700258285555209
Ni 7.022546409382366 2.242579122029742 1.7920658002781071 1.087407715746237 0.46660945813711896 1.7953123773565598
Ni 2.6047511590667063 7.045006832418492 2.7676257768077277 -1.4539105009677413 -0.8671878448860937 0.42282768506547824
Ni 4.9752030068765745 9.116455440770215 10.045193019545803 -0.510769697594101 0.38582771080236133 -1.7080445080768258
Ni 6.215177354142351 5.047345008451113 7.846265519520079 -1.0054347763168554 1.2186674172258884 0.07160162349738636
Ni 3.884712003975317 7.58078569503046 0.7031647540929958 0.6638912321438502 0.42647685178229133 -0.2665354660972313
Ni 4.235599003400559 7.34591070979019 8.652673290584586 1.7059760555835717 -0.9851983946653226 -0.36588134958742147
Ni 8.302525529655531 2.76872686752207 9.818304368615367 1.9051563321645963 -0.5315974329727297 1.0135468639010288
Ni 6.294254856564903 1.8387849422224138 11.095112713138516 0.8923833703151147 -0.12337361386335526 0.06922232463193241
Ni 3.5082851825867025 0.07692831955107343 2.639744827113553 -0.2668113454664373 -0.017399426423370033 0.236183079057619
P 7.0780121408019285 1.3768842408175568 4.682785295035247 -1.644571170113529 -0.5820311641432493 1.1827750742046534
P 2.63031839407691 5.092110513924661 8.622421165871119 -0.24931550267451902 0.18462320470245622 -0.08422985378435817
P 2.6734848051520363 5.97191397657207 13.097669593501523 -0.5758252924428534 -0.8804179704231224 -0.6777821311933295
P 1.0512172444760048 3.0221422101017628 11.348026396961219 -0.9160544886798093 -0.05475935512906698 0.4334509691072793
P 5.090383491974365 7.442532562184004 2.539172754671521 0.7301606447950457 1.4478033596287387 -1.5228556606788872
P 5.425827808351985 7.270296388950506 6.533869557602098 1.8231957340303893 -0.7410999174153688 0.13142502341292203
P 0.34408308120201103 2.720461629736546 1.712236266604182 1.5235729984608857 0.3008887467661205 -0.01513094210416749
P 0.6529522762143072 7.899654255758148 10.71830210909428 -0.7060100156907712 -0.07089354168676823 -0.19880772373295438
Ni 8.158853751218992 0.6858260019729595 6.802364817243027 -0.35516319183896894 0.7800367036898824 -0.3739245316068721
Ni 7.317200112076802 4.228014727110898 11.495567983841937 -0.1967544407483515 1.2853276375575993 -0.2012674981273566
Ni 8.849589429879222 -0.061895918437675924 4.604092489036543 1.0091597905769265 -0.031149943240243134 0.9220860395858701
Ni 8.904625690231779 0.8324355452614565 1.251901763941551 -2.356731264566096 -1.5279772981761686 0.18843280825653355
Ni 8.571420106011951 4.567351696138392 1.9436590354803158 -3.2658062366042793 1.2298476022124238 -0.26719392561683664
Ni 7.82377494213244 7.0523535289689585 1.8524887243327794 -0.35196679638885836 -0.6458287182151845 0.5242489630274585
Ni 0.19773761693131076 6.7169823140495515 4.588191094338632 0.4711286861637112 0.9469462931626594 -1.12421202905878
Ni 3.8843008082728656 4.045946407747671 4.011320988296576 0.7655310538745396 1.2108090975237342 -0.9627894308425033
Ni 4.124247207176705 2.518363510822794 10.137405940241111 -0.48339027713988364 -0.8369244180158618 -0.3604396097465599
Ni 5.754784370313148 2.384560429245091 13.356174625109338 -1.4037804170805694 -0.03634485717762128 -0.9034314005991602
Ni 7.3877521569351945 8.82094279594177 10.631331476721114 -0.7248677718272225 -0.07732824156851843 0.2918366638661813
Ni 2.4733787009746053 3.473589402982076 6.991150246847856 0.4559352662527244 1.5022603530260386 1.315899339696869
Ni 2.755787909418264 4.363846374154028 11.035879515316271 -1.0465024928914428 0.7409698195954078 -1.1156898505203816
Ni 5.8785816897978656 5.070490757657992 5.3777608582718655 -0.03658191288909184 0.8190105138499185 0.6746932078553606
Ni 6.04643177553855 5.505426158664309 2.6661847107811814 -0.3866890303613921 -0.17423517659991283 0.5582376612680773
Ni 5.363344336943918 9.095859104918535 4.989328949908123 0.8180424935096943 0.7396361883856488 -0.376143650745378
Ni 0.5143080505664088 5.20295059994102 10.664512228604263 -0.1280890170611536 -1.6701469617001041 -0.04747979074851823
Ni 3.653044345214168 5.2824575734305785 1.5422406530649293 0.49895470723704394 -0.9799093783522413 -0.013420130060647857
Ni 7.1708053043218065 3.1643062709626455 6.454254759461675 0.6380953541266687 -0.6448591552130636 -0.4602408356066138
Ni 7.8721498321052845 6.627524404560669 11.005788213810874 0.29135535335438856 -1.382950881929728 1.286696749990984
Ni 5.838001242807047 0.19942077800667868 7.657773409516333 -0.1674945154419696 -0.5426148671291559 -0.39205003756298934
Ni 1.4331997766888527 1.1176481946276065 3.3896342057602213 0.26792463313527404 -0.5208363378014836 -1.1866633535154658
Ni 2.3727819567904262 8.002078536397667 12.238061322453847 -0.8026829803344886 -1.1623193774534628 -0.03146516048781677
Ni 3.4785603021406004 3.409369771941436 12.897542472654855 0.11713637470439182 -0.6967764129076451 1.9365104209958457
P 4.986899240190748 3.680841174699886 6.902107188134335 -1.1653586785004189 -1.3852707883121562 -0.48134496457508064
P 0.3558295717687076 8.115458898086947 2.6552587840829323 1.167042751071061 0.826213716466577 0.20216532735127762
P 8.101633584802302 5.888825031630046 13.388900320415107 0.5389086219221622 -0.7127000261164371 -1.2001508464789394
P 0.12420211880957564 7.915599511330988 6.6813974379594026 0.6113435399541213 0.4504097084488049 0.07340859479913808
P 7.446626243843966 0.993960527330209 8.954388594142454 -0.9664378262283678 0.0005653855851667683 -0.5021025088374061
P 7.786228205657483 4.686406558521504 9.160173767854854 -0.1302117198311112 1.8463803996769685 1.1939909975251308
P 0.4810761276625099 2.684970871773847 6.414587166930296 -0.7027611697361703 -2.1687180603454843 -0.4998700199624617
P 3.448214059299683 1.1014379462687425 0.2397673003312154 0.04175908621465711 0.2982528518051702 1.269369828676762
Ni 8.86816633794775 8.101706686260517 12.87888606675052 -0.6311909136973517 0.4493478428431938 -0.5251064259317473
Ni 0.9942986215744468 6.599937741767314 0.9113915165097294 -0.30969914596889886 -0.01748195883484731 0.7972931767774849
Ni 1.4535859458481681 4.494131448055202 2.8376916969690003 1.504496698555725 0.10574150260388884 0.8690639788628839
Ni 2.587197671413168 0.8968781357496484 11.35923376427359 0.7575218104168179 1.1387508461049034 -2.948369612781806
Ni 3.880161438201521 1.6812330244075702 7.108185681447817 1.3013983178672168 -0.30886765120653903 0.0966156290432207
Ni 1.6971325915690263 8.95104511619741 0.8984534721741512 1.6176172672325042 -1.9207243618061824 1.993068519896548
Ni 4.639886618050828 9.308465558450493 12.213894894136661 1.7089953020258697 -0.9122155745496934 1.611976266896643
Ni 2.1428413199795724 8.178444942020235 4.819332422600643 -1.4966039260712096 -0.16756419233764044 -0.7852850965730154
Ni 0.27524069669758855 4.13248025890801 7.894077528264679 -0.1413566807043372 0.5473891485893476 1.181488494182746
Ni 3.6321830165764637 8.363135776196875 6.396760462576685 1.321715175047698 0.7151068357857169 0.9858182876375087
Ni 7.2393105083502185 9.009416630580963 3.022720625389878 -1.2544376328469622 0.7777242535066219 -0.604938664869042
Ni 6.833487763077463 7.097109896760229 8.973072413093622 -0.9571286330123001 0.18247607645246636 -1.0162382946902626
Ni 6.3235868166731075 7.285748209680404 13.276372504482241 -0.4069449523969508 0.7737272165320869 -0.8231175940397567
Ni 1.2990037747732515 5.981170448718365 6.812581659796605 1.6374425294885477 1.605921576062131 0.7431912527267588
Ni 2.838575310845157 2.687374082212619 1.8673475094829197 0.13924940455334728 -0.450783803958772 0.12213717035309289
Ni 3.6321647412119105 5.815961153155648 6.463027848215533 0.48826688850589456 -0.8703089070135785 0.6525781211238761
Ni 6.458988992649233 3.3837385731552954 3.8871170419505443 0.45085502351633966 0.8208717354283734 0.3019724667486025
Ni 2.400222416667353 6.723881264168459 10.12857893916182 0.22851707787192904 -0.5977118081032997 -0.10898289235932199
Ni 7.0048467188123995 7.254369408742219 4.718934879890096 -0.6798084175947389 -0.23657491517939902 0.21071553091413386
Ni 5.509748282381189 0.44844272294773485 1.4291910754740649 -0.003816288422296653 -1.8619535715248772 -1.6916938346329444
Ni 4.9745999198463124 1.7704350787927055 3.282428175985306 -0.4742471771880349 -0.07425448773920115 0.9545922397436913
Ni 4.410220111708275 6.818319210498143 4.364338895228743 -0.39394596903412155 -0.5472017151688899 0.8177709850158625
Ni 0.9282331787139133 4.365463743917004 13.43891907942953 0.7104785929850861 -0.4425562738426572 -1.0910178016949985
Ni 2.1344803406963933 7.895825566884211 7.984111111736994 -1.021769766031453 0.3938996891772184 1.189508793384061
P 5.6812808540793815 7.225896390768026 10.925691859814469 -0.2752455922767196 0.4967368736501187 -0.4122522235424771
P 2.168838026056781 5.496334164798994 4.68932513424068 1.7051684720806117 0.6881267076524471 -0.3777400486982204
P 7.791464097602033 5.2675905643663885 4.021164099645035 -0.4759358777443674 -0.7156251701830321 0.1550773727245394
P 5.195046504771675 3.712923577173376 11.590134771491723 0.47231087939727046 -0.4227947749450138 -0.34941086273622407
P 3.0273689643640345 0.756271135948715 9.031864260861902 0.07971139708871433 -0.7143889837830858 -0.37057489840834884
P 5.024464252030258 3.4653380758862173 1.9177939120278917 -0.07563337036459877 0.5351121309942074 0.3379316584520309
P 7.136374517503205 0.522000151506934 12.813580879055406 -0.11961800347566497 0.4088892206075151 0.4404392274996544
P 3.308206491456101 0.8897169341493992 4.804140112047403 -0.10594899062900463 1.0104407141718792 0.057051750707669484
