# total energy = -381170.29423950374 ev
CRYSTAL
PRIMVEC
9.20174574222574 0.00000000000000 0.00000000000000

0.00000000000000 9.20174574222574 0.00000000000000

0.00000000000000 0.00000000000000 13.46768502045692

PRIMCOORD
 96 1
Ni 1.960137428861496 3.050958352466008 13.520478051166869 2.5037127476563783 1.6547833347598402 -0.8333611261446356
Ni 4.866287911954993 4.230171243611496 0.3843394273837415 0.2493041898206093 -0.06856977864959804 -0.24955281549630573
Ni 3.487277520162285 5.4653859580397635 9.48269138200532 1.5043434608073125 0.03172767012058407 -0.5557367492230945
Ni 5.887819691734443 3.4600955638728785 3.051979746219605 0.3196984232734559 0.8185060634096742 -0.7009089470187799
Ni 6.949673520417138 2.769826623097708 0.9432460893517637 -0.330051998593638 -0.21483392395788165 -0.746998799398307
Ni 8.12032878822168 3.1138522831491815 5.008941652699423 -1.6883004926806797 -0.8161100523736718 -0.034408302276540736
Ni 6.936653050495163 1.773700862720781 6.7949314465727095 0.20392524746517782 1.3975182382209417 0.07788899916799488
Ni 3.659736634846125 7.143213834105389 4.433791149351005 1.5001163100998423 1.0756775717935023 1.5741658809170889
Ni 5.82379394635134 3.7631642545796833 6.235820505853969 2.2945712460975836 0.11629613819128358 -0.43968126628770726
Ni 7.21425130958075 3.5121774435607738 9.590378489743742 0.7193188169845354 -0.8676257037544607 0.3421456965333785
Ni 2.726486401661315 2.2341470071912033 8.184716162204033 0.8614925942735292 -1.9906619673375847 0.4434808425394556
Ni 7.948348164305292 4.484323455092002 2.539224438946748 0.2931150163579726 -0.1478101496391648 -0.2814005561345218
Ni 7.613441434071965 9.149617639481148 5.54817406255425 2.5681610479384354 0.6226026578077084 2.1253497206621783
Ni 5.512636921325512 6.6607663160777655 11.15638767432892 0.5790767095006156 -1.1473262464787402 0.20611788424112243
Ni 1.8418213848638003 7.206301001444648 2.138183843429874 0.35390360840025503 0.6038518595627664 -0.21437909580865014
Ni 4.862220740431663 3.447700812646801 10.459650826622191 -0.8938578979781121 0.42572171878382165 0.36640508330137544
Ni -0.11504850416073945 4.37360805290035 13.243003095471353 0.05592406486112949 -0.7975436022253942 0.01126683116307092
Ni 1.1340231188579872 4.00008159668644 2.164902951919228 0.00883482468281059 0.10573944572135982 -0.17663195896686357
Ni 4.884148500024641 5.908459206953516 6.844883122170898 -0.26788452392595796 0.1390246901370509 -0.0661691396279054
Ni 4.798682687561537 8.662191977122934 2.9427430645342847 -2.0435511020271324 -0.46143537013534724 -0.6054356591101187
Ni 0.2928032233958836 6.698971963509592 0.454282815315837 -0.05686971660385044 -1.2665290167938574 -0.26846430768882795
Ni 0.9894176878870908 -0.34040477318624596 0.8238313569380372 -0.8545367317809863 1.770719261398228 -0.1557034363443125
Ni 8.170321871674744 6.111541730754196 11.977970124659938 0.5159201314467889 1.427483160014148 -1.4847771086396107
Ni 5.3813648196245385 3.1047977655497316 8.252525665348209 0.07355977566502171 1.6756357527288173 2.4724252503970066
P 5.751413016028904 5.186297016178657 9.441937771236818 -1.0797401718986501 0.031023187854391735 -0.7296919326887433
Ni 3.320817943562634 8.887625540810875 1.068869239473162 -0.3189453471575152 -0.8983249326105304 0.5438184005189537
P 3.2929642598496907 -0.47354758975304145 8.908765630986665 -0.07249148230150741 0.4523246660833307 -1.7366742559983768
Ni 2.6569764159435834 5.851785656247201 6.297394906228442 -0.8993672578321156 -1.4204565921846697 -1.5121053641409186
P 0.5726329057719857 0.4666361586870382 5.441187207650501 0.5541737756113487 -0.433724277373324 -0.016547877056352148
P 6.109278101354334 7.500766060082871 5.160749289895005 -1.0320742332812547 -1.2090525198439437 1.668315050697688
P 3.7301759968621737 2.9225111866420983 12.212308217495224 -0.22489953572399976 0.26764309733911323 0.1007929003493619
Ni 0.8187759179450109 1.4677336221726884 12.072459168787699 -0.5118508464734217 0.06436705342216012 -0.8626282505398692
Ni 5.753050926732869 1.8775425610030951 4.693232524160946 1.1735676966737725 0.14175263059117524 0.9157058470911391
Ni 3.9982596510719155 1.7751639402597166 0.6867078652558737 1.147098189628334 2.3057558019594935 0.8588451293483531
Ni 7.138254093265853 8.42430845173575 10.150526467183477 0.0622867738543637 -2.141756958375608 -1.0361350336141897
Ni 2.3239100348158357 -0.22818212507712357 3.435094421273583 0.21964728618612497 0.5758314630904405 1.337485807618393
Ni 5.085363069483158 7.31636307970382 8.91162093262397 -0.20556432573049757 0.15614746586026657 -0.3246645090294796
Ni 3.7777858282235113 1.8419042005735513 3.368066146324725 0.6367686648954453 -0.8443819027351716 -0.6046561006316168
Ni 8.038755314116878 1.7965303933754926 2.8609938370898975 -0.775368865900568 1.3986263836834558 -0.17253979117536092
Ni 7.158875204993868 5.71520414737663 0.4750447137504302 -1.291997336268291 -0.23851404118364083 1.2173355857883421
Ni 4.595406927104771 9.267445990965864 5.343923837246079 0.11757371935212653 -1.2604619846641711 -1.091422750442901
Ni 2.5622260422428313 3.7218576189049557 4.563942478446681 0.6638914892541663 -0.7962266831861836 1.6089619055503515
Ni 2.7410987735596155 1.5098684149449273 5.356071061517456 0.024923759824873208 -0.8735860351029536 2.269008824247447
Ni 1.7437307775364215 6.712240880560819 8.29070646806711 -1.0865271129134966 0.98201408340007 0.9621880498130784
Ni 0.9684193045924306 7.2811572013140875 5.067512603333592 0.08359633396541731 0.2346771839360539 0.12307022369032351
Ni 8.13328484592496 1.1813200908713761 10.429388125930044 2.971293054347199 1.6601620825732506 0.7937579099307168
Ni 7.591808130335879 7.911209919354702 1.6133346820097032 -0.3475905216980336 -0.19170145170547628 -0.7248798560120806
Ni 5.923651288820074 2.148175098724064 12.207890459467283 -1.017269049947622 -1.4991709154674375 0.41531235052503956
Ni 6.006752252682509 8.695511497679448 7.169805038331904 0.5952980564554844 -1.6221663200557677 0.3838011672906358
Ni 7.165380839082092 5.5145692878863715 4.831181412416962 -0.6381724872215074 0.1408977387900477 -0.6453939446706111
Ni -0.16803307508492132 -0.13584812975199712 3.2112481586892043 2.4856463770729706 -0.7280220011854881 0.5921566826130253
Ni 0.7800816578256525 2.495651413348499 6.678126329190695 0.7287102855017643 -0.2443926114516049 -0.9667684700949092
Ni 1.918002636089257 1.5744094580775947 1.96070609673512 0.012683766115255575 0.2996705580883033 0.4278284807141793
Ni 0.3755793656411838 4.686117734518777 4.369711113669285 0.32266187677715397 1.3558547970438843 0.7424276350878568
Ni 8.39337218327096 4.084967699181286 7.150720618107047 -1.1400050302269786 -0.33575933339106045 0.9204729294624793
Ni 9.356518887675906 4.246946025708851 10.553722111502983 -1.004529748004083 -1.043261617356642 0.24026264844363138
P 5.842409077554274 1.2852354031179134 2.5986299879002965 0.38313010936554015 0.9763044346098023 -1.4376315613020596
Ni 4.456184517267694 7.396970370528195 13.136150586052313 0.39265733212968507 -0.5969739014960106 0.5344816964990602
P 6.370193595797844 1.1801054604616938 9.466745677180027 -2.8564747862530226 0.7739920401576993 -1.4978935914169107
Ni 2.3469328021266325 3.5593915998644117 10.345080813228902 0.6732744731309631 -1.0103337562803696 0.7635487333371882
P 8.008555185294322 2.559879597133218 12.129373805226846 1.0422288052167537 1.1359540000860566 0.7493634429757418
P 3.7058925904140545 3.4776432925945775 6.7385827174835295 -0.8889743446335656 0.8583717892563605 -1.2007643116932225
P 0.8185458743068135 2.286182878151459 9.130160548562412 -1.2412874686182493 0.5076141826842548 0.4968260909298153
Ni 5.51304179812874 -0.2325897611849861 11.642220514536255 -0.5445555357952944 1.2452104578217393 0.05617217631619358
Ni 4.149048655037559 6.481562321921977 2.0909117161294106 0.9145907596500893 -0.06919249983526148 0.11357436838474633
Ni 9.341336007554876 2.1520030248636695 0.7000218708601874 -2.420892372625037 -0.1866104103358141 1.5849287758605477
Ni 1.2871677696787718 9.283733080550244 9.923960168621052 -0.11160567469414973 0.3228194854009408 -0.13482967821909683
Ni 9.033951698195487 6.643301403065817 2.8420989728229147 -0.4915411883817921 -1.174548572529803 1.1861406482427765
Ni 6.863996067806891 8.773275449135703 3.6553584443239515 -0.4059170253530686 0.07158876798157994 -2.3455209976725735
Ni 1.5112026680464723 9.105265226036687 7.457716613805157 0.049898684602656 0.6284526888305821 -0.6119899152888686
Ni 3.2776617570367987 8.038157200657563 10.865728457641035 0.4292371881362479 -1.2895331909985148 0.7998714790276225
Ni 4.7997408882972445 1.381025574063318 7.2716876849913294 -2.9056373640206026 -2.335224243732256 -0.9635597333496243
Ni 0.3260620124319134 8.223222706714623 12.058089722971335 -0.07682276268700963 -0.15303745947637515 -1.5368468327516562
Ni 6.4835683024470585 4.370838327496453 11.89518478066911 0.9436835632509876 0.7131026608714945 0.37247211543106173
Ni 3.383592251553945 7.97438910414924 6.841219907276241 1.2676518175443912 -0.09002126365515463 0.21322441337891665
Ni 5.714514016462038 9.349341526164148 0.6493211731760296 -0.4666235992045061 -0.029986519059761258 0.5681981149148989
Ni 3.636345797714211 3.852467194927921 2.362689871168603 -0.7198741752673731 0.9462459246615252 -0.6826566856768114
Ni 3.511781768503074 5.391845607780813 12.132767408977534 1.8898161022631004 -1.4396722458811722 -1.4681289585599684
Ni 4.699414256806587 4.625910713529748 4.678633034706385 -1.495020897854806 2.0075955098681297 -1.839782948965109
Ni 7.087350037005527 6.166660186466298 7.279108892759578 0.6234230968264748 -0.052334804847974384 -0.31740757035675016
Ni 0.9125913943001287 2.2254053489397014 4.168436732864837 -1.0020298644003647 -0.8311877726424007 -1.3607530056764499
Ni 1.779323129238326 5.880219049928401 10.895033256623728 -2.6509220304867505 1.855312926279908 -0.02941933370238159
Ni 7.7304508302047 5.880835566878771 9.640721239526865 -0.6791296463601594 -0.8588027061461919 -0.5835637987376917
Ni 1.8538848732508728 4.310373657632644 7.9972462400405355 -0.9445448828100184 1.0204803577960684 0.10640818965361029
Ni 3.0267209547455285 0.7279684922029624 12.363239848516551 -0.13085218162858755 -0.4214534304257709 -0.08841869505472515
Ni 8.359077277688488 8.0898894140154 7.833828760512407 0.29109027261845993 -2.5928449238383604 0.5285622456908317
Ni 2.6327758252052154 5.596345200392789 0.6131684351714762 -1.4066549104148873 -0.4503032647779277 0.9213041671145231
Ni 7.892189911348539 0.47926923512228764 13.38998993818487 0.4742775162053381 0.06928403110780325 -1.1437601263940367
P 0.31563827509791204 5.771297988114688 6.80139659298061 0.6792150069851142 1.1793673340746849 -0.5962336808958764
Ni 8.691904413432512 0.9567882982451693 7.753965890901239 0.2855228058330115 1.677254519279163 1.6959680365282663
P 6.137941538673732 5.842878366576196 2.5099996951501486 0.9585393973168977 -0.8250765175383403 0.0971948985854584
Ni 3.881066220028624 1.2265742753775721 10.183913160482344 0.7145890156090338 0.16811723662763303 -0.30971045882280857
P 2.3103466619077158 7.596777072920943 12.864049449745092 -0.7327260915293768 -0.4684639948473545 0.3130279532318157
P 9.095907050834816 7.348826837926239 9.840150670352969 2.5248392452223487 1.5753673574243579 0.8045380312653564
P 6.844083490484524 7.74190700338693 12.874096835687002 0.23478131361408597 -0.513920841628573 0.10021877301344677
Ni 2.461899410752174 5.632747305701148 3.5394155304979003 -1.2237126929592796 -0.7155426377715547 -0.36022800795638604
