# total energy = -340863.35175179085 ev
CRYSTAL
PRIMVEC
9.30712838013434 0.00000000000000 0.00000000000000

0.00000000000000 9.30712838013434 0.00000000000000

0.00000000000000 0.00000000000000 13.62192316328270

PRIMCOORD
 96 1
Ni 0.46046180726243835 6.834336160021013 10.11269772523869 -0.5237306286301432 -0.6885743367128271 -0.5968836557750494
Ni 1.7920410614714808 0.012852213777485615 0.6109227083918379 -0.9217466539685802 -2.9200537965562483 0.03831792174359207
Ni 0.04477008033444786 6.675798532759307 7.239125516597097 0.7980981891772835 -2.2552228262069485 -1.1482271610264547
Ni 4.201526336290904 2.7879038134382856 1.2149581416766158 0.6716119978268756 0.07749921992874395 -0.8487666620664287
Ni 6.9944001563605 3.1467029251305503 11.695892406929946 -2.1054442399875026 0.5235974454863885 -2.5112478796911586
Ni 5.871197271941267 7.594486575012946 0.8450398035378583 0.18614812598741487 -0.13519965996400585 1.2926359982935545
Ni 6.276876390004156 4.0590248914744205 8.319371349318175 -2.3995648147918547 0.7589680559450412 -1.2564538919460426
Ni 8.312270940967936 5.181027156314179 8.774180937428563 1.59291076562476 -0.9268279251462297 -1.0005908179609928
Ni 0.39307912746837786 1.8109252252447579 11.312040366679325 -1.9617658531285243 -1.9912162971791578 0.11455575846140917
Ni 2.913010235045181 4.738175366930212 13.309968141060699 1.3224237710789484 -2.652520485322122 0.8703441311268881
Ni 1.9170451046646224 0.012260280403419364 10.136604015563007 0.3647161256347267 -0.34232001732771367 -0.45051589500936606
Ni 0.47542580850180494 3.520170071375148 9.768118044503947 -0.06961570341560915 -0.6970980579131221 -1.5313572703919949
Ni 7.7558256479600916 1.2433672207803865 7.915250244570045 1.2368829117926503 -0.032242404973473505 -0.7040559772881939
Ni 7.920049930749384 8.21559779699897 6.623891746273381 -2.115029826793409 1.129620601668861 -0.3574090504503522
Ni 5.654397020125241 7.380729754223959 4.855929157003894 -1.2933551358477662 -0.01789384956128531 1.3105061937057558
Ni 4.5577380662537585 0.9075018044817801 5.454667903446202 1.810207035080205 -2.0736607769283193 -0.296196997717406
Ni 0.8219171734351824 8.166726065124413 12.038347270222875 -1.2537501198616343 1.6601623396835665 0.6298909639390055
Ni 0.5180701406815872 1.0272463893465438 3.8757917293896416 -0.43761975577298823 0.781381647753551 0.12988776083278922
Ni 8.855407040187814 5.6498086057633765 4.01058035679907 2.4873091094873745 -0.193086504978461 -3.1903081062659635
Ni 7.040824113433495 0.5599931704008327 12.964843062594504 1.6977876062355084 -0.350362428016216 -1.8661565538626312
Ni 8.882751383788547 7.118734086299982 1.8752216612205737 -0.4352970211770826 -1.5887959721254379 -1.3769378429664287
Ni 4.990984899001934 0.296627493158262 0.06326241399690435 -1.0773513599514994 0.24305075271172982 1.421584792251842
Ni 0.12718656483179788 8.523784743782867 8.42214903888541 0.9064370201947035 2.2137524748773036 1.2827681043605392
Ni 0.9908182883073094 3.6113520095155103 3.627259753587115 0.6025547380178977 -1.3023897352462086 0.9962551667001164
P 0.9386704471926365 1.3787394051482105 8.750792123450127 0.38209549745343874 0.400111217304569 -0.7590580445556863
P 5.515664962360595 3.9615885629665653 2.737366105558101 0.38773109847266124 -1.6042249050859985 -2.854994345052754
P 5.938943860460578 8.459612092616409 3.0658044332953103 0.0686962769251333 1.3233177436481274 -1.4740936607838355
P 1.4691953872637749 3.965832613573078 1.639684298261935 1.9940468246494174 2.827947625347607 -2.08597224730582
P 3.1536274287517023 1.4393195047047709 13.493127776830143 -0.3120558191265336 1.1001989539736343 -0.8233451366695304
P 3.501239371959256 6.668715807953262 4.483138639002923 0.37118424985757364 -0.05394354409599097 -0.25222881966657207
P 3.9668191691965218 3.9327271574165734 8.471882610861202 -0.17614679180032888 -0.4488577905806528 -2.963995492244521
P 2.602021842575846 1.9597182889428262 4.791497767664493 -0.16807069966041377 -0.8012318497102587 -1.1238410188726065
Ni 8.656141418509222 4.942448223754207 11.537169567810631 -0.5269527351118667 0.4678690415758329 0.43923955076459836
Ni 1.4981963997416121 6.778781909866902 5.123559360535729 -2.317351477216893 1.144694208172532 0.18414575084540544
Ni 8.557671998735309 3.221169260443507 6.846923120635592 -1.2932114111810502 -0.118286429148435 0.9508785383375302
Ni 5.856501316003364 8.002967138761274 11.760133000134623 -0.22067341345779415 0.03838708441863067 -0.6672169540829734
Ni 6.277788488599414 5.572001011310642 12.724483676348072 0.09172256261697752 -0.32526306184542697 -0.5315560382118328
Ni 5.107854511865927 5.310498621198387 6.599100348026522 0.26318634711934025 -0.5251395931625279 0.8963135586074563
Ni 7.352091719758522 5.64052939862589 5.464080202521567 -1.8537219276437042 -1.0221677728008203 1.439142084409315
Ni 4.512756714101838 6.453823517484464 8.657535626361975 0.6872635883212034 -0.02411360521875202 -0.08785588057271966
Ni 4.2716927782262095 5.718802349504776 1.6313748939165522 0.219219454620087 -0.13613039930839135 0.2569303389072995
Ni 5.6696886322886195 1.3659607176860573 8.974858450504101 0.004948088033894704 0.8490533400689119 -0.8607217775457756
Ni 6.998504600039167 8.694123810011806 8.950529616544836 -0.8711648272559706 -2.8757747721332154 0.6530869424394946
Ni 2.621678498016537 0.9951926387131449 2.502919538062365 0.29030145816857744 1.777768454935525 1.280844404975265
Ni 4.928664366411563 1.584464174021802 11.51568778446657 0.4308006759686258 -0.933740850215979 1.5666875702621728
Ni 1.795345092097165 5.918384413553152 2.776883242554137 0.37372321422934346 0.37978973213839756 -0.5464108438364783
Ni 3.5404223830413137 6.96874040302244 6.7409316795893455 -2.0225135646305423 1.5446701854508171 -1.318484326815226
Ni 1.2980559079818534 4.717885826749954 7.697721244590664 -0.21457707075206914 1.0883459112897902 0.4246752797971783
Ni 7.3263947379063685 1.1226072281937576 10.474782253299592 1.2284370950181422 -0.2856845282218564 1.4572385368997096
Ni 3.518634395168844 1.680867411263598 9.29652677295364 -2.942908846777551 0.9798109051011642 -0.20001639932907486
Ni 7.614106001939544 0.16851673046412488 1.876692187527216 -0.2698845850751223 -1.6402229204471621 -0.2122119129540023
Ni 2.3020251688922384 2.7610899761633663 11.550097169329153 3.1625805584437083 -1.292077040466291 0.5554539278753531
Ni 2.7206505027306958 0.760510600865775 7.074900303094953 -1.084574617172816 0.09313769779694926 -0.3403184135166526
Ni 6.674337313581188 2.190060412759896 0.7468914796979899 -1.8961032208233926 1.3819216693342653 1.8286824681765732
Ni 3.751638357743507 8.32909822933762 2.7038697500036286 0.8956862094361024 -1.269579373584407 0.37015066638673666
Ni 3.147726709268086 8.919365627398241 12.226752403627914 0.7507161003488942 0.5906268762320602 -0.3443697007678908
P 7.616107034572001 2.928143626023667 9.210150105269731 1.8485509249657261 -0.6196916548085005 2.1084228629998525
P 1.956795850586587 7.165437257228668 8.351151470372995 0.3675487099875154 -0.39888068733157755 0.17241226445856114
P 2.8105294428778307 7.272562306529022 1.0329712041010746 -1.1038663755228924 -0.24533569209116457 -0.5799256877644722
P 5.292480020377754 3.544666433647827 12.95394534580686 -0.6664132272347555 0.11986740048230968 0.07486306785747752
P 8.168475805286748 5.517889366077605 0.19786489883587186 0.22682503488148675 1.7018085544694432 -1.440299852162842
P 7.93792892464217 7.879843135529789 11.005383511824618 0.30806726679243074 -0.024296924874151703 -0.4820982978013375
P 1.461824141473516 4.586692543088981 11.340142310541834 -0.5960225933263348 2.0036105570784524 1.855722760123817
P 8.114438617081895 2.0842942042239074 2.462666207200155 0.6447154305463477 -1.279866614443028 -1.7015794691777726
Ni 1.9074029195147384 2.8146525008135437 6.670628422864751 -1.912125307283262 -0.2568997427796802 0.46802150799329717
Ni 8.104740589160873 3.128339960554564 4.0970110058284135 -1.8342013411122733 1.6140863712611107 3.459555314867403
Ni 8.608712291555737 4.0706774163852835 1.5728963439804977 -0.16957890877482407 -0.28080508864236803 1.8397940047087025
Ni 2.657976299256448 7.023056805082984 10.960730701309561 0.7582304064480684 0.30542340141168045 0.21224302330225384
Ni 7.776077959626258 7.594654103326361 3.8246816331052895 0.7960510768402678 2.2419482205852295 1.0724783481299143
Ni 4.922726418413854 4.884036685143518 4.389364665568889 -0.3149796776415479 0.9286593219280136 1.4462169889782255
Ni 6.567668313578462 5.950279943001659 2.704047516158419 0.09902269582281654 -0.864811117123801 -0.3052701636632678
Ni 4.155781799600092 6.7022680062788735 13.000123594686846 -0.45193925771945387 0.42860855341331344 -0.8136384509047278
Ni 7.098314246320401 0.8929761689958493 4.709058015345836 -0.11796375570169361 -0.48541090711433826 0.21858413502893323
Ni 4.535438186312521 3.4039984931503846 10.383569601635104 1.1236674694092197 2.5783459588912367 1.0347245264199083
Ni 2.485115001197762 4.790509350615346 5.52513403491995 0.8228525133038279 -0.38373149039496496 -0.6849123144802075
Ni 0.3158029700543107 0.9057157665182061 6.459543678674732 0.1126495425776318 0.4477478453459256 0.3412386113380768
Ni 1.1661738968101745 8.252956610890513 2.960493343344099 0.5588840366028246 0.40748462695050464 0.4401201535973388
Ni 8.434920280644745 2.856041301355566 13.151095457172161 2.883975819886768 0.25283894244674515 0.7398053669736614
Ni 4.111219268231708 8.924270484129892 8.245159098613897 1.5457883582156604 -1.9153057618937723 -0.06535821369083582
Ni 0.9376187416695313 2.068509314248807 1.145002971558783 -1.0786559376955358 -0.6017443263014605 0.656188978403586
Ni 3.1929779681471757 3.9514810213905283 2.99070707466849 0.476852733131682 -0.8274797276631942 0.7973587399080977
Ni 4.104052779268956 2.9194507679831343 6.15548816624222 1.4345179553737424 2.115163524157796 1.0888218224849442
Ni 4.980877357425897 1.4497714100361607 3.1420605294232504 0.721335333193932 -0.3244757900574412 -0.3128168656622741
Ni 1.2412358883486072 6.052025472015688 12.9841990977839 -1.8482488203442748 1.4090936017633668 0.5407893838846428
Ni 2.6982389372471807 5.114369501832065 9.73075271562244 -0.012852173372319801 -0.34756121112199495 -1.171781551307627
Ni 6.678171850532686 6.18769548449625 9.735588699603019 -1.0360756411311642 1.385724330909807 1.5322119050828062
Ni 7.937230890002942 7.7419952549748325 13.358679790324658 0.7434565905730035 -0.6440675125497037 -0.9563400756727336
Ni 2.7327683840677124 8.819732816558947 4.979630202203809 -0.5695142626231611 0.5340350958799448 -0.20468706533186684
P 9.29097134793823 8.57425730176339 5.177229847876773 2.350852437187816 -0.6688380346261642 -2.7273573279273546
P 9.225318863336604 0.8239926630958235 13.280013147909248 -0.1849548770102621 -1.0508607698601384 -1.1624775002978818
P 6.171370781066813 0.06710346593836884 6.87213799323025 -2.116995178049896 1.5063340088747799 -0.06830829745809526
P 6.774491323617775 6.560697274314695 7.307657626763755 -0.4403878054364286 -1.2395915689730652 2.456564629215666
P 6.308436862825833 3.3809354286702566 5.707736173690865 0.13227477300772703 0.13908305417881212 0.024557120514073834
P 0.21932155293292113 4.358314223390275 5.491038300288594 2.0110163626242206 1.4154668522795624 1.011469926767342
P 4.404049452952564 9.206946591632095 10.324723420122387 -0.5751457498773257 -0.6419139565418106 0.6691383394754025
P 4.636867272956766 6.010571521574005 10.685390472509228 0.5475413578964957 -0.28554106066545665 2.607129973002465
