# total energy = -381163.4582336089 ev
CRYSTAL
PRIMVEC
9.26482534264329 0.00000000000000 0.00000000000000
0.00000000000000 9.26482534264329 0.00000000000000
0.00000000000000 0.00000000000000 13.56000839186081
PRIMCOORD
 96 1
Ni 2.787971150634786 2.2432364976614942 10.200665015819506 -0.04350435104053798 0.33068191886815307 -0.4176502546295968
Ni 5.344479177328627 5.694976773366328 9.049718963328868 -0.30307418445321355 3.0500346313234763 1.505766052186452
Ni 0.634179126861562 0.9118385214102926 4.220864358702049 0.5053948064354329 -0.4913884648540117 -0.3515865302313042
Ni 2.2292466118531116 6.21508552138685 7.785342731407361 0.3686002911804813 0.18868837591076537 -0.484582754786088
Ni 9.071079017455506 3.4775706079126287 4.45394697405975 0.10385431288350501 -0.6102045412536717 0.08916714318497546
Ni 2.7764271786366104 4.554801079983136 9.25398704633382 -0.42073454998187537 -0.8420236869156402 -0.506926669698927
Ni 7.739362331222975 5.7545681280150145 4.501054903451342 -1.0058469241536094 -1.5483463487508238 0.24454944874444332
Ni 3.7055779521141505 4.259568165301068 0.28097990784258786 0.14393832538858434 -0.2734895288175612 -0.668435656981423
Ni 0.33877018050375873 6.344894985003572 6.412202085944458 -1.920984814556421 1.9614552638666414 0.4248038349552426
Ni 0.09785415557586584 4.963463247613569 8.328299464455734 1.280274648514724 -1.11224714338742 0.32671470669028896
Ni 3.9248485663042127 2.5625579574440898 8.017598924371615 1.273690310428987 0.5167629390630584 0.3250406614219757
Ni 5.087343223205546 2.610920344145916 12.35928308695537 -1.0444900904471042 -0.6168801535016345 -0.5153341770363319
Ni 2.3414899671965266 1.9368950577580675 12.545786794431189 0.5456953058266925 0.8629370400295396 1.0846990585658223
Ni 4.312470316271839 5.18641199734398 4.182706250297807 -0.5180885998530174 -0.590968318731879 -0.32930869266971025
Ni 2.337089175303161 6.206867621577555 10.762917599975903 0.7725635352412888 0.3186596975962963 0.9145197972028379
Ni 6.932201509029524 5.707827085694955 12.023414649653722 1.7954499313756884 2.0665578473349506 -0.3353307304940741
Ni 7.651698556707136 1.557963713676708 8.06050247616066 0.8090652297117485 0.9420773951061323 0.08164358111442067
Ni 2.020667605757668 8.162737041014806 5.8976809539047546 -0.8308491583560594 -0.6852216181905101 0.2796902583116344
Ni 7.64744600201439 0.6350389026251501 2.2518018284097394 1.3984937147603334 1.9598794347390895 0.9859553274360053
Ni 7.494761685377206 4.637665675128948 6.411131072169989 0.968397778168216 -0.8999709528543856 0.34948208229379163
Ni 3.828448061776913 1.6826497290470488 0.8093714094476759 0.37505324589467665 0.7135173798114098 1.1383543819974329
Ni 3.503039611943916 0.29110543512734377 11.375029766560374 0.6315377555138092 -0.7291442877153894 0.8938226738648025
Ni 5.942254953648271 0.4023092771014206 10.996678400526436 -1.017610749557757 -0.8276170245720069 0.36020152559382485
Ni 7.404383317125038 8.100023440328089 12.37772472119483 0.06867159433478495 -0.6792895689767915 -0.05504063381491166
P 4.506957523483475 0.6082459550958375 6.956324333982694 1.4413776586080531 0.5189725451198676 -2.243341244278014
Ni 4.6846198084248964 3.446014613830939 2.336430446242912 0.46053754091142624 0.33501345636397145 -0.6357708197585503
P 2.2113284402283355 8.843627562756305 9.82781880882354 -0.40442938506394865 -0.28019188053840133 -1.4436119472552105
Ni 4.868804530193538 5.587467743617669 11.471712848251354 -1.8521317003384488 1.0592351099667627 1.0072389194051297
P 1.9692015026678893 3.947982834425757 11.35748311441965 1.3503706340008617 0.02610980971317439 -1.444036950607771
P 5.2635879899160525 0.854142749964516 2.40126013296846 -0.6546427169623886 1.3903800845142635 -1.2878270069406852
P 0.4540746340399483 0.2924534671704694 13.139010762209336 -0.9952892032424215 1.9033365053470384 0.47819819141598285
Ni 9.020307776243628 2.852472862553965 10.07566862881037 -0.4064507863693516 -0.05247955795595478 -0.7544825093698619
Ni 3.969134429989027 7.534396606892611 4.6880876324368685 0.2908069370500863 -0.6716276815561594 1.5140745720521473
Ni 8.997469982523322 8.557918888213983 8.317044554998764 -0.6705768716941419 -0.09745843665949022 -0.455312545067061
Ni 0.8132922834040385 0.9373038195115645 10.951130667671356 0.9379723717988233 -1.604841712734391 2.670678130067756
Ni 0.6062475323349976 6.344941309128765 1.5025841484905975 0.43792340305633615 0.0883896415890026 0.5386751657551174
Ni 6.213065789528421 2.1629567887014702 0.7647557179914853 0.5171815146577158 0.39594371619044066 1.1344876999531752
Ni 7.914059872152024 4.282276251470833 2.2873018585103884 0.6954872617825764 0.2999284397353802 0.096216336722273
Ni 0.6067200384119694 8.697206267845258 1.8198478906321054 -2.8942594612009636 0.07107120491521307 -2.2114132852211656
Ni 2.8323959866951802 6.689731772942648 0.8155732833285576 0.12286684943026582 -0.30797547840957284 -1.6312204598382356
Ni 1.2613040159386852 5.313803341625611 12.793392949519502 0.1707194501371705 0.9281947235867691 1.6474757453548339
Ni 7.738370994943839 6.508947241963195 8.267157178095573 -0.4168961500723916 0.23185976909191683 0.9123842389170739
Ni 7.584936227478523 1.1229153243361603 12.643107296084827 0.7345963119688961 0.14824209497026083 -0.32882069728969815
Ni 8.042303580337213 0.6186929718094349 10.13390917196842 -0.5331843178438752 -1.1061402591587335 -0.10135520061073511
Ni 1.5251847626899144 4.219998097560933 1.2451192930786428 -0.03286949703451113 -0.7700276561933126 0.59505328743453
Ni 6.1187128113346665 8.518237642573386 8.346076810739921 2.360728558650947 -1.0941154667837156 0.7134225061047584
Ni 8.633167797178013 2.4034253225799955 0.791922037969856 -0.3019408421797187 -0.09131041478022339 -0.17334094692041763
Ni 4.442956112116383 7.536796196577625 10.076319946010587 -0.6751341520475211 1.1365332696282942 0.3701928324785818
Ni 3.899601918073853 7.8157044895415675 2.583452917353789 0.436121573960907 0.7467362897655397 -2.056907725839696
Ni 9.26649270717101 5.036164329691966 10.895317508673434 -0.48114698963166175 0.863729711134164 -0.6652765425271511
Ni 6.284330823725825 6.9082334066545 6.556698150212471 -0.7116985814351162 -0.9107891265158121 0.548419646736391
Ni 6.992978761283161 0.10136923019553497 6.246146773811475 0.7980876476543223 -2.4974050602707956 0.9533943627808482
Ni 5.360535119120633 6.684738032246808 0.13056639982238086 -0.9963577537162518 1.3373515960333742 0.12480057611786893
Ni 1.800285212562966 2.9447597847640976 7.632915050423749 -0.722015389980092 2.4145828854672415 -0.1266330013409174
Ni 7.232298456856891 3.524459887433307 12.072420941695734 0.14602091894922595 -1.598857213016182 -0.25344032347616996
Ni 0.8065011666506978 7.654830067570204 12.418729910333454 0.3137679167216338 -0.5821288660633781 0.0081496256903279
P 5.988625402966785 3.74968778412323 4.779251657852315 0.6243893173944859 0.25500561108076086 0.45185852508018953
Ni 5.568020875861514 0.3967809560008498 4.410812728127243 0.11449225221332542 1.1772975960298497 0.3780166993983748
P 2.664443238394278 5.869507547444681 2.8067722600857468 -0.7096859218804618 -0.17364793663787514 0.05669796691267655
Ni 2.4285885873850073 0.542047853712079 7.398123074846413 2.0512530986570807 0.062421499660015076 0.4859991755176405
P 8.354991425392123 4.866340086733254 -0.10670113700528613 1.081785741573769 -0.7040415791104907 0.6996537344554402
P 0.5304557046237025 2.6954248133235708 2.4721795891919216 0.7012480755257536 -0.4447599663621953 2.0809262002414806
P 8.962949244429259 3.171219903184163 7.137838933175193 -0.1513634142080619 -0.44905293731059437 -0.2463129684027693
Ni 7.34361532969644 4.338254324354441 9.513498501596818 -1.2730457348664528 -0.23790391840346772 0.12728091933756144
Ni 2.1355514362371024 2.39826481503346 5.491626834522706 0.09753685530590944 -1.3622203342505959 -0.6345994251582684
Ni 1.5221829593773875 7.942289794044834 3.61890829332496 0.5675607384412161 -1.4239193539222894 0.8987897880620908
Ni 1.4044177683109287 4.62918836021857 5.79916806926864 1.5950080144734207 -1.9980700868761976 0.7108056373072017
Ni 2.39139957967981 9.215601023233628 0.486983292577283 0.9526847383083337 -1.2664464843823802 -1.836902284983204
Ni 0.4583540567253072 7.261556774328993 10.041945592152137 -0.5970003838585718 0.44554672392954875 -0.44472062848382765
Ni 0.37426557819188844 0.6418411371685371 6.589309407866064 -1.73007063463893 1.023247121907928 -1.5422219810206408
Ni 3.8711589052051543 4.0686201212542015 6.263245934902833 -0.884909944756205 -0.09456003206577264 -0.503571637183765
Ni 4.268323424962605 2.4557067302731768 4.316394896158218 1.2961905484140324 -0.5323142565340961 1.357673852530494
Ni 0.655726330453983 5.6082024220542 3.926856253890091 1.1436685951214949 0.7765975961013464 -1.5233511122580667
Ni 6.058176444532036 4.59208273593872 0.7749099662338612 0.665556535661415 -0.5274150194602659 -1.193147418577913
Ni 5.413715214842564 0.11290486385117558 13.488248342041778 -0.27556569462029956 -0.8181764479843975 -0.6789962061060887
Ni 3.9023165118101817 7.937157080973414 7.6179310488887175 0.30159220059104835 -1.650985815390621 -0.38461543566181505
Ni 2.537070423762725 3.575045832144413 3.433800794982468 -1.8005006064257185 0.8281276456598383 -0.7582358057647071
Ni 3.296721223157906 0.3053686332743671 4.262872928392359 -0.7935524787881301 0.9733409811061043 1.707084458156402
Ni 0.971324257053539 1.3566298007614994 8.797190406697512 -1.8114658471879705 -1.1863229394569117 0.5960557605571153
Ni 4.653434407344753 3.8129109501870735 10.272668456572491 1.2115981690839326 -2.1579993883763997 -0.9381562056748554
Ni 2.1354587879867157 0.828796041623739 2.5554379394018762 0.7669407897378727 2.6573680432224105 -1.3548849769314473
Ni 5.892595491441031 5.909781741887754 2.752260809005759 1.099816630933551 0.6257664002476706 -0.9238626718703186
Ni 6.383029004862713 7.628258549359316 4.491657591414625 -1.2273793431775895 -0.011883124590831148 -0.30926591508622225
Ni 0.32281985771719474 3.0411973485915516 12.323755262379605 -1.0242197702338425 -0.09488656216725594 0.670188892227104
Ni 7.882439024295064 1.4708002397129567 4.753420399162016 -1.7242949084974175 0.9509456441300398 -0.4838391917518442
Ni 4.563018979792432 0.6334444262359958 9.004400998134747 -1.5932894891204172 0.5119367213190086 3.2201015354783125
Ni 5.989449972395226 2.147799534938216 6.541605750224487 -1.0837976297974754 0.998004031070423 -1.426411267106208
Ni 5.682793528440484 4.282239192170678 7.654868979835367 0.12056828320407624 -1.721674697265751 -1.2075486816049075
P 4.259077129574019 6.156744918118383 6.162453903307207 -0.23547885390174286 -0.2511142464461546 2.561875472040039
Ni 8.144494600513676 7.510030117040924 3.2826609246792295 2.6740671011446464 1.1502850719967481 -1.5295708679155335
P 7.394164215107391 7.25464521485015 10.282784719032207 -0.19444764699204575 0.38046953181424154 0.2748936082539395
Ni 6.294624044343781 8.307333165393237 1.9411828187859614 -1.6370807752737546 -2.372165596843295 -0.554362237473071
P 6.389625560290241 2.3354307716212404 10.244585845397795 0.454364836441811 0.5465648529158393 -0.04141173017756739
P 8.932616207252673 8.081262169624795 5.421088162608333 -0.1582953654412048 1.1150918119250666 -0.804999030062175
P 3.657011739261474 7.430982629811043 12.207207469323226 0.21268936681105305 -0.4210834486808619 0.7801603737519403
Ni 7.737879959216789 6.642036453643605 0.9718977497234323 -1.2286085875990003 0.18790393233625705 -0.5773592125888767
