# total energy = -340894.67723199405 ev
CRYSTAL
PRIMVEC
9.05316668308382 0.00000000000000 0.00000000000000
0.00000000000000 9.05316668308382 0.00000000000000
0.00000000000000 0.00000000000000 13.25022454881136
PRIMCOORD
 96 1
Ni 6.345618137744919 1.8626166551998422 11.394769368086958 1.2716763653227519 0.7503839138204561 0.1555982782250159
Ni 4.44429919423749 0.4078958645780736 5.917908512186732 0.31822980914772936 -0.36435797096435957 0.23346156636139792
Ni 2.7146011348112093 1.7370673372467191 4.823611495102456 0.06114520405075276 -0.41230827359139316 -0.4201871621188376
Ni 3.4028409855057804 4.267862025389177 4.8065453702630085 -0.16511290258367048 -0.09915922140068084 0.4839638902551665
Ni 5.328476735187285 4.380094134897748 2.767349411495221 0.891744194069219 1.1483937685113061 -1.5450208839220165
Ni 7.547136336483205 6.195362727442929 2.7294275061705857 -0.8015534947157357 -0.6858037159462254 -0.48877313871835176
Ni 5.466591848735947 4.390061671605737 11.663470981627185 -1.2878594028405175 -0.29483868391729867 -0.15880932896314587
Ni 5.905552750062242 7.835208105827622 12.46255237540131 -1.713784495884397 0.5329678309576951 -0.6710219296513604
Ni 2.038338623866565 6.532031896468077 0.21416986298566723 -0.3418857580037725 -0.24877737078286186 0.26994629155099314
Ni 2.5550390689816886 1.4123483484709325 0.35789160276798715 0.07929307860437311 0.8111313682121579 0.3835980501408942
Ni 0.4740654611254758 -0.05883653139438604 4.842864865054207 0.9012169094463448 1.5137876369393477 -0.5842045176454842
Ni 8.687129213271 2.2983184164581307 1.1806796192701232 0.3580340856288608 0.5669213050850043 1.2896152091893596
Ni 6.862888932371943 0.7127730275564952 4.799761832338127 -0.5281143595201356 -0.024193309416751883 0.11798406741666778
Ni 0.9387500307552042 7.271901957739995 2.497641085800654 0.3192204551957728 0.4821710600208019 -0.23535646939126562
Ni 7.601274274279548 3.8315808614521316 3.7896574563773315 0.7187578022747428 0.16615471358462353 0.18375185784109646
Ni 7.615596384245068 3.9783055366804456 12.588336170375994 1.109432042536128 -0.8866721788629504 -0.3603439647089601
Ni 7.8399248057593764 8.925951754921085 7.016537469611402 -0.3914327156939646 0.296650797425373 -0.16100607950414852
Ni 6.996839589167041 0.5953027557052881 0.4092203428890443 -1.2415432933827972 0.5037279602559711 0.3700845890354917
Ni 1.7108041001986944 6.665701905090651 8.947174188663926 1.0540198843144106 -0.4418245378829552 1.455787663385796
Ni 9.22544862083724 5.080890728021002 1.2977388773460872 0.3815080003810849 -1.3349229319872236 -0.09103916339670771
Ni 6.225057114729217 2.161887191944606 7.031165576616641 -1.0196740598446892 -1.1115640012774661 -1.3984240378646626
Ni 3.6073882374406563 4.3562209338995945 0.7761533433956948 0.0796661456730757 0.7371419612088853 -1.5538030009900206
Ni 5.918000854488659 5.55322160237695 4.6888831712744645 0.6167431137031378 -0.06096008462314017 1.4253566005894485
Ni 5.055713870995646 2.9347469932382424 9.564820160168775 -0.2622283540814451 -0.34193769428763043 -0.6755884659761203
P 0.2975232755416376 5.527103215998613 12.374265892225736 0.17041426019192585 0.5811379629050185 0.8480768350882555
P 4.100948788072929 5.934749213171473 12.359716547772141 -0.10875175018512238 0.5844752548083676 2.2123365683663834
P 2.3127038985916406 8.495754319110986 1.230606929161937 -0.1918469761444051 -0.21751918409952858 1.8599627663470935
P 6.254190205670461 7.873186140786762 5.8666829781678285 -0.07117919124798709 0.05943259223502022 -0.8025505685216823
P 4.804886830095068 1.1744582830069716 12.709973614930822 -0.4528540562242394 -1.1037414199092541 0.3880319175425317
P 3.967432683286899 6.208906265058871 8.222307940821752 -0.9496996875380805 -0.29921701549065244 -0.5270008147409826
P 4.667414491393152 1.1832036421894576 3.7872982010947687 0.35327703055984966 -0.9613488417412346 -0.3434693004408085
P 0.37233593048605806 5.494448443150553 3.6125014660806856 -0.4833301133259096 0.025384758621691764 0.6197055387655714
Ni 1.5944527997708362 1.0383801320008141 2.7188796614671547 -1.077935000369111 0.7082653873838513 -0.659690049578309
Ni 1.966193937194483 6.53067392143974 4.798741540433503 -0.19780756460321416 0.386906802799153 0.2624034462067288
Ni 5.931218478097799 5.426450106898324 9.112192598157302 -0.17305015515287617 0.5675080308264097 0.30205217094660236
Ni 8.610023391162063 2.3874015783169953 10.15303790749289 0.6273987936447711 0.4271332544193676 0.5727245420303426
Ni 2.1874986009790294 5.276475344768858 6.986181295827971 0.5399566035707024 0.3151195456535218 -0.053324165344437194
Ni 0.7364371004002844 -0.17171594233313087 8.809889250515921 -0.3387114740408489 0.6812698326316138 1.0796602105903341
Ni 1.311622814035798 1.131482899943554 11.419454638152057 0.13665027636760338 -1.0721834425973147 -0.03666213130772395
Ni 4.014925596611249 6.8676780576385426 1.673794754093101 0.47080087051064723 0.24397172186410238 -0.05356816303444323
Ni 5.491107824580845 7.83353326995934 7.907893266560982 0.9068723079599091 0.6341389405820821 1.7536471364072896
Ni 5.415215126830555 2.9735488663812397 4.707089089821027 0.2501793933367111 -0.039691405052351 1.149637154000104
Ni 0.45661186074461163 7.356684865342461 6.92597230433828 1.4053081665790055 -0.7758512048536251 -0.6451815715494889
Ni 4.86264603463364 4.639485471643701 6.8970066969838655 0.6572544435536228 0.07023019707115646 0.04028507277229191
Ni 8.05651276961217 7.073438433932066 9.016605641229393 0.1568468059201363 1.2715025587490487 0.7434337077548681
Ni 4.6271731647201175 0.36819410664963215 10.614119316714097 -0.08599723009742609 -0.5134721841269286 -0.7771097598510746
Ni 8.13723080529648 7.334414074877745 4.9475810354392795 -1.2489030761819782 -1.7678943903549231 -0.9925820887239036
Ni 7.167754326233453 6.1304243615878855 6.935154026163205 -0.0457034155743858 -0.9205510909985825 0.0758673407522758
Ni 2.3272523377285506 5.122354232219538 2.6168794411387553 -0.14930730300998155 -0.12502811874764275 0.11399294397940368
Ni 2.3283387177512194 5.296347046016846 11.372839882012697 -0.11792956002964851 -0.9422409172671902 -0.4234774028343352
Ni 1.00890302071906 3.357638523395891 3.9335276680960827 -0.039989395908744035 -0.435443831167592 -0.8324820659737922
Ni 3.7058685864956082 2.861597405045191 2.6355887157624873 -0.7608195073314832 -1.541186597777591 0.3800643259560229
Ni 1.0182549420808695 3.359648326437829 8.16078714545469 0.02946201401485894 0.6959734573903755 0.8480354403273588
Ni 3.6790168936019705 2.6116756808301704 7.045250493610546 0.04784205918394341 0.29974434874903216 0.29680609205631464
Ni 4.249710425843747 6.950768023039016 6.024426262776063 -1.0399922025767507 -0.26398261776839055 -0.6292011369608325
Ni 0.6961758567601685 7.366860624888128 11.221430192936621 0.050262752810294076 0.04200282679434702 0.10913998676247656
P 0.04689630962856734 5.4973001907100585 8.114861335313039 0.7857412102738274 -0.8589590292183981 -1.2279295592541046
P 8.69545812677813 1.6137903641743458 8.006647021254972 0.36687816628305203 -0.463230514362557 0.09405301052236706
P 1.784623622739058 3.128901209622917 10.582649603407432 0.6984466015212164 0.4836620427440316 -1.651501064464143
P 3.948131331550812 6.093505547150848 3.8000188058435382 0.4940099616372589 0.8743321692403587 -0.39710276949554835
P 6.956752166330552 3.8830571681929342 10.263412307162698 0.30972228589735046 -0.061974899040899714 0.2680205352831901
P 6.356635841808154 7.534425690217978 10.144133212573744 -1.0755089074261222 1.0932310072962335 0.406505550866687
P 2.235634289150125 8.523529435023894 5.936617786810464 1.2113320599067396 -0.4085637189472964 -0.29031791322880973
P 7.228401490998954 4.097300361830132 1.4442218330193575 -1.2705224542239668 -0.18850582758631407 1.7346045179535416
Ni 5.482099923559548 2.891291792331479 0.5477700084467738 0.19821097068921992 0.23330164374476595 0.12300028968433656
Ni 1.6041487414731577 1.3194628565327262 6.9729835891859135 -0.2678318163111516 -0.9024394689995362 0.1373737847971892
Ni 6.943525489554555 1.009880762739462 9.049413412597312 -1.3923942867308148 -1.193711261501183 0.9043446564420491
Ni 2.7084811940168407 1.413443781660457 9.344747632393272 0.21738548673514174 0.7710314148674786 0.05855507472607335
Ni 6.555542970792006 1.982018872858029 2.6446518411016045 -0.07826746555333616 -0.421127671655236 -0.5140339701676695
Ni 4.1680870734738775 6.87376178576549 10.435585434422034 0.12398682196732193 0.5802925841855876 -0.8561822378042093
Ni 8.170799947996954 7.085614943352815 0.27766153277719025 0.07521608032152208 -0.15457240806366282 0.3532595470583529
Ni 7.578143432963552 3.541580767567477 8.150173212633211 1.0189055571097805 1.543350181087813 1.3643911166496696
Ni 3.3380836829878477 8.482989353844626 12.637680456322308 0.9898461778499792 -0.9456442865217843 -1.632294409628705
Ni 0.13383839752608795 4.959469654154021 10.323236539061027 -0.468207141641542 -1.2220569025234116 -1.0630930502602725
Ni 8.610711431843086 2.3576257125290065 5.886147286907316 -0.09569594544242874 0.027410787912785055 -0.2538308740463693
Ni 3.5988329947621374 2.7947759804841876 11.858222707024328 -0.17958461383728425 0.45488497061133915 -0.6605027752875915
Ni 1.0093104132275608 3.3016265800604447 12.61291551838888 0.2600056353985135 0.7034245143517821 0.3347864279548299
Ni 3.1126598282840146 8.437261808057112 8.008104581118719 0.18416220590563767 -0.07161525034414118 0.03695600839905893
Ni 5.652036918605558 7.700922481858869 3.665065058160843 -0.354637401242486 0.8055782996044126 -0.46986833139404893
Ni 3.138126386648749 8.46299090826066 3.609666014221519 0.4661638859592681 -0.2651265015648466 0.22142777512531542
Ni 3.092235883857836 4.371339722548406 9.109277478429808 0.43703148736968606 -0.3878167162079321 0.4729503127534822
Ni 7.2621788565371075 6.140428110963296 11.544165632854352 0.7735878627407451 -0.6832058733120621 -1.5403607594421858
Ni 0.2712663757104116 -0.014934104044957566 0.334196749156889 1.815307589531564 0.3665588352704203 -0.07023199684336937
Ni 4.7213985253529485 0.4057131460491943 1.6322026949252155 -0.23670038501366977 -0.24491094584892018 -0.011903179195489177
Ni 5.980241376620741 5.720759508206233 13.64322656277132 -0.35650196525505057 -0.6080972651026817 0.9056394639940726
Ni 7.857533215293472 8.79840168709288 11.33874746626797 -0.009020201220739304 0.24973793492391827 -0.5686208042746143
Ni 9.13899087736649 4.90792997524523 5.748172497444916 -0.4989138266967794 0.050485924564693696 0.2773585248546642
Ni 8.066670422824124 8.582583242422812 2.5376569886189837 -0.6115564272958758 1.2325737428943353 0.27366976314916736
P 8.534049214910072 1.521819242088553 3.578964914780891 0.4045738810616129 0.6227844348012113 -0.03338706010087799
P 1.8524408956541751 3.1045029249471408 1.512950759836831 -0.6535983348582743 0.5943824866197506 0.3999502662466725
P 4.752025388825362 1.0882087623739025 8.279985666858625 -0.30783098241190854 -0.4286831154049907 0.11776912319238428
P 8.397853372734792 1.6701010620160264 12.330685757616367 0.12449307217977913 -0.21671828546478808 0.1039946951161112
P 6.335840717540897 7.709957542380733 1.39071671158622 -0.4204915807331339 0.04084480193050385 1.2057887614910072
P 1.768219284396755 3.3569233232143008 6.050185238430233 0.312628660910868 -0.3819839115762389 -0.48790976227679195
P 7.046414730868172 4.015921444965363 6.134973577932812 -1.512866410676659 0.8654796039457352 -2.028226812965236
P 2.4585323103012526 8.418367848829526 10.47638262554 -0.15372214424822558 0.6986402055892613 -0.9422355179505514
