# total energy = -340895.47253979056 ev
CRYSTAL
PRIMVEC
9.01365899889936 0.00000000000000 0.00000000000000
0.00000000000000 9.01365899889936 0.00000000000000
0.00000000000000 0.00000000000000 13.19240105951047
PRIMCOORD
 96 1
Ni 6.243139656787071 1.8064003620942848 11.483153708693614 0.08411492547304869 1.3818864452209558 -0.0007674742936438395
Ni 4.786883892765283 0.3993177134595286 6.04659231514907 -0.3689844139927774 -1.3232532089587792 -0.8653726460542258
Ni 2.714589603405885 1.5370271624496232 4.687919324982829 1.2358814671113296 0.03475205876920467 0.5525205562786419
Ni 3.214640364546487 4.112490938968596 4.627340325479003 1.5715294717355064 1.0624883267967378 -0.12643168396338872
Ni 5.193048381612131 4.4826278327349804 2.851432270464455 0.17806123521422237 0.7068926754060406 -0.8367333850509784
Ni 7.147191628611072 6.372611854869585 2.6361058716359005 -0.4443856137419121 -1.4604812122067234 -0.8432261918641736
Ni 4.728736778463534 4.663874488196076 11.186509683700956 1.438348384863426 -0.3178127762149688 0.35953123899967754
Ni 5.608749321696192 7.967479667214467 12.292085438304795 -1.1583431664145343 0.0344700087524116 0.5611090692786014
Ni 1.7971613616045483 6.584802401727037 0.512049744020541 -0.36761581578002495 -0.760647243419677 -0.8880186655885158
Ni 2.6256067616159537 1.4576438675100034 0.3624094838933584 -0.1781082864020739 0.20139605328542087 0.6858862483577026
Ni 0.8485152131728176 0.017201666863037385 4.8277067544413965 -0.40930213977521773 -0.3649940618864617 -0.5639732782002739
Ni 8.90759528875499 2.370213747102591 1.458855303281536 -0.9088011495515059 0.25271707215690026 -0.337263942961045
Ni 6.883343801942225 0.8712395489139638 4.6598327634940295 -0.4763606239866119 -0.7846441205549067 0.5446756063129264
Ni 0.8430989054710784 7.440207655850445 2.750602776631928 -0.3108368591177679 0.10320845176938999 -0.5081273748752475
Ni 7.57806255681633 4.016567579737595 3.751087379421243 0.7566018697057099 -0.14131220061964694 0.027775627451371517
Ni 7.650694621154181 3.8519691524760535 12.588545584653561 0.16688670665464164 -0.5231025081278411 -0.2170576710820778
Ni 8.136738156186441 8.953646072659444 6.552163942435978 -0.20621944281599325 -0.3698189940789308 1.164643654711265
Ni 6.755340830279054 0.8320445540558462 0.4236347627485153 0.17987669115640634 -0.5366357667275855 0.418108425212938
Ni 1.8053457639896027 6.307740550943112 9.193824030756536 -0.3721728390230881 0.03810606284310211 -0.15594769114463466
Ni 9.022041717260539 4.860687732775002 1.5133527870483616 -0.3073496719001158 0.08120880756984725 -0.13321091166875124
Ni 6.441295936559139 2.012281347641674 6.924585798762506 0.34806540445192313 -0.25657064157503556 0.5402929038641985
Ni 3.5517692390022217 4.384415004114327 0.49533932157378713 -0.9077230859959786 0.28789079184455574 0.2762071848590405
Ni 6.053744653576978 5.638854942804212 4.920435672917702 -0.4515011417407708 0.21813367775507594 -0.7583607613783455
Ni 5.305782214904947 2.8272783684036282 9.281645913265418 0.1064629541509457 -0.3915404449164225 0.5992868658999034
P 0.20180681167289038 5.405752707033403 12.427519270459419 0.7104621379248538 0.9712810132532821 0.13405243373344009
P 4.045212988085286 6.178628899221174 12.658557378315933 -1.8525965557900095 0.9067290975138256 -1.6634250695952382
P 2.3285886697741973 8.480618261243944 1.439198315702982 0.5726864897035556 0.1966066023165775 -0.13286304141102925
P 6.424981213743116 7.805206763978634 5.829260377189816 -1.035293768659817 0.41278727011034066 -0.3283273025930475
P 4.5372506063621065 0.9638125310893216 12.634943394430067 0.22361424125367296 0.15741964770447084 -0.5674537805497065
P 4.063718030041802 6.026415239445387 8.088314075863503 -0.2312666155926082 0.5519963083440558 1.109330226850941
P 4.822920501504762 1.012287989268642 3.7575916357660173 -0.4402332821364354 0.3200725187834229 0.3738312005621175
P 0.06064930604413821 5.716120027875453 3.807142423465753 -0.19186111721179216 -0.46091343619360625 -0.9221850270575795
Ni 1.4772846305023315 1.070768608953921 2.65003648164262 0.24878714097487478 0.00841393509530809 0.022079862618174878
Ni 1.8680537897526246 6.396876624936288 4.829144433054189 0.7577226135737143 0.16101842079932271 0.4178621135300868
Ni 5.943904204827779 5.730947496954103 9.159958812473622 0.3242302497055384 -0.6361055773901496 0.7403782087579959
Ni 8.447655310228367 2.245897361976301 10.28362137525571 0.40790423098642653 0.9292861568787351 0.2310375303009376
Ni 2.460124995771003 5.201115606429999 7.010797841771419 -0.5239674272312975 -0.6580226891782152 -0.6422466572908809
Ni 0.3847732732739296 8.97091624333099 9.01567356716688 0.2937130549532877 0.08896813980029195 0.5185136032055779
Ni 1.3279012596570587 1.146807836399207 11.341559941968567 0.4296099980946343 -0.5231194774087056 -0.3639154841103023
Ni 4.124199682028273 6.8302713776655715 1.6513987775853507 0.20090214436813789 0.3549878426033693 -0.4882064675816043
Ni 5.575696234090471 7.845245437320497 8.0705697867278 0.16502651351745126 0.7999522116668868 -0.6308700400228232
Ni 5.402291461971883 2.98448559527338 4.818128840372719 -0.2551326235769284 -0.37209364904572045 -0.3543388961654607
Ni 0.8514356386934758 7.246549191926552 7.029597630377705 -0.037634522523322285 0.4155440069198714 -0.20033367345917755
Ni 5.203873786088398 4.3230590272034615 7.347362461172854 -0.128359754224037 0.7632139757055888 -0.8499503979618847
Ni 8.055344815286615 7.125414628432337 9.167650167710589 0.032294084147015345 -0.25761245257598864 -0.3363604573101691
Ni 4.536177980939396 0.4132510275639528 10.404938916027918 -0.7850300431394158 -0.5266866259346735 -0.49954220430939783
Ni 8.005039584327376 7.61488335389006 4.359218221705537 0.06612105999878937 -0.14403422753650033 1.1591900877958616
Ni 7.370685303872555 6.21290784445285 6.878927109025179 0.02096528939775744 -0.7465041191500756 0.5313161542868851
Ni 2.1854427509668737 5.398009973940054 2.49221632595989 0.19805361917574923 -0.76909074620134 0.6734734765156466
Ni 2.3765683767077266 5.120136893844835 11.265822672100263 -0.756432176897065 0.2948260855118084 0.6268593762015333
Ni 1.2285527100005935 3.3684314146497902 3.6551658229220436 -1.5532450716040216 -0.10389647897535009 0.1735044690814754
Ni 3.778480790531836 2.600143174900338 2.523547804693865 -0.8832317857228337 -0.04896588837574147 0.13553236071307626
Ni 1.0596367400711653 3.169310673363184 7.966745955370696 -0.9801186661495701 1.5168184533458715 1.0249695039156734
Ni 3.95006480352952 2.51248534098552 6.76379654380044 -2.000636562051793 0.609631442359021 -0.14892780818337578
Ni 4.311260147553642 6.855852141948374 6.010708938612834 -0.4965417269201772 0.10713426918635742 -0.22209703327819816
Ni 0.6360028786885514 7.2166238439988195 11.287339177533482 0.18684129539969757 0.36074839923623037 -0.024504670009583604
P 0.017185442276811506 5.418939690171437 8.016718582312304 1.3779853103943365 0.005463851328048655 0.6762258424498031
P 8.378989255856842 1.6297777137075642 8.105107423973188 0.24710409684549706 0.37388673639040126 -1.0894509714285108
P 1.7822257286177254 3.11806802186645 10.288872732997486 -0.8087934641076007 0.2447736489401075 -0.004574763854875992
P 3.82937190932701 6.089105237890379 3.6995319539567095 1.2768941620782654 -0.19287310341607428 1.2914049540999308
P 6.717744858530087 3.9235916870042944 10.593959852388913 0.4087467814923799 0.35025521301439033 -0.8527688412472861
P 6.149496753286707 7.799401967573376 10.2083194651178 0.6218038160554968 -0.36893170637797107 -0.5042365244612734
P 2.635458690918668 8.290060496020997 5.881660382503997 -1.0294859037287882 0.9497307978863323 0.48053198175548206
P 6.9453938305971965 3.957446990262295 1.4793956294434984 -0.9117946849621911 0.25694268020247363 0.8459430765747044
Ni 5.184656665069746 2.8418083867348045 0.43947086027087456 1.0620561243553257 -0.3599323310928382 0.15692728144908458
Ni 1.3928536865146603 0.9838138404422245 6.987341596918305 1.142277114090607 -0.7095571096120813 -0.4658494400426429
Ni 6.849930167975928 0.7825469469442955 9.350707667267674 -1.2792981435340678 -0.932261180346659 -1.1950947721122709
Ni 2.5409504761529234 1.5004497341692806 8.993853301424876 1.0972357575802523 -0.2889544572223798 0.7230674853936903
Ni 6.48159600601242 2.0279290596906323 2.601831433233731 0.12852764726046897 0.6162887997745385 -0.5909420934796339
Ni 4.019776442346713 6.8008958629377165 10.341325017533949 -0.2527240141354357 1.1104435145197777 -0.05086979026667369
Ni 8.143336154584965 6.960951406056012 0.5427133106215507 0.3515168533356333 0.727084062752251 -0.9681113572760489
Ni 7.421459245100541 3.8252075988623675 8.349457804828038 0.9249556478241813 -0.009439805256661162 0.11872737334059554
Ni 2.7884024570746195 8.212813438267784 12.291888039172381 1.24445198238916 0.30382468946599284 -0.7185654837582786
Ni 0.010005161505958655 4.677277799150455 10.246683400614794 0.2245814902629487 -0.0048462723487077836 -0.17175303360800742
Ni 8.755832311929922 2.264104953185343 5.886000459319419 -0.31634930429556485 1.035782021150145 -0.27369007486414154
Ni 3.5343007678323586 2.6678808223933825 11.595791095834976 0.2320564584837552 -0.22531039800917327 -0.4843775807538174
Ni 1.2626694093700108 3.316774134838395 12.519390989963458 -1.1566051006775049 0.30180123127806086 0.6376384690949083
Ni 3.132003138702677 8.15854219734222 8.164117145442612 0.2271219972966153 0.18776740675839274 -0.9838832753983249
Ni 5.43041407809674 7.806063061585 3.665732535384598 0.3489953724653603 0.41288702891299855 0.2831267947970092
Ni 3.027670035611261 8.226649404854854 3.622778844717485 0.43972060416607495 0.5495007956157117 -0.05963210984033602
Ni 3.3488988155656347 4.055713900837035 9.124603636355628 -0.2903197130010226 0.7463441965334436 -0.378512922308503
Ni 7.282955360685621 6.164261126752257 11.259885374907492 -0.2440604249231668 -0.5826472004606933 1.0353732157475006
Ni 0.5667013613565125 8.96996980913448 0.19408030316576627 -0.5120009988980408 -0.28748275777285975 0.1597902048191764
Ni 4.551510214922851 0.3601677868964828 1.630606970336887 -0.17156534307723356 -0.45929415542262836 -0.023845696269346028
Ni 5.944066450690037 5.700571466075653 0.19205763808294005 0.8839943749204712 -0.6675982486817922 1.0077266576748258
Ni 7.761193067011431 8.83885712511135 11.376664538365961 1.141199307645396 -0.1697928245578431 0.37673937534784796
Ni 9.33517623142 4.719362573088583 5.749248830216895 -1.0060425851041837 -0.0023037084325121613 0.7655271972197977
Ni 8.203240932394515 9.00542954369704 2.3441183028900676 -1.0825825264434517 0.6221953950669608 0.10560137748159877
P 8.5494285341597 1.8739306954299986 3.7543467185208415 0.18085345324737886 -1.0298173189262783 -1.4374752382298535
P 1.8622219523703227 3.413562805334777 1.5372705312430115 0.6125743270374289 -0.6660874684642206 -0.06842271154877248
P 4.647478642448924 1.0818914641776625 8.146149317563351 0.44661887394780503 -0.9279684665085761 0.9651502177651958
P 8.471316165141106 1.6882493197338289 12.559654103414779 0.10565665619956642 -0.3498402369641588 -0.7780209588114343
P 6.181278914971402 7.852654665030316 1.2348505535539387 1.1715645502008145 -0.6026681236673105 1.4901669121966143
P 1.9188006900035681 3.183678445832102 5.989561091833303 -0.17340136784470783 -1.0050020596548113 0.047491103602427885
P 6.910736311686916 4.017838505658622 6.045642275488955 1.1615346767686383 -0.2743621612305017 -0.32699418560392074
P 2.209139660515671 8.484674407800414 10.071171235018644 0.28952035702817874 -0.5307281429938988 1.2679840040728292
