# total energy = -381164.31355352746 ev
CRYSTAL
PRIMVEC
9.33380894463764 0.00000000000000 0.00000000000000

0.00000000000000 9.33380894463764 0.00000000000000

0.00000000000000 0.00000000000000 13.66097286635220

PRIMCOORD
 96 1
Ni 7.49459135765762 2.34693963134266 8.703775127121654 0.9304094718499009 0.4983443273465546 0.2647184674931506
Ni 7.01642965082689 3.5202834405910224 6.69727871597235 0.6530540323190301 -1.0143475054254532 -0.0645305755832179
Ni 5.525895006636819 7.145189547481713 3.0468063725519596 -0.20703962472444343 -0.347661227034969 0.2875460069106273
Ni 2.695809414399371 6.8995983622130135 12.224138838471012 -0.9610423662444094 0.7381300361537674 -0.4775716135755776
Ni 7.067672262833774 7.2463027015565 10.515753089683365 0.18883107213621672 0.665974339925124 1.9593166202570835
Ni 5.3236406970599175 6.168499762345019 9.376700761719539 2.103223063966468 -0.8131162598526706 -0.7138171704400159
Ni 8.832574225774733 5.751371833276223 9.651614108303288 0.758755682823919 0.004542625065359918 -0.6840548515759186
Ni 3.7193549212618504 5.057113777960355 5.01327661010033 1.0766221950949588 -0.5269874450045441 0.9114373016227723
Ni 5.519529348824671 0.4139684346854938 1.8728651995206387 1.1545929553434824 -0.6125491302264483 1.382664975258193
Ni -0.24269303754044097 3.266217156651604 10.77764670594136 2.157505479459117 0.03721003339139398 -1.026826354618754
Ni 7.35215743065852 7.50636129094372 8.230216854943345 -0.343828226442124 -0.6910911895974099 -0.7383784047191476
Ni 3.7214270268839864 0.4780749024060198 0.6189024808575099 -1.601142666616249 0.07482990062669694 -0.4902124422680396
Ni 5.6690663045555105 2.700028296116513 1.1460890866508935 -1.9149357801488631 0.5100747284096054 1.3554354501182786
Ni 4.718399179213933 3.549451594055779 9.444499684323473 -0.1216103513153454 0.9619782477951173 1.6954242482096542
Ni 2.1031592050410532 1.8957526328361365 10.529618463114373 0.6787807476611729 -0.2042327514032676 0.546034434333666
Ni 1.264152438067121 0.5744007457889441 6.310973824723287 1.32074741181779 -0.5372785425179069 0.5282202889703806
Ni 5.397069773318235 -0.038859447462343245 4.570988465198062 -0.6531301369726041 -0.19835495246625193 -0.4386379126248575
Ni 3.3902261444700867 5.585332703041162 7.925154371557511 0.7183574815125306 -0.34963763403504944 -0.03047348599850881
Ni 7.9794734070466316 7.161299702003367 4.378970544070696 -0.6121434101475973 0.9158058630041132 -1.205882349646078
Ni 3.578087720401339 8.487988661098926 2.813013121996685 0.6044599254604106 -0.578279667520617 0.017732898503388814
Ni 0.5583148591709721 2.2128034606412132 1.5260805894188165 0.5359803925317738 0.7538621021770436 0.6344446447479589
Ni 5.941230844356741 4.730299785827555 1.933915778138969 -1.1756250934234334 2.0294447445327375 0.8947780957995364
Ni 3.4073816856119183 5.977184677043539 10.309799791556678 -1.484175727610186 -0.9415325783462559 -1.0384785941457018
Ni 1.4594343922398072 8.782479672288222 10.847577470545728 -0.12731691478181945 -0.5151022635311838 -0.5688604310892461
P 2.890531340025534 2.401607751292446 2.6908568952862826 -3.0877406305146824 -0.7919781923224747 -1.3750948762204187
Ni 8.904976583031093 1.8795771416507208 6.365494470489156 -2.1924385438908756 -1.0615393326199072 2.00892374176125
P 5.091098176925212 3.336528740667608 5.662513970561187 -0.8137274110741082 0.828051026785632 -0.5333403838057653
Ni 5.871469955078151 1.6288990304177682 13.081283063305012 1.2135249537930004 -0.3582428592055572 -2.0001992174040586
P 0.3090190850670211 6.992451095226581 11.29799349641987 0.2348255365884601 0.7150286742496137 0.5836923538957561
P 3.988812656421552 7.426967910664928 5.393775872083768 0.5854319622946821 0.3969137934131938 -0.7140110316183769
P 4.440671689183904 1.0223041102510193 8.878335091692067 -2.1308369690289948 -2.351712471195266 1.7102898524675774
Ni 9.233610667940093 7.984747009193059 6.427706174960611 -0.7254102745942539 1.0705672471501304 1.0840223442137717
Ni 0.2694764027779194 1.0621594751452632 11.992544633341753 1.4471035053482368 0.968339414126455 -0.2914394284277626
Ni 2.9803225836514415 2.749488150583632 8.14864776376131 -0.31316962101600254 -0.8430991793680062 -0.05173496648044639
Ni 5.123075806931695 1.208504268160919 10.94801299007922 -1.9949623944851513 -0.2672114091183334 -1.0219901095723753
Ni 6.010739720789395 7.523610170176638 6.095170557844164 0.7937121442944459 -0.13120467987199982 -0.31691957497673806
Ni 6.800454641860165 1.9399295513477188 4.932949848910666 0.4627792857577514 0.31945365425250144 -1.121545023749578
Ni 4.665700492986088 2.490540284480352 3.6417694998074186 1.8442214443524365 -0.23252131393531567 0.5922068191246704
Ni 6.888388457473438 4.0099444002436995 10.584016835980917 -1.0433302658110484 1.1979139867286208 -0.9311394080373899
Ni 3.839555714963975 0.53756300137955 6.718015639669198 0.9263936658222883 -1.4439693305946293 -0.7263561834472909
Ni 4.872752380444873 7.366550164304169 0.6156496483831203 -1.5576673690414333 -0.2439886911449669 1.9236371645776034
Ni 8.879840635101303 3.910912685600157 5.64504201329057 2.4689439767166252 0.7733664907585583 -2.635015129448507
Ni 1.3726673027651255 5.421552354610414 1.1751387007399696 -0.20892784288609179 0.1976026476812597 -0.04662412761644228
Ni 0.8478533512471791 -0.011980877371955849 0.5276616966770176 -0.44470391631327927 0.4498803183078961 -0.822766638458241
Ni 2.774829442313813 0.7001290212452541 4.497493118895072 1.522781612907842 -0.7987239956867406 -0.8299688126336352
Ni 9.319547048404099 4.1421951415051845 7.867668374637802 -0.8149090900870353 -0.39769566588454086 1.4697492677722106
Ni 6.751573483557788 7.039502826943651 13.22361711854665 3.3139082343178283 -1.1218972648826744 0.3903525952559084
Ni 1.0997560582351964 8.380248502556947 4.452002000060982 -0.5784609302934876 -0.3165801893594483 -0.4784948967207953
Ni 5.66540745138489 5.2514716850312775 6.994814415692911 -1.3166591006810293 1.6254123377968908 0.16872067453958683
Ni 8.201422053842936 4.435967449393108 0.914240068532966 -0.07259638331048787 -0.6235825052224745 1.0324377872682606
Ni 8.987599461261501 9.252679639949212 8.663789088899888 1.323884929005507 -0.056714164862592654 -0.6328225357635038
Ni -0.10725200032559448 7.27940038865603 13.569225668700774 0.7372419771218592 -1.6742468428010906 0.06815711659221166
Ni 2.045448263321824 6.8749197709295515 6.098736072923696 0.1534876596399163 -0.717298444120397 -0.13333355328954458
Ni 7.786515571342017 1.4258886823030597 1.087398094975248 -0.5081129766975443 -0.7752310547711229 0.48116035936810037
Ni 3.620733894219091 2.511980044003087 12.697205218909291 1.0412049919379294 -0.6207486353181051 -1.4593887504734933
Ni 5.262756260243722 2.2615539456160696 7.581362180655945 0.5404682530997983 2.4231310321475688 -1.5797318050406408
P 3.7780179115101693 5.395585697669949 2.2525169516370047 0.8004407212675312 0.28552254872269534 -0.8546637442771539
Ni 2.468661835929507 7.516572478108661 0.6297614343745974 -0.4231457305265293 0.4884630636771007 1.9218931853033032
P 4.693851261257994 4.303679372895188 11.77313571600393 -0.5985371322180725 -1.6513385707443495 -1.822167549876191
Ni 8.43091241839909 5.301482234235811 11.910059895486151 0.7415771141621034 0.5413853655974289 1.2364648504186255
P 7.137647829721865 9.277638245505937 9.578623721073079 -0.7989106577762499 0.4271337686399999 0.46662617030766734
P 7.245182644463454 8.61660855061712 1.2175328617117862 0.43937787611467555 -1.080096012576172 -0.3223608005969674
P 7.673277799234999 9.212292247935771 5.208355087234446 -0.4245690932366172 -0.009674804085602692 1.1209752672890372
Ni 5.530393902627224 8.839985270207059 12.635375267230383 -1.2284733475727165 -0.0871043471186758 -1.0408851467046654
Ni 8.310870299451814 4.8174122262392585 3.602125078999032 -0.08158804528613692 -1.2246843128439295 -1.8413983730813448
Ni 2.2766560487539818 3.4585402933368252 0.45948942170873214 -0.4616564850072178 -0.9566864032685589 1.2624558751657484
Ni 2.1539537942107194 4.551127986176523 11.682536164509207 -0.46789500971776193 -0.7623449428370742 2.006094756952887
Ni 8.21060652200592 5.989850656004076 6.351778438003889 -0.7917290524261461 -1.2065703768520382 1.1561790688836797
Ni 1.8028718983952416 4.160648082113129 9.537804173697905 -0.41590961778940627 0.6740419474246069 -1.5515018636606699
Ni 0.49714200765331756 7.236306192001059 2.352528716236963 -0.41893014978328497 0.9422753700495514 0.2599554988868684
Ni 6.52430456556951 4.525777360637233 12.900384508968868 -1.3428365304073453 -0.4677767389723428 1.0807537007648291
Ni 3.699669917851555 8.42098124550741 10.184446735226537 0.3959727696561632 0.3308032749373657 0.9594084301854123
Ni 2.2816029675816045 9.413239824237452 8.293290069995535 0.010250988304046861 -0.7271064313497542 1.6458744623059847
Ni 5.053212245752908 6.3504250356831236 11.949048149514198 0.07998136292064936 1.2621496567792392 -0.8516748368521591
Ni 1.6411076527319768 4.106231975009278 3.717574030483906 -0.14259312421459958 -0.5701863489895213 0.05553428562187855
Ni 8.13909087661489 2.5611598841969436 12.788050249583574 -0.6534227285123585 1.0610976170967985 1.4848966649366104
Ni 7.273118735125859 1.760888425024209 10.918887772136364 0.5167385135830261 -2.241415488010211 -0.3637367924405929
Ni 3.9466051716319104 5.047518622196588 13.688295204738921 -0.09213471045373164 0.5236928334136722 0.8295952313443004
Ni 0.4962104935042671 1.8342988336643093 4.325883571383927 0.8990268437735612 0.25912297568324405 -1.0704227511524662
Ni 1.8683019002473846 4.386666269680837 6.723466584188692 0.018372331859600615 -0.03399126934378017 -0.9441173083542966
Ni 2.5188403936979973 6.38075991528647 3.5819892526087855 -0.5510452572846961 1.630543231265553 -0.10664216004128729
Ni 2.8831576308296434 2.359680280776066 5.833085598499442 0.16475680479583238 3.2232606499325844 -0.26912405276001394
Ni 8.085533479949042 8.93078456521671 12.516115321486417 -1.5894420903498692 0.19864085913778692 0.08428616094359033
Ni 7.526942340028452 6.369550010546896 1.9533142336096263 0.5617683001291551 2.5354381037841174 -0.4552611230038353
Ni 6.730637749726924 0.643233854442127 7.299849831032329 1.2463759388847504 -2.3605634938279927 -0.8198193829044591
Ni 1.5616676034076418 6.918163308530262 8.369681697264962 -0.8321159408836251 0.5733678320412965 1.0679547492279478
Ni 1.685387243143755 0.3325374838782685 2.5916235703659916 -0.7962166558838546 1.0349471839536757 -1.244006410211309
Ni 4.698107478211571 7.981881529796682 8.118538762338394 -0.14315696713786957 0.4011116335446253 -0.8376654099469444
P 0.4793629680630235 5.994741571977046 4.462056379232897 1.2884301877423228 0.5257201482563462 0.8359679676398635
Ni 0.8329855267178955 1.9396402032653484 8.546919531668665 -0.901545496430357 0.7677447736964068 -0.045475358723979745
P 3.063617496137679 9.578074893097487 12.247950318888272 0.10234353266593342 0.29074291658137025 -0.9783965412521408
Ni 8.418022428019945 0.17626618487548665 3.2092491861374284 -0.11294547655149581 -0.288121162687807 -0.7937591954822976
P 7.031335743973519 3.0054305301539044 2.709817595109741 0.9502517033868085 -0.74288169190614 1.0076189284523678
P 7.288248839691098 4.814565414461098 8.410842862053515 -0.7562324021814331 0.5971122268460878 0.8367063884677848
P 0.3436101816239457 3.965226120803811 13.19699149468311 2.0894306381680665 0.06742255241903226 -0.4595024147786925
Ni 6.262631227206482 5.272146072207097 4.521713420151295 -0.7656534383850168 -0.22869885486543196 0.5418769605218667
