# total energy = -340891.6761130938 ev
CRYSTAL
PRIMVEC
9.03391137695697 0.00000000000000 0.00000000000000

0.00000000000000 9.03391137695697 0.00000000000000

0.00000000000000 0.00000000000000 13.22204246193773

PRIMCOORD
 96 1
Ni 6.165960550395018 1.9978133163539695 11.364120005503041 2.112973972705645 -1.4487888634704598 1.5354918613856587
Ni 4.646276015847412 0.34362287861483337 6.186805396994798 -0.19816006284662646 -0.4740551157818868 -0.3113125132026058
Ni 2.6885190615561227 1.5516103765704994 4.675432964101201 0.7302858575190004 -0.13999759557328148 0.559230878419282
Ni 3.4498067546147766 4.337460796914018 4.712203692676692 0.027520831128088088 -0.043797713911240696 1.1719669278455558
Ni 5.191201536736198 4.332600552712458 3.24384261418468 1.668760622875539 -0.2817880213809276 -2.1215629999262364
Ni 7.41520592059702 6.181056215935554 2.737888482628821 -0.7685287030502829 -1.5658604463751873 0.14139061926606616
Ni 4.87288264326741 4.831046600707133 11.534314374713656 0.7237033192054761 -0.8143542460248299 -0.6102747323699748
Ni 5.426706566644184 7.8312355971217285 12.276309247109012 -0.05028126475305534 0.3932165470672647 0.6931776398127933
Ni 1.6407118422954015 6.53912431848774 0.5059161891290069 1.1464934661647996 0.41918108945182647 -1.16899601814269
Ni 2.631099522252921 1.8418789759020242 0.06657992521469415 -0.5792476878608411 -0.8791511878955569 1.0210082052750804
Ni 0.7072540636564651 -0.11051093177189039 4.6409107760122685 0.6443205091007741 0.8988417243459487 -0.30129960905129405
Ni 8.481234538658018 2.43978838571675 1.3055961978155313 0.5347254370787501 0.3245158992667572 -0.2560726188926945
Ni 6.721654493380942 0.6851724746195211 4.689421975525211 -0.23747017330015877 -0.11272461878994135 0.9475787845403358
Ni 1.0498759849152892 7.398312506736576 2.7565706108980184 0.03715501178374246 2.131615756176548 -1.3003212827529542
Ni 7.703857449831744 3.815842766805954 3.7477478546905125 0.0041767570855089356 -0.5123046461813886 -0.4450345601798206
Ni 7.4265163773634795 3.9205367631849346 12.665605773742902 0.28496564777796085 -0.6131857353691827 -0.5004469755118542
Ni 7.987115734106742 8.652318748117432 6.7356516353249924 0.3567130528245921 1.400186271971408 1.1716853920493948
Ni 6.937799851683082 0.4364725140780769 0.2356802877843999 -0.9097560572656074 0.16126910335754807 0.3011294020220169
Ni 1.7582159246926234 6.524091890325291 9.006616999544505 0.7038739431843748 -0.5879475296276842 0.022336972934303468
Ni 9.220732438010046 4.835202199838579 1.3981513277751112 -0.2716807577435966 -0.5604372400225575 0.3955675637979446
Ni 6.508092833669223 1.9089467323191056 7.083721908401588 -0.648019040998284 -0.452923218899278 0.379526708284998
Ni 3.742225424801267 4.661227138809464 0.8389847493410821 -0.2993730814525425 0.2159641809075829 -0.6665170998024715
Ni 6.195907965874897 5.474577261856214 4.905985603913843 -0.23670732699220526 1.6731286700362475 0.6278348527409251
Ni 5.234022275612405 2.813349645900308 9.458361340430647 -1.7966794329074154 -0.6938654099084373 -2.7882176537478367
P 0.15840782532627123 5.790149846333786 12.212988757039158 0.21768656291532837 -1.2529831597886227 1.2167961683451045
P 3.7777377295528223 6.267953407338559 12.470263706049229 -0.9727948787946472 0.9712661008549468 2.5264767808257713
P 2.3003680348567266 8.626048134477768 1.2806047859954592 -0.3192204551957728 0.3894210845805745 0.1274593538969547
P 6.322337552493574 7.664451529372246 5.859598941731409 -0.41868435232106604 0.1984477692903744 -0.9462886049740026
P 4.608740114997065 1.0214010969537266 12.69983797328375 0.8153173812690474 -0.8874342538399556 -0.7357224551535393
P 4.2696341919598915 6.341200358985877 8.158833220738144 -2.2533847445569446 -1.6902126221017275 0.01349366361106063
P 4.752623217967816 1.2042293909150537 3.620512443196782 0.5256964941072624 -0.6125496444470806 1.5671426555217203
P 0.35401097305233353 5.69794974908261 3.564635895918909 -0.8984198063171817 -2.3646638891496115 0.8433357208588445
Ni 1.3856664625584618 1.3626570908458666 2.3009787272508264 0.3423639831917717 -1.2292693611114507 0.7282035210686749
Ni 2.114983144038445 6.4060728749922164 4.807613538561353 0.015102402859077216 0.7556677879272147 0.3543424957098866
Ni 5.920888608573549 5.722973682982841 9.311438326356132 0.6247955516939692 0.04943177226856649 0.4455649787619939
Ni 8.473555714176 2.3164664645355035 10.278907877103725 -0.6537112062870548 0.983255669116655 -0.6355576753064797
Ni 2.6863870585234677 4.981126966730431 7.079756021404403 -1.0726860932653461 0.5305792761208603 -1.0643744880758572
Ni 0.5142120297429355 9.106905157453038 8.80305045913503 0.21569035842090598 -0.8936689218957576 0.9210470567983944
Ni 1.1348760549756771 1.0701390476366677 11.171316466844013 1.1155738937678077 -0.10383837204390504 0.9051087883015831
Ni 3.8821065051302117 7.123790014548771 1.5002652391281337 0.7746103904679885 -0.9700404559779617 -0.2128824566584656
Ni 5.751891232591014 7.901456188532015 8.092286720994723 -0.5360112457697092 0.6023703899212336 -1.0272665274799664
Ni 5.037001707226073 2.5674375503413946 5.262147551212257 -0.02141651800256312 0.9734461392254008 -0.430931030898903
Ni 0.8681977078440342 7.15701673977803 6.760760487990083 0.21680801696511695 0.155292574059139 0.40717943700526
Ni 5.193306438035387 4.410590307716319 7.248376683291761 -0.0815376516641757 0.1270783164084521 -0.20055016034535786
Ni 8.144134143897325 7.166168091778367 9.253446037085682 0.29672175987262445 -0.23688884687539202 -0.5204046495807038
Ni 4.583797486297232 0.3518419309839417 10.393173302351766 0.4528633121956201 -0.4286862007287843 0.39675335657592964
Ni 8.331027697878545 7.236262208432481 4.921191483170474 -1.1733967183135467 -1.5769897235191292 -1.2358968937302974
Ni 7.3824308909255265 6.045827599851597 6.964538421920593 -0.5910799046090788 -0.4528679401813104 0.42531059938833204
Ni 2.365890992466249 5.245341766290019 2.7311582188181087 0.13832123631212306 -0.4364730437630548 -1.0755814125352703
Ni 2.1748870089093586 5.358979334712766 11.311073782590128 0.6154665609835593 -0.4209888320845266 -0.03903860195970051
Ni 1.2110138581926977 3.2482059932726988 3.8194247125790373 -0.8767376933580577 0.6165826768658735 -0.6369342439390322
Ni 3.6937855931864516 2.7921831920633977 2.6378370131925575 -0.6663553774136265 -0.44506232809396257 -0.473017675656308
Ni 1.0577625893538818 3.157243541849801 8.33899651090865 0.21352908910352902 0.3677806234926634 -0.6854604736741937
Ni 3.5641309002853263 2.559704522392442 7.348255605024959 -0.2239996496175497 0.8345340634068144 -0.9510124928122331
Ni 4.184245663719825 6.871174756912612 6.0728444145526925 0.5015728615861813 0.02917816422585297 -0.7821126123823047
Ni 0.9394996584196131 7.490512603987752 11.139795344040875 -1.045958704572831 -0.35797032227046094 1.2072033824503468
P 0.09387408098825663 5.522700906580595 8.030671833350993 0.690005926953031 -0.702076742074636 -0.319152835182631
P 8.521498680677272 1.6528805206216148 7.8258224775574625 -0.21485037901811385 0.438924847737657 0.5878444283909167
P 1.9522282006642342 3.1721404613449202 10.550104986595258 -0.44419612343892534 0.6690156978546091 -0.5253077433092759
P 4.186793226665625 6.205501979521844 3.6212134747024347 -0.8087019328350589 -0.08151039797066607 0.5084968423995242
P 6.5550240021211 3.9247013962275368 10.478878017482268 2.7245795080719013 1.6436787402062465 1.1310329086353552
P 6.255206558698404 7.794539850008827 10.21624866933044 0.5314099995522719 -0.1491725772043302 1.0106674854707045
P 2.5006046756143516 8.453590770522746 5.784286837993984 0.36115026266033934 -0.2575201499724984 -0.4640172719299106
P 6.835825062561852 4.042322919469778 1.6912186327825538 -0.11340776089989502 -0.32098628884694397 -0.4026923477681839
Ni 5.198482869127384 2.850822309372567 0.33056436003982104 0.9263877522850175 0.6082332764599138 1.4170568224745015
Ni 1.4163275570196112 1.0029267486411013 6.793670122937792 0.2665897163739344 1.1567308276220918 0.24311168785665227
Ni 7.0626575377607335 0.5782624598341406 9.14841055886503 -0.6619909297973438 0.6955420262799119 0.00716720717240056
Ni 2.7648827125520263 1.5637429192520915 9.342906149083452 -0.9507584678198979 -0.2991774205019686 0.2935132802376558
Ni 6.562061418911093 1.675980231445763 2.4091092234332905 -0.8007579953976338 0.7224303660303235 0.3232293192448498
Ni 3.951243027201861 7.0033408771149155 10.46079032056709 -0.013890127718530917 -0.27647843624255614 -1.6149602892256316
Ni 8.206946928160251 6.992491149817378 13.895705576033441 0.11081917423711238 0.39018161689568287 -1.1484521325530674
Ni 7.452534041490795 3.9165257066319734 8.477048224228644 0.3627955115732462 -0.46238847807723593 -0.9627884024012386
Ni 2.9813442577446025 8.582369174041805 12.25005037755385 -0.2518902053802307 -0.4718673641019486 0.5341153142985768
Ni 0.15480058460195276 4.762253367259385 10.02589151381227 -0.22185226425724372 0.11203170648797481 1.3237741144592556
Ni 8.56590035400566 2.2254588435568294 5.655623165146597 0.4680279357512004 0.3630001713848845 -0.3390485456652935
Ni 3.895277947594666 2.7385488615342743 11.534340573056006 -1.3244749971810221 0.10637425109188131 -1.2277680939755757
Ni 0.8723298188064766 3.585143777632596 12.425043560370169 -0.253318453186325 -0.5733812017777351 0.4536672961541542
Ni 3.017967733568262 8.401157950177279 7.954711094792615 0.8204747571002707 -0.38852222691538896 -0.4939809081715363
Ni 5.6023800029704995 7.854931546082128 3.6662610726784286 -0.09335495601407794 -0.34027779008670433 -0.21971104954452483
Ni 3.2154670992458256 8.553605200923272 3.6030724777114407 -0.3784843830634127 -1.0753528414642317 -0.122853222583511
Ni 3.389125973384505 4.450267245510476 9.199645482591302 0.3232306047964304 -0.17894518048107244 1.2428126470135241
Ni 7.242242657617301 6.161398425261582 11.48961096875268 -0.209202179593401 0.05976632142535514 -0.7756313755333352
Ni 0.41797196742310105 9.069685443493126 0.2571529912094754 0.30424377928128243 0.12309413494972349 -0.14796647271137095
Ni 4.468542847777684 0.39455787649074764 1.7027341593322376 0.21691677462883932 0.13526548020493478 -1.8936591301582741
Ni 6.09417709235486 5.6543611277582 0.33212451649634445 -1.0013755186458173 0.4487359202908079 1.19521304285769
Ni 8.096209245218363 8.75960547699799 11.181484133849322 -1.3393773682141514 0.6421499838120166 0.8331988895351586
Ni 0.1267801023715027 4.755613442560227 5.520480371218617 0.24798984188455997 0.18203487514998973 1.4658023673093208
Ni 7.823123144904253 8.477846821974774 2.625011569525352 0.2323732183932256 1.0344730725307347 -0.2967577553168825
P 8.486293528904998 1.3055898740777225 3.566381247554116 0.3674823755259542 1.6985913330837261 -0.8421530134046528
P 1.9730242641437767 3.328345819131525 1.4687043671159143 -1.4279215331031472 1.0053440163752623 -0.37596161664155897
P 4.588296374052581 0.9876233031439925 8.330613944747633 2.091302144159166 -0.1810159469671721 -1.1345062118959366
P 8.335409144788875 1.7422168680365553 12.42200274587529 0.35605922129067713 -0.12103956641353991 -0.36852598629912015
P 6.137955425813531 7.67237426945546 1.2848615649318451 0.41387073298250654 -0.14810171273765463 0.727991919278501
P 2.0019056781073283 3.207950885164601 5.883928167863797 -1.1349998637029033 -0.054820547384305585 0.9017257307619632
P 6.863604339364455 3.73975013314471 5.96700220806587 0.6034988470987219 0.4315306121561149 -0.33274754314793015
P 2.2948754168742935 8.443526993495722 9.958749679323715 0.9691089453026278 1.7550242192604741 0.8779651380072558
