# total energy = -340865.00146438705 ev
CRYSTAL
PRIMVEC
9.21202068334188 0.00000000000000 0.00000000000000

0.00000000000000 9.21202068334188 0.00000000000000

0.00000000000000 0.00000000000000 13.48272343538972

PRIMCOORD
 96 1
Ni 5.932532029747265 7.52969373070258 10.155793910706816 0.8058505794291928 2.0677019882417227 -1.4683873544276775
Ni 8.609241208313652 1.189999604146469 7.701627803669162 -1.7504060037621725 -0.7784655025480206 -1.3284275540708672
Ni 3.4688968867741874 3.51835622517023 3.054632322112232 0.17235030087237416 0.06020006652866407 0.6781747386460578
Ni 0.9839174921595312 7.74746589678238 12.85461746583374 -1.635201813083487 -0.5652320903080394 -0.20094996688693778
Ni 5.911123293961755 3.2491441362736104 3.636694762508543 1.5360937566357158 2.060367659363839 -0.06424698290452807
Ni 5.087237023000968 8.87712676624938 1.4150796661379068 -1.1854647052216747 1.5526267212937324 -1.395393478568455
Ni 3.9204517106701116 8.012458880261716 4.044318381547532 0.25653798856488724 1.5768323720056585 0.5865419075294092
Ni 8.048017279630077 4.259969940494017 11.314755453974577 -1.9273614075067256 0.5403661803042953 -0.9339429389244561
Ni 1.4414509174000323 6.752761128545038 3.229139312421711 -1.648792150173412 1.3465957403394615 -0.4782187602412732
Ni 7.113973666791868 0.16443733063342894 11.31916432701543 -0.9179085111694126 0.6523485216115733 -1.1786826493028346
Ni 4.513457110291728 2.401564548427998 10.441708314083948 0.20934436159822012 -1.0192048335177541 -0.9071677277131409
Ni 1.0835362825143096 4.648993568816773 10.921006059103643 1.5128075324142656 -0.16267266857329404 -1.8789552482891962
Ni 6.055162447465299 2.7549745052590247 7.828433109105781 0.0851528798192598 0.04488837587225818 -2.4197135218255874
Ni 8.458025890792504 2.7014987258980585 4.103332427670223 -0.4262032864059305 -0.7397130643701711 0.4222075349829761
Ni 6.656200729016761 2.4820223360143334 9.915653116298971 2.152405953449022 0.6264104615895728 1.6315732151919644
Ni 5.491174912613199 0.5116153555544305 9.169397463814118 -0.7059084571159003 0.49778871195340074 0.13476951440512275
Ni 1.872177362805837 1.644133793799684 6.787418592302459 0.5546301464224771 -1.3416484236365152 -2.5495521745879963
Ni 7.433603144222952 0.12558747631835526 5.068061280999626 1.0952194984811718 0.6176972500862911 1.3032186589054071
Ni 2.323308433755921 2.141592116154815 10.675552692437833 -1.7881220302557077 1.0774439196653058 0.46354676005139517
Ni 6.658798518815175 7.534023380366603 6.287155209686275 0.7884408685931776 -0.37001054126444666 0.5136945845503799
Ni 1.8839779611454404 6.489518428972434 5.453842278084647 -1.1105702699056292 -0.8963680659944756 -1.1439935825610814
Ni 6.254593480606652 6.41643946985606 1.0587025174839406 -1.3316535172073325 -0.36249546383432407 -0.6037760120195085
Ni 3.9092867417492694 6.203033801522531 9.522078749818709 0.03500942619564938 -1.3381506948959019 0.38791647501058996
Ni 2.250155778475054 5.402260490151176 12.946380245053458 -0.4357667617246495 0.5890145374396178 -0.23098919356150543
P 4.259951516452894 7.056232721910811 2.1022531035479126 1.06481594648865 -0.1072869927141378 -0.22765241587878857
P 6.902391978529564 6.295918604846668 8.353585528875705 -1.082917026964735 0.5653102518441425 -0.5191129273524737
P 1.1348380250227024 7.4673836236228945 7.956721549852841 -0.5695132341818966 0.17197414847987802 0.8087731523926265
P 8.368825895693066 3.4599428027881647 8.785976586397018 -1.1580364338073927 0.3918528339505187 0.24392569911751538
P 4.715264844738012 0.3625003787213624 11.251210936139616 0.2751473761359584 -1.7263600185565624 -0.9737790970847876
P 0.0003205783155489447 5.8069906135317195 12.51558010348316 0.375373862458889 -0.04684241427483545 -0.019661740094985492
P 2.58431261233202 4.301847785967738 5.343904182296594 0.4782051333945183 0.22604547640298492 -0.33618485096425327
P 7.5487626132654055 8.342921693873421 0.7606328529755789 0.06522683031929412 -2.8412086041225715 1.1820921892050158
Ni 4.117441558362601 4.019204571092086 0.04457420389214593 0.22329876689578318 -1.3657478877878801 1.6138963667374915
Ni 1.4434867739441792 8.742041696731857 4.298332478921374 1.5241676946220912 1.7187922335116335 -0.2578554218247301
Ni 5.721521486759791 4.704661809071436 9.442962232426163 0.8381166385517502 -0.410242649311616 0.23757198898534568
Ni 1.0774287128818685 2.617153465634664 8.557579275801293 -0.518645757908068 1.1507141891143666 2.560251306173055
Ni 1.1363580084153915 0.8364579154214098 0.2859438818429284 -0.034286431986695794 0.11658178775250244 0.059158769748343276
Ni 5.384306262076323 2.176818882782952 1.4401170168226907 0.22758890963070483 0.3325148583118338 0.470714481444428
Ni 9.155523239646064 6.718391079829145 1.2541355337014939 -0.3096286977422797 -0.11544561726553021 -0.5672938579330745
Ni 9.024003222085941 3.4266321364368726 6.561744354984788 -0.509923804654038 0.012284473794307877 -0.15860492626182363
Ni 0.8902948059883967 5.009478357439225 8.307231562611028 1.1826159229189697 -0.44862227753107903 1.869883625005231
Ni 7.042083058327961 0.9252461332017373 0.11605119263283033 -1.198562161835581 1.6172894515794405 -0.09888822712748131
Ni 8.251317361407366 8.14134425994118 8.934636489414336 -0.009845782445828205 0.38046747493171246 -0.5397077207846899
Ni 2.9946160081524225 7.522950531651377 0.3338556007845968 1.184717799753321 1.1966343486852489 0.27259581335869826
Ni 2.69440547006551 8.578344091349537 6.258882597380203 0.6165027155575575 -0.4492599111150779 1.2062980970272579
Ni 8.575267276481911 2.4293848505244866 0.9785164845041764 0.4983139883292515 0.6052191722239383 0.9331096443898834
Ni 8.438708283674512 5.057601952853814 4.665831299999542 -0.4130109560853726 0.7053803525265723 1.9450259146660245
Ni 4.996231471871426 7.607415548182075 7.987287034076732 -0.3739420151083689 0.21225227927363444 -1.5058400999574968
Ni 1.2378284149030818 0.2639013590427699 9.42865688569582 0.7857774628284016 -1.0605561427710315 -1.4421626164031938
Ni 3.8482018334042967 4.349151511552331 11.376721952687308 -2.090416656230419 1.9582107887874145 -1.5476673204059281
Ni 4.923511781556962 4.990676623472691 7.23435727269489 1.0776676056403376 0.20770605466384875 -0.5987857578937688
Ni 2.344385536801208 0.040157040032786195 11.707223456785373 2.544163399472257 0.08335465026825645 0.609719116976821
Ni 4.201611790235322 1.2569525695892776 6.739649659679497 1.436840689969648 -0.5259754588002619 0.29793146391000946
Ni 1.8020830983514715 3.3051992813918667 1.2677748513452227 -0.13800524773360104 1.3050729385053266 0.6743597357753418
Ni 8.362276149073661 5.953894705429966 9.860145165202084 -0.15231343682615703 -0.22625013621462325 -0.4796971445590126
Ni 8.199914286672795 2.133034149052948 11.93087565558974 0.32648305029545704 -0.700579074483187 2.251267441103626
P 2.320065802518185 2.4826763894742183 12.882432240717893 0.9864160691225077 0.24069999309136614 -0.7388710280848502
P 3.299119347821111 1.0256203092425793 4.105327751323898 0.706013615235197 0.19349736726363448 1.2442966877582182
P 3.435715188710759 6.717119820991622 11.49644874152428 -0.3979957136234629 0.48669954401877474 1.6848217901034597
P 6.678088489871483 4.009117408576968 5.765320038520637 0.2894421954920757 -0.37162288005688904 -0.2833800484583959
P 9.122498145932186 4.589078587083144 1.958770356086299 0.6082980682595782 -1.0530176683021413 -0.7670431196436919
P 7.179940946034569 2.0088745359216644 2.4566469041749337 0.9101970014577679 -1.8741984503305011 1.026185892821278
P 0.2805714314513151 0.11565139094045032 11.489949661017963 -1.5273473779016535 -0.33790800430294704 0.5685678395494919
P 4.587595451772701 6.6097997814472205 5.745608156922601 -1.5289702582170572 1.59404307945699 1.7319017743103982
Ni 0.3928152959859736 3.709533287888254 12.919940824839175 0.5293022091806497 0.1716260211118399 0.4223286339418727
Ni 8.779479348294814 0.04535446203372627 3.149415722874147 -0.8896250908436871 0.17902128513464652 -1.9029909490821615
Ni 2.781772273073159 6.236160227462587 7.434589751625115 1.556317025661126 -0.18186286834849968 0.8554666997944235
Ni 3.8747877247455107 5.718721032509018 3.852822582918071 -0.40167496224726307 -1.0757297651876765 1.0782515031682656
Ni 4.547891643151553 1.2279347048197609 13.128707319617808 -1.6720470069362945 -0.1284579703647981 -0.8793813016284919
Ni 6.133215897685018 5.995496190286835 4.484124194418999 0.7129401671517012 -1.2936680391024946 0.884877805966689
Ni 7.494356419827701 5.69179429640702 2.738624089963972 0.3231393306342048 -0.2731200612932845 -0.9460263524515513
Ni 2.925617974144905 3.642644806589378 7.4064378167884035 0.9403598981943933 0.620136712765719 -0.8126524328423747
Ni 1.2116202164048995 7.116506972446349 10.452171327037984 0.4658674377647719 0.3578091141022483 -0.6726874902792415
Ni 5.816985655841219 7.85109191608152 12.79486185205583 -1.450134835975393 2.357023341885218 0.029234471385085135
Ni 6.274288780567677 7.928472888800232 2.9056748708307696 2.1364723129379013 -0.42109964663077804 2.320152694111114
Ni 8.664080366717757 5.936935375575782 7.012404691684167 -1.2706281265638957 1.582689602117384 -1.1173613246855338
Ni 0.12461008093675345 8.422845184267176 6.188340628726537 -0.03976133905833798 -1.5224712807562746 1.161844237589257
Ni 1.3557054300112512 2.0391360234670173 3.179846711597836 -0.5219997619819655 -1.228570278161897 1.5585921948485482
Ni 5.788612632511025 5.983492927494873 11.510268614771018 -0.6839607492002157 -3.0700095317835063 2.1391953682960194
Ni 6.849201771806013 4.419936677548828 13.356039720636595 -0.1524121671875504 -0.689822093076999 1.0646053731397407
Ni 7.827674959813549 7.290319376405472 11.857259635674616 1.3983476761007725 -0.661711450883712 -0.048344452741658675
Ni 3.209182391076733 1.4761065387533405 1.9926788825720494 0.9666149752361805 -1.5707046618413658 -1.7188824792325945
Ni 3.225902208396312 8.412675113567003 9.570009814003559 1.3760680387669655 0.2909149233828603 -0.06746651828309026
Ni 4.579461237616675 3.158332037575866 5.367890441435282 -1.3053292774905068 0.3154525035129083 1.466674742611945
Ni 8.65499731444387 1.349496528152631 9.943481709213966 -0.7464364991369339 0.8079033481931636 -0.43511164463915386
Ni 2.71092262293273 5.65308538600654 1.8792088981006216 -0.014236455314356126 -2.07606552971507 -2.270016182466039
Ni 1.192597393944883 4.452519594275742 3.69384798047776 0.9286007007759363 -0.8178620020677722 -0.028039165525403323
Ni 5.793531851491 0.9567788795846118 4.0271683628677195 -2.5396534274170453 0.27562817242711884 -1.549156503356945
P 1.9390750561252748 8.928253480367097 2.038344710900763 -1.2969027439897085 -0.8674177015087124 -0.14805671843233212
P 5.28029333791359 4.2397587673815345 1.8352417663634952 0.2564780818612293 2.2159975621577384 -0.11087856672013809
P 3.0419934299015092 1.6507480245630213 8.552953920277238 1.6685446502099912 -1.623054893308308 1.627575663996797
P 5.802817568217246 3.7009661087658254 11.644232581386174 1.4402474016583517 -0.04015831738644051 0.10152026543368968
P 8.24265806207932 7.31392057308468 4.364114596550784 -0.2203214294350141 0.01867006560567752 0.01937300520997309
P 6.372737644311112 0.3551501075151411 7.2703154737556295 0.5846904561429672 0.02064492994386122 -1.3534559577944045
P 0.21625770989944845 1.3051314371272367 5.673732287691593 -1.9411036967934827 0.5011478582336208 -2.727876690765934
P 2.817745213366798 4.266270962558255 9.434427295375702 -0.6902751214540176 0.2793259329936802 0.28928510108892114
