# total energy = -340874.22838124604 ev
CRYSTAL
PRIMVEC
9.20231074162295 0.00000000000000 0.00000000000000

0.00000000000000 9.20231074162295 0.00000000000000

0.00000000000000 0.00000000000000 13.46851195418729

PRIMCOORD
 96 1
Ni 3.110279787516878 1.8536766559806679 10.915730326767115 -0.0744617186540008 -0.419439999540168 -1.106231019100327
Ni 3.0630995406135795 4.476464034739549 11.093797799295473 0.7470767038240941 -0.35237868711529635 0.5201028020695687
Ni 0.5665779870516657 2.62334871971092 9.540703579203234 -0.5719614386120729 -0.44463758185171814 0.4104413955859834
Ni 1.3600555083036936 2.4838048804205703 1.3152954691116425 -1.5138827677563154 2.5247572270315035 1.3555344375899883
Ni 5.925413864300482 1.605324695101747 8.016970251595813 -0.19482791314959996 -0.7489091290471425 0.3613829474964357
Ni 7.205979812871253 4.617728706128771 2.4925369530335098 -0.7652824281988433 0.2935251073121978 0.20620530174860616
Ni 0.7107883180924858 7.074883694793549 9.178710443161798 1.509665387240858 -1.4805854391557662 0.1671528158318347
Ni 4.861166633099683 6.127358572373994 12.2124656554498 -1.2972650124251337 1.7855020761343574 -0.8791118500171893
Ni 1.1098078714228068 7.510475071264709 0.3758370922422012 -0.1121934288768197 0.5531427632436732 0.23314094979718555
Ni 6.44416652246954 0.2428103293819114 0.9613957653213185 -0.6397305757372467 0.9338758331319464 -1.0432572464812677
Ni 2.2816301145798303 0.6335422817055792 0.8494855447994331 1.7005024340635102 -2.420700568329205 -0.1282250284183856
Ni 6.40113651768705 8.334597207342693 12.229327969556607 -0.256865547107635 0.28573569317476594 -0.1400076228756105
Ni 6.257387222411756 2.525813428716564 3.763560105419627 0.07169778275561846 0.9621248006753108 0.16511444524556726
Ni 1.7711319290989456 8.942529458400353 10.276380466785609 -0.9389285650645054 -0.8280438276967805 -0.14114739290700853
Ni 8.89366518864094 9.12067699103171 8.876570976304764 4.739575167058844 -1.5227913830998547 -1.556572593315358
Ni 1.5233413091720633 4.504282619952866 13.26516398673571 -0.8166872650333806 -1.11326324335676 -1.0036954250282457
Ni 4.767919618886473 7.586256099789902 4.722424315070358 -0.22578476654243052 -1.0462530958847982 0.5669182197612107
Ni 4.469801561800601 1.6649832752995404 1.9797363494181983 -0.8018946801052383 -0.5445357383009526 -0.6439366433987942
Ni 1.693906137795555 2.6638664936752705 4.109027731925478 -0.7549949302299062 -0.18491785312473963 0.005467965093106712
Ni 5.42893079799918 1.0911087761024434 10.280380711242184 -0.03374367210934834 0.3879211029962803 1.467268667442202
Ni 8.04966606147438 7.572866737737181 4.836933268130862 -1.7063149269802291 -0.3777323353887366 -2.121385079587476
Ni 5.0470625113313075 3.904172332980987 7.794510832302967 -0.09728617274768407 0.3024854018292791 0.9550316412739552
Ni 4.07014520857059 8.975657776881311 8.47718885193329 0.13497211733423206 -0.1374205788747246 1.7436630286113841
Ni 5.660727801948311 0.30914426575361775 3.6532391239537585 -0.7251901881636478 0.08237634551538715 1.353379081809882
P 5.105368351857794 7.891147057542993 10.527851090757084 -1.0719551286365927 -0.5026663517606762 -0.9047169521798032
P 7.931397964497358 1.5952941764505681 9.009006950818812 -3.1519091947727915 2.0261884423789684 0.43261484635922914
P 3.859237449885842 8.764418735011754 2.544848408377082 0.5584140389449415 -0.9733019003380528 -1.4845361962733983
P 1.2438487289210416 4.892390073267986 9.871220211532414 -0.9359232025792785 0.6392461799016603 -0.04474208010238101
P 6.946465449126387 5.352542416968503 11.900184321982248 -0.05872605308629886 -0.1543060417761536 -1.1789117345945053
P 3.738917237625138 7.449509762949056 6.86969517220211 0.5823034439680295 -0.22726649329427956 0.043523891424563754
P 6.8985950289214015 5.205397469048911 7.516426205587385 0.29091158094875064 0.23583340902768418 0.7497892176592506
P 6.392688796474405 5.912861912520475 4.243389750066764 0.8702556851781399 2.3644522873594376 -2.1606244847040728
Ni 9.068895588783832 4.172125215627808 3.6353535128983165 1.6510279814824662 0.2533775885590346 -0.26916544752091065
Ni 8.782059564602864 5.891503349410946 12.921030695279786 -0.7147751634779109 -1.9499814588990867 1.9104661744132838
Ni 2.798984021524136 8.661914196245254 12.230014461934017 0.16523760108699284 -1.1972637547391316 0.6262055446676182
Ni 4.5246749404400335 0.8846632178708667 12.92094971494572 0.5935980430452422 1.3171195852572153 -0.3954521212660028
Ni 4.647442967344053 5.0651910633889425 2.7048407022498027 1.2456938252160612 -0.4450083349275755 0.5735313542023542
Ni 7.823224802346338 7.291441672241437 7.82088189404488 -0.470944338067047 -1.7768765392488752 0.6149875644646119
Ni 2.322828859535178 7.878024562500257 5.148809699928089 -0.20083915234068636 -1.844971949365216 -0.584884060211012
Ni 7.5941056708077515 8.934919147460421 2.78539588956053 2.5930588396213796 -0.1906717248893813 0.34356700236093735
Ni 0.30447225261673366 6.778449660563791 6.37439092190009 2.5251269516660964 -0.5396542418389352 0.4007902456494646
Ni 6.182977338179247 8.628831889317741 6.551003509108494 -0.03400643885243175 0.10443281109479434 -0.3088799925017132
Ni 3.0075635956045277 0.6191701128712567 4.078332504390732 0.6135024952786531 0.8749386924761062 -0.9153530917374106
Ni 3.77266211092227 4.196557350507516 0.5607225567601563 0.4700223404734098 -0.8607189493322983 -0.31803980462411036
Ni 5.467092780427107 5.248859982433792 9.936192205922126 0.37311874787612515 0.14295667820160543 0.5482990619981266
Ni 1.838566461829075 8.349265690581207 7.428625118840019 -0.48925007835477025 0.9009726546460225 0.9461641635809963
Ni 3.5710394837228794 0.6225298765038672 6.394741831989156 -0.5267401048804283 -0.5990786065438393 -0.08911212157732394
Ni 6.983375917300588 8.632411588175822 9.58595778247929 -3.395575469581333 -1.737760032863388 0.6992439006115312
Ni 3.2768324086798986 6.68837744353834 9.436847220996498 0.7407697877694597 0.7398331348878032 1.1178549764925005
Ni 5.64004100751909 7.289730042453254 2.4479158687328653 1.692782182601117 -0.47924308774072955 0.7709013170475174
Ni 8.125750766252315 0.7849543410917322 11.052152742271701 0.0007191375542116647 1.3654527251449646 1.6178311830155234
Ni 8.004740380689924 6.090659757345642 9.806221530441704 -1.8649370796332332 -2.0232306453022253 0.6565414766469982
Ni 8.534222933122537 3.8125817346918254 11.18036025502408 -0.34565833767232723 2.1738114157079917 0.5533600214608019
Ni 8.993712710453435 0.5505751687632248 0.8315658851944412 0.16266521237412632 -1.0265486754773352 1.5326747036518378
Ni 2.5990822264236177 3.503549737128615 8.898470635282816 1.772403076858554 0.0869613937829083 -0.058396180550705876
Ni 7.151649370562481 3.2124254361665012 6.70582410437391 0.252450705869391 -0.8833719108451238 -0.8005456222765116
P 1.138279820695053 6.170241340185457 3.9822079276250233 0.4314012856671022 0.6225026418947344 0.05527383287164028
P 2.7643649287115344 6.197268526679506 0.12626214427269183 1.9305074093348753 0.7520006234882726 -0.26507970748731124
P 3.3193562863744845 3.279271021012524 2.9166732931588113 0.5979689184194282 -0.09028043085381227 0.06961827451877042
P 9.122811927111593 4.435228480541444 1.3972365244121563 -0.5875315251361881 -0.42984165448946615 -0.7605423424106967
P 0.3589646555936351 1.0462199045607443 3.087279532180404 -0.24737817644249008 -0.38312419582826923 -0.48481286851902305
P 9.06085276924151 3.004361191484702 5.492068771868543 -0.19213751080163038 0.009781504866796057 0.34649677441322263
P 4.644682274137306 3.2292748670383444 9.950563454525378 0.14843029972166696 -0.402484602632752 -0.4881082514408432
P 2.161411127736707 1.2263091247475117 8.902712900510515 0.6855885146116257 0.24938852200429956 -2.106120440118921
Ni 8.136563481312072 5.114285390915585 5.5215244481534596 -2.0465814042130237 0.14462223882948644 0.6054577705973057
Ni 0.3376530242686206 2.3209055766011453 12.465673675679387 1.4029908312997386 -1.5211011398816254 0.5642363020536735
Ni 7.810387578934967 2.4619954040872725 0.6480442031206188 -1.6761057503867003 1.7877289085823471 0.19866785572098042
Ni 9.042218090095972 1.6696856560616986 7.19757258182564 0.8926247969019595 -0.3209757473239827 -0.7071081338509564
Ni 4.0049100280951695 2.5933491868642737 5.0371019302413655 -0.3326380141532594 1.2431422624388009 -0.6962372525747236
Ni 1.3288688773781465 4.733134884481466 5.675348433171241 -0.3179793836998201 -0.8725002582379425 -0.3769262945476734
Ni 4.625072150058717 7.880334342483235 0.5072120403337876 -1.6907579530822365 -0.3081315443714629 -0.5933861841447522
Ni 7.269669005150896 3.5623248955002498 9.292936885284142 -1.041271840620123 0.6892572217124645 -0.8854563041779783
Ni 5.594977292074297 6.933784664996732 8.188370650029878 -1.363014548017117 -0.20670281021031497 0.4521968822562148
Ni 1.0442598123839544 0.6243261675503903 5.200919624667568 -0.21685738214581363 -0.294149371159758 1.2616369788088788
Ni 3.038842249636967 6.765943720337229 2.450487914570484 0.5413583690142354 0.6499193433447904 -0.45033746044997286
Ni 1.6626274837631165 6.337060828358462 11.519725829311954 -0.2014035094845886 0.93766178253694 0.027200214563875735
Ni 1.9576075529039867 4.7539597135710245 2.185615965542392 -0.6812870590227944 0.34801963881565223 0.9339570799918432
Ni 3.3577115173268837 5.315558330308788 4.604412962561563 -0.7862744570694782 0.8227679240098217 -1.2117202964840939
Ni 1.274648862797644 8.249945151313154 2.7326933360126686 0.13078353317418123 1.7015527297048954 0.8752454250832475
Ni 2.1526229210285637 5.605228666182016 7.710534225878012 1.0243113015063843 1.0076844915829808 -0.4019950645908431
Ni 8.630341068270763 7.4942513975197285 11.519833496347017 0.24149626374041636 2.428660189495914 -1.0452017718021482
Ni 8.755878990692217 6.7869617979512595 2.3935835859619554 -0.6988885741546415 -1.5192211492500933 -0.5166886341816972
Ni 7.994130116465328 0.9943188722739089 4.873136998844136 -1.5429002380345882 0.5445084846074429 0.18080511650794667
Ni 5.34724188601155 3.8419923196543655 12.13242211661339 -0.1064452135391328 -0.7333572973554724 -0.3577006135488421
Ni 5.486620083709495 4.579953220749789 5.403526899110698 0.23142062467196917 -1.4171064447655142 1.5087968685929758
Ni 2.1950731802376366 2.5730764964160655 6.8323871642061365 -0.6538544167331385 -0.622336034409883 -0.7793908425757674
Ni 6.066834974971419 5.483702951221033 0.6464614056820842 0.05395614250148127 0.5745585099152879 -0.661761330285041
Ni 9.294793911581214 4.538266753327916 7.883227548963906 -1.0904364752702318 -0.1756963345264716 0.34647157760224206
P 5.4701295429545285 1.337500644804574 5.892608546924713 2.3765187316056684 0.8208761063037475 -0.9729506876462211
P 3.4825868733787195 4.340426275821768 6.426365572672438 -0.8786073995769448 -0.5222345037005909 0.9006582087293972
P 8.546673659484965 8.663662635276195 6.549158445815317 1.244164018835096 3.2378516603728817 -0.477602723923829
P 0.5772048154355022 -0.03050658016561842 12.473674164592538 1.1639417435482342 -0.19073240292398763 -1.8067751265805205
P 5.645893677117393 3.382428923837954 1.6197769240390654 1.4478478397134291 0.00955293379575774 -0.6824042033463732
P 7.320097667727467 7.413841606717891 0.6125959821149242 -0.2244529351048844 0.23274165747623787 0.704261922651413
P 6.474469731568927 2.060020068563595 12.233934646287597 1.2596250905851725 -1.968003092287488 0.6641300876275337
P 2.710319758034126 2.3756869321336858 12.86997075418994 -0.49714747882497606 0.8597069631280162 1.6609750653928492
