# total energy = -381174.814309008 ev
CRYSTAL
PRIMVEC
9.19630877553426 0.00000000000000 0.00000000000000
0.00000000000000 9.19630877553426 0.00000000000000
0.00000000000000 0.00000000000000 13.45972747013264
PRIMCOORD
 96 1
Ni 7.45231157146432 2.834035667265657 9.250103488987914 0.7049823457572053 0.5959701428218446 0.8097334594233668
Ni 4.270204813893806 2.061564123937503 2.2725265272898865 0.5328572735217597 0.23302499304461158 0.49255960234397755
Ni 6.36240184231506 1.0974507023334918 11.79887793515723 -0.5914131195787815 0.7576969025421016 -1.1493041961407173
Ni 5.395308816672401 7.224371862507777 4.366376132395539 -0.42787013258539214 1.0542818797265456 0.5567320232568282
Ni 2.8780124157619933 2.664455733708059 0.6182779539590167 -0.4916558595827855 -1.8499647745941172 -0.3543424957098866
Ni 6.221394840078689 8.4648803439314 9.633571171714852 -1.5103444155857537 0.520313118308162 1.1616925425027411
Ni 8.209029837884438 4.556964113687354 7.373507482058224 -1.230449497462481 0.0015704298109134244 -0.12985382227106024
Ni 2.1583092921059377 7.693264057318042 11.673446721069805 1.1642785580623625 0.04472999591752296 0.1308328983548779
Ni 8.404120331945768 0.7151592274971181 9.959000030218615 -4.230141414667346 -2.423651166317097 0.3584151231173634
Ni 6.142637651847276 7.314320958501643 7.50303105354441 0.6714317634952695 -0.020845733100757647 -0.5647358673979113
Ni 0.7486751747775231 3.5503637456063317 9.438821860708567 0.16703094554198974 2.3415383588757415 -0.5154007686082092
Ni 3.251640048114386 2.1248623171412424 9.39250741052512 -0.5857752045667137 1.7560500894218272 -0.021968790961607327
Ni 5.722752586425755 6.0073783425866925 10.324350984685875 0.5058118393681935 -0.07148258142101883 -0.46477626158312213
Ni 3.1120400811184887 5.762508229200674 3.999773560305871 -0.5740859411542436 0.04126517729737409 0.20125258572902113
Ni 0.5305111420341981 5.8446496590562305 8.622894079959964 1.004012442048032 -0.462572569063584 0.593467688114965
Ni 6.072616956939057 1.4652018933874402 0.8970622147948025 0.39115452233191345 -0.39834384099150105 -0.18113421771259128
Ni 3.1682755091935815 8.637678985555437 9.24191969382127 1.3680402833664826 0.06659774252489176 -0.8121078731928143
Ni 1.8168963293442322 7.330359320981277 7.256718039313751 -1.3639139199029349 0.6687200209910612 0.7905597147083933
Ni 2.168360857581993 0.6901627406531425 2.2420269692831742 0.06486096233944315 0.6488232820671342 0.06727471398725833
Ni 0.6377594144388657 1.6867041862111019 3.67605337596995 0.059845511402722734 -1.0417089281575416 -0.0011312853909657937
Ni 5.861736400734649 2.8287293971104113 4.583885387955061 0.17016229208211983 -1.2026851828650191 0.07757892412674382
Ni 4.0590391721177985 2.0476041272379133 7.167277499194383 1.2823749826871786 -2.1316934034920187 0.17107503370437635
Ni 4.982900350273783 3.1622519269549576 11.002048128813133 -2.6874633199458944 -1.1652954293626512 -1.0402536837682534
Ni 4.080604516162949 6.244376415673074 8.078245452467085 0.2443123930329728 0.048344452741658675 -0.7167058048417205
P 9.123952203924482 8.82168792755945 7.812712152925395 1.27819488316756 0.21011903498071557 0.22604933305772681
Ni 6.796734308800516 3.985680217129243 11.459517588511039 1.5148032226880557 0.6193635820451204 -0.21560936867132544
P 2.5075115283884286 6.659295474363515 9.547496480602106 -0.18434989643641153 -1.702441302957436 0.33535001376778373
Ni 7.97695178998533 2.1852360841589014 2.4366686834769538 -0.01189392322410855 -0.08759054272647497 -0.060606043717831105
P 7.937462840164489 4.857462698770224 9.821630168097325 0.541659445194422 1.0092119839711005 0.0872465291234949
P 4.445054232371605 1.8961960997925607 12.66754194849727 -0.865667037366193 -1.7961024773580228 0.4920613225513203
P 0.4766272101093588 2.053894402430614 0.338763506207587 0.03891338923574588 -0.8100715594890759 -0.8735747222490439
Ni 3.999447091344846 1.1535757747034496 4.864466607522797 -0.7911024745857408 0.19943224469083073 -0.5202773799742201
Ni 8.056196382581092 7.142754622251612 9.408577960085418 -1.4107774172236929 -0.5187570866749518 -0.28793167238482026
Ni 5.1034731544426375 3.6279805915513497 0.12711229932898502 1.0328489066637503 0.6962871319760525 0.0848587456176087
Ni 3.073663884657759 8.343875313250766 3.818174970828184 0.007480624647761311 -0.5934949418084746 -0.5620210395699095
Ni 1.3064828004768874 3.8651809834304784 4.171196434139226 2.2251833424220644 1.224651402723465 -1.336521643932911
Ni 5.419725016433541 3.814886370815158 8.501379573773956 -1.3359845404825184 2.5527321149778746 0.39950855072356356
Ni 1.2671685805225092 8.60187775554786 0.4998993890605985 0.39709094242100645 0.3289209703129884 0.5301838404546546
Ni 2.3787907946570996 2.8992466926917384 11.735617446819415 0.4575290931024056 0.06047466034628939 -1.3000855125930642
Ni 8.924392303805181 7.736909738698973 11.503665388350335 -1.7678928476930262 -0.27940820829484136 2.651771780081556
Ni 8.193782357958273 8.310759405401475 4.689948256160403 -0.2852271289694636 -1.3034832254207036 -0.8356404090971157
Ni 8.990991971854212 2.2000789264995717 7.644223821217757 0.907985852739062 -0.047628914731872814 -0.38767607686500977
Ni 8.468255389246782 7.044997860119439 6.786071188791838 0.1435644869889334 -0.16904617619980564 -0.2545893494789486
Ni 0.9375360892839754 8.109387832456207 9.777159577820507 0.33258530653845303 1.5509115383748386 -2.78447644153785
Ni 3.690478705892859 4.809917782474519 9.916077178706319 -0.9452493650762109 -0.4754789927126069 0.08819243797653198
Ni 6.524771869803832 2.7294184587975856 6.940037629334572 0.9766538475294212 -0.6095867051640147 -1.4910320884103871
Ni 5.516074743325241 5.998136052281628 1.0812789933768194 -1.18262055090466 -1.1780912955757388 1.9772765471696139
Ni 4.060023177155253 0.6454935101070839 10.873427634847303 0.522904276074106 -0.022764290279709182 2.256565713388088
Ni 1.8598798764943525 4.493877435585125 -0.04266719412873289 -0.7566093259048776 2.189957429340235 -0.7797047742717604
Ni 1.2372805770484205 4.556182427442648 6.474398168933165 -0.17243334750448366 0.7197211946292765 0.158031827367173
Ni 3.773043165951434 3.8894408459426772 5.954139071906018 0.09350973642438734 1.8100322000652376 -0.8490751944457829
Ni 0.8309848970834112 3.564599631568759 1.811894457008984 -0.7784125378228981 -1.5001116821141518 0.5745266282360879
Ni 5.564723216672297 1.636207254803034 9.15681429365196 -0.4458439434549934 -1.7765896041360756 0.04045090892619485
Ni 6.469069827636892 6.119711254105459 12.643785124074313 0.8672536651270225 0.1489676602823757 -1.639524351718241
Ni 8.649220353050817 5.033691563562211 12.254745397868927 1.568362129751118 0.9067267835209804 -0.6539487762191576
Ni 3.790405796892689 4.439950281009107 2.052917754440168 -0.7629558369481957 0.17227162511563882 -0.020954233654163913
P 6.959564151727351 0.9295353006616809 4.026275482894064 0.5790378858428802 0.11007766808539751 -0.7713918835306909
Ni 4.4053905526843 7.685833439838946 12.362248408026282 0.6080301593101722 -0.3888734396072206 0.30712958546950975
P 2.9763577416548874 6.042535830980982 6.122036080960306 0.056247509638819256 -0.22244181821212658 -0.7380441613081806
Ni 4.003815338006444 5.144976095882195 12.293226432249535 -0.3871572282470623 0.8936504099529964 -0.14179711067586545
P 4.872342326345939 9.057830743931035 7.791526616432085 -0.11729604021070768 0.8337179952634222 0.9192902220082878
P 2.3333886183027683 3.215562928843971 7.658880898121451 -0.5161674715709046 -0.9629971759779351 1.2368453736864957
P 8.224120980561663 4.656330229852749 3.1145672267660824 0.353193726817424 0.3540823000699644 -0.3899928979236445
Ni 8.006067303523473 8.97854936610023 2.2423773486469782 -0.009216890612577675 1.985852204653767 0.728293766789636
Ni 1.9412947979577702 0.7660332075643976 7.771539358970367 -0.7328597888937637 -0.5950039222538334 -0.9805950915653563
Ni 8.110224696553482 0.44927187006812064 13.016821433773355 1.1025929081271075 0.47379800546575823 1.081577739328021
Ni 1.5626459810217306 5.279269792722847 11.028119664151301 0.15573300403066728 0.24524750325273245 0.21561656776017707
Ni 1.7371551360753636 2.104685615719042 5.786135385670097 0.08259900304915452 0.8805555244422512 0.1270649466720134
Ni 5.336185747646273 4.935383022904363 3.947778550200594 -0.20202597355993593 -0.05566052678709768 -0.03063032329134725
Ni 5.150539862682756 0.04267547080661802 2.9099254464253113 1.4811899055089846 -0.5523814595976164 0.7415187501203423
Ni 1.037260861491058 1.4951358784053352 9.816960282508358 4.273539064926692 -1.184558134247005 -0.358556276680918
Ni 8.556484775502291 1.1001820060355854 5.675859688421225 -0.37420838139587814 0.7033226986665952 0.03216064389294461
Ni 3.685264398825226 8.2406099621706 6.176063475301821 0.9191812072342492 -0.100155266765363 -0.11046667599370007
Ni 7.956306076816307 5.169622203362366 0.9479803371441362 -0.028028109781809793 0.2705330172923986 1.5833089808689378
Ni 6.334491045224641 3.7040064760806697 2.1326800992191877 -0.5075373066997323 0.7902509252187229 0.23402489506403565
Ni 1.2708746929532964 0.7279227844268682 12.076108019812365 0.5421520685601243 -0.15746387067884493 -0.24647854744635617
Ni 0.8108118741847155 7.890019083265159 2.79064564326829 0.053340877514985556 0.9015856056396732 0.9901922483354881
Ni 4.057089554660411 -0.04396387366407028 0.8581866587683363 -1.2541257580334981 0.11023450537823597 -1.1713619472717052
Ni 7.194502251651212 0.46835880890211173 7.78382746673716 0.41319324729950774 0.27699419953671006 0.409948515109965
Ni 2.9926627970885975 6.588447111666783 0.812189481237152 0.3728410687347063 0.5196202060061955 -0.8136909014092181
Ni 0.7580875967946707 6.292215613849138 4.754406103898937 0.017389142010724893 0.4295302938966345 -0.11219008644271002
Ni 8.359527430762427 7.497962048155205 0.5177779329233603 0.793934030497265 -1.4840769972487926 -0.5753959182149188
Ni 1.211595286678227 5.755978849980181 2.1772996696979354 -0.3835918794933071 0.02906992078276284 0.4107941509397119
Ni 8.493076226593416 3.4857504802497323 4.920203595663031 -1.7493533941279422 -0.3184342118490516 1.0795203425783602
Ni 6.013153624488762 0.24692364913240727 5.8517648431448155 -0.424184713314005 -0.24634433586133703 -0.9270408124879842
Ni 6.237865429070103 8.181036274015169 0.909302501756037 -0.7976425896971037 0.6637557350072504 -1.2355557083407949
Ni 7.635971053735404 3.126441500638619 -0.06582993700571357 0.5773525277206574 -1.4638257031989241 0.7917678760838815
Ni 9.099738322956089 2.4613552547156745 11.462922981645333 -1.400920064813639 1.8177979600535854 1.3721062259057402
P 3.39070662920213 3.0181733575923273 3.903320834756044 -0.537606615281287 1.1130097325850572 0.5473881201480831
Ni 7.255124319005424 6.917169168337952 2.7260388153278234 0.017558063488421375 -1.2923891723900711 -0.18991839166312452
P 1.0373620208874317 6.628892477598796 13.150933963331411 -0.6564064937310308 -1.6981503888915659 -0.06868265007837848
Ni 1.4799159874054533 9.048891931815092 5.334534090592751 -0.8214610322729401 -0.7093485931457009 0.058644034895453834
P 6.127334994068542 5.3455291973477115 6.641298298117732 0.04220902926788214 -1.341883936686089 -0.04650714242260377
P 6.461197787337255 8.1043574515638 11.805257414544917 0.8165669374054324 0.11550783796203333 -0.20347016220563025
P 4.24472184231636 7.003053495859342 2.4988522840588283 0.5223887698902681 0.4533659628636515 0.4792549148152713
Ni 7.304241804099304 5.908407667698033 4.817639922941348 1.2719738419585127 -0.7373887871123689 1.2570352183708093
