# total energy = -340890.3651630427 ev
CRYSTAL
PRIMVEC
9.08311583607307 0.00000000000000 0.00000000000000
0.00000000000000 9.08311583607307 0.00000000000000
0.00000000000000 0.00000000000000 13.29405816150869
PRIMCOORD
 96 1
Ni 6.349888063198653 2.0375063340622774 11.548228717025573 0.3598078896998319 -0.6010904947675454 0.8408252957321648
Ni 4.7303957939901995 0.32535629390185977 5.787661371333591 0.4053608957392825 -1.1049161569436454 0.6132369003220923
Ni 2.9165793487863807 1.655034500706531 4.845511568361278 -0.4106000326510348 -0.02464453802155756 -0.041487063500193065
Ni 3.5485189531860044 4.324108031427206 4.634933156928701 0.08540690481159485 0.17999933277719968 1.061589212021236
Ni 5.197376935257551 4.640999769864445 2.4985116935502822 0.32330285279526255 0.648494952193438 1.035279370482114
Ni 7.614030682351451 6.097949684700782 2.4885547821860623 -2.010561277364673 -0.08756894545992015 0.40227505772510713
Ni 4.981244198611308 4.561840417064613 11.519460673171572 -0.1440481114935713 0.11360342185046886 0.04056146636213014
Ni 5.448679495660644 7.884435034944797 12.428601525597715 0.17041683129508714 -0.11462980623245418 0.5385193569035435
Ni 1.6320542181381343 6.285497856428944 0.2107709734841383 1.151528714595862 1.3810544362379635 0.5570256432378471
Ni 2.931866232407966 1.722413052521695 0.5852287739109931 -0.12193996674062224 -1.009218411729004 -0.6225844029752632
Ni 0.6847733631409646 0.18398214052802297 4.930845623172966 -0.11275675757945743 0.6825139894513601 -1.4817630044036352
Ni 8.773127069131323 2.499691590271877 1.2890239978245805 -0.26275183068508295 -1.0344974980107668 0.5423096771839112
Ni 7.0961205116924 0.8076770008615072 4.9942448620263855 -0.5197143083818985 -0.9230962260179393 -0.5945586071862986
Ni 0.6485171987536084 7.175343446301711 2.461275460985404 1.759350357439654 0.9195581309576937 -0.41694757213561745
Ni 7.666512924517536 3.823028874048486 3.674517208404987 0.602843215792594 0.7568823770606061 0.053248317801179265
Ni 7.600705751708037 3.877300489995588 12.693152718472849 0.1500629502290835 0.13654948912368098 -0.22517078710751542
Ni 8.19576790661055 8.76893066970579 7.073356407276228 -0.9811435078696585 0.40956747762146234 0.1619735856237404
Ni 6.996878390213231 0.2503106841752398 0.5531063354512563 -0.544306910119598 1.9577014532511638 -0.2792410865893578
Ni 1.673500474802005 6.710369673590729 9.342930896063008 0.9192637396457265 -0.32684968960625643 -0.344978023775851
Ni 0.24089512650314499 4.8907491174931526 1.4311447833039994 -0.44113034002940804 -0.7053914082701658 0.08789701822330023
Ni 6.67943258172197 1.99682305911214 7.292003350331536 -0.20123150268309856 -0.5702367426114825 -0.909815192638317
Ni 3.473792160818337 4.298112154466434 0.381233804694058 -0.1061590497572817 -0.5767863708045421 0.03456308268685015
Ni 6.632927029646797 5.639461256556533 4.885287440059011 -0.9808012940388916 0.8447534271419774 0.48796915475981767
Ni 5.136220317655569 2.8688929916780475 9.606020615631715 -1.2120247150983903 -0.5044458122586022 -1.6049049618721587
P -0.03111421262373208 5.713125324394357 12.241354913308792 0.011117450069400207 -0.29145896881178834 -0.2925576011926058
P 3.7788849320396296 6.051462298856888 12.527283218841916 1.587770873295033 2.2839117095012087 1.1912466020107741
P 2.357204755232179 8.41916713576854 1.0615827822069333 -0.02421362113172604 -0.037561503193541755 2.16813390570724
P 6.408465075958965 7.781060095849572 5.867758101667439 0.6628959581101165 0.1328890095529582 0.50926020292811
P 4.770815658586787 1.0058914752853485 12.754000510143081 0.6140267432132392 0.29456537565125396 -0.33577450289971206
P 3.7408993424344774 6.21009891350394 8.356033123891798 0.4183598791021117 0.5660854394472703 -0.5442914835006303
P 4.718733073508847 0.9309376050266893 3.65748818320371 0.49837826590828366 0.527611451741788 -0.520001243494698
P 0.20508857633995298 5.578967706396249 3.8113134714964234 0.28561330866428875 0.13069842965954265 -0.8166065323941163
Ni 1.7762759282650118 1.1834028042316618 2.750859720563503 -0.7881912144762168 -0.39079996720597215 -1.0681372975523993
Ni 1.8194116444378634 6.7154925508115095 4.891203273275137 0.3588815212308206 -0.021080217709066918 -0.6972206995339154
Ni 5.705740751379296 5.613429047133203 9.206414392933274 -0.04918340370318626 0.528611096650896 1.107002350048713
Ni 8.475909359169636 2.4559109728886077 10.199600406061835 0.37275493677880317 -0.13367293890683432 0.7213949827872738
Ni 2.276664768855115 5.33068074038553 6.811184082387127 0.64565568297243 0.5333049025821396 1.16450121559613
Ni 0.35590008686341973 -0.17714437107447004 9.432559447949137 0.7044025619943352 1.6543765862397248 -0.8189182112464283
Ni 1.3143449992933232 1.0030212107432088 11.409904673883542 0.07465378006014885 2.249350169476255 0.16727365768041516
Ni 3.9032418682625214 6.775922519162316 1.515894793780056 0.6822316823242509 0.1088787626812899 -1.4445969368762992
Ni 5.670316600384535 7.978863105134935 8.124955937083586 0.16428475025542028 0.5284385756287737 0.1863533000196855
Ni 5.332606360901143 2.6207604386332037 5.0611274757276234 -0.7379819406116775 0.143009900037044 -0.3812786579790982
Ni 1.072597876543176 7.552319994695449 7.076639953579974 0.006732433627827115 -0.20190101794629747 0.315381798175973
Ni 4.910886384866328 4.416038244816431 7.379917009984893 0.7863348779937682 -0.13377218348885994 -1.5545702181733485
Ni 8.223771152127691 7.09526669882227 9.535229537270723 -0.8318012378566836 -1.337139222912252 -0.02512482009208576
Ni 4.574956436048315 0.28632796262127236 10.413515045868866 0.3188378750453734 1.2374117877129271 -0.18946870572021562
Ni 8.435543993266887 7.497267230803335 4.865066608021951 -1.064670164939405 -1.52978761191203 0.16794728670867204
Ni 7.148330260389295 6.277986119794927 7.452024231802076 0.7489816341562907 0.6842942212802344 -2.0929527923887115
Ni 2.5784331197522836 5.14360489067063 2.4487253201060555 -1.070726141325498 0.06373173383100636 1.3864025879237543
Ni 2.2927600497686322 5.253655919761023 11.438260344287505 -1.3685174801132172 -1.0006101012347024 -2.0829396311270836
Ni 1.1295580947196244 3.3734509823467658 3.7824518715513324 0.15873733807462986 0.4335209031132663 -0.7732484771234553
Ni 3.816479947672275 2.8897024096085597 2.8056972146149572 -0.6764207320694287 -1.8128699266243489 -0.7544465139256038
Ni 1.0511889729804447 3.4470333021438324 7.876024978174015 -1.2025566277069548 -0.22789975600290424 0.8740503763338818
Ni 3.4434363883505186 2.555570917687203 7.142365378348716 -0.10064866146201375 0.6070099455757739 -0.5746137886332555
Ni 4.2323867296976925 6.629048539268652 6.112249233652334 0.6405558998520194 0.6424595446326355 -0.20085149363586055
Ni 0.9058536728761424 7.70844966942595 11.528567404911916 0.0930839617408784 -1.7511657647463323 0.3738934212586206
P 0.12931450073903045 5.5777869013630905 8.035221112744473 0.3983898637380881 0.6897364753417282 -0.10211393315363058
P 8.60304572877827 1.5105584633417426 8.288432944055026 0.7042878907933419 0.2972475504691074 -1.2873549524002732
P 1.8943110160026844 3.1731228669135705 10.529079526152547 -0.742537935413476 -0.3164999709408162 -0.7538803570094889
P 4.3878715032177755 6.138587544072721 3.9072829464106156 -0.4967579566960412 0.935246488227228 -0.5639259699021062
P 6.7236673548872234 3.9751528947818864 10.408316778788276 1.7467491237358757 0.27833528694563675 -0.19309627517047392
P 6.365756266221178 7.956673053627191 10.342564104672615 -0.3648667922799781 -1.0742737494674404 0.1552144125230359
P 2.5463788046598443 8.717211409253439 5.7718676498593116 0.37670389412422217 -0.7001566422337877 -0.220905069852626
P 7.080379472288831 4.0979202857678345 1.5677285014894675 0.2528201733936678 -0.7858414832971176 -0.5307070599479763
Ni 5.434918575466526 2.8529521237304047 0.5452439905535472 -0.08587870224169081 -0.12132932973981686 -0.14739054560324294
Ni 1.2778127081905206 1.2538696153643178 6.884128767466288 0.06313369523569128 -0.23145327768211754 1.0298196329191232
Ni 6.802381635020711 0.8121813179072257 9.449429518626719 -0.006477894414859812 -0.3641782508533857 -0.5475485569853473
Ni 2.6344396107865653 1.4622817037168305 9.134174557627752 -0.11334939685813383 0.5580497136269873 0.5487613463465258
Ni 6.575648902422959 2.0448000759209424 2.6493731612097675 -0.6581106209063311 -1.2177464480735156 -0.15689000045324594
Ni 4.09230692030251 7.049197136297801 10.511253003398103 -0.24431444991550183 -0.7861957813127427 -0.4886983196163584
Ni 8.104954916445006 7.292515638053614 0.2732664423314091 0.39438717033659826 -1.6255372934105294 0.24163998840713224
Ni 7.449499125654245 4.160039713627622 8.218067863817536 0.6250503480172526 -1.4643216689987362 0.3813984713864141
Ni 3.097969168110838 8.620439895228262 12.333362333180952 0.37487558266623183 -0.23970369061636784 0.6816778667033099
Ni 0.0905032559222315 4.688795124360453 10.113507911094231 0.4227286975937687 0.8721834983284721 0.671268755554844
Ni 8.610521132949728 2.569876824819703 5.446069916537363 0.8857298695543391 -1.1472424285156824 1.3918952356072094
Ni 3.669269892499942 2.7666261926908637 11.682991270525287 -0.6877675245408156 -1.5033474154426303 0.019413628639921406
Ni 0.9761533546810283 3.475399872286561 12.618932763957877 0.5409667900027716 0.07809314475900098 -0.33837543085766886
Ni 3.4331997170245963 8.550599819074744 7.7616694605819765 -1.4107501635301831 -0.5362418737232765 0.968487509668545
Ni 5.95816053500607 7.950133210366619 3.5491411466073224 -2.177505319619811 -0.3567302792157727 1.2133655453970005
Ni 3.059801916192893 8.063127168924268 3.2693148781609347 0.20149941163250457 0.7574724452361213 0.9233525650031194
Ni 3.0497559902954037 4.275195453707516 8.97727826793726 0.01879990631532246 -0.43627763992279706 1.1926787064716105
Ni 6.929263677391435 5.9332001332282225 11.418731645662186 1.0318145518619648 1.1496597797079233 0.13395113226888544
Ni 0.520685062486974 0.08467280399311937 0.3571154077360093 -0.19640631338031336 0.6934573758367412 0.26811206655573183
Ni 4.717997341142033 0.12369659371588689 1.5842134480639274 -0.39275580538076227 0.2793902105727124 -0.042228826762224045
Ni 5.811622630391074 5.55690481850746 0.3964834475415207 0.27458276188174 0.23671118364694715 -0.8008227871972983
Ni 7.964638946043193 8.774852861102863 11.698505232037864 -0.9412669833896952 0.9754143186953653 -1.0967125380869305
Ni 0.141825584221129 4.89598099210161 5.810274696030144 -1.203944766303733 0.20104304082137633 0.6015656346317511
Ni 7.874116615578117 8.612637498893776 2.719405799414847 1.3541033615704166 1.2012628485961958 -0.8600844010720929
P 8.678045014615128 1.4426712570507563 3.4185804424025275 -0.19284225017813886 0.6039631883296502 0.18555060161273207
P 1.803661521918654 3.291657526011426 1.4999421177820818 0.4268974842594777 -0.018399071332477993 0.7122020034340959
P 4.787837417295551 1.1998250773082073 8.08030152397578 0.5096288991214385 -0.8322779203827859 0.9877453294568925
P 8.57904813725823 1.7946964867822877 12.373909361396496 -1.2191160747275327 -1.0087581842631337 1.0072805712763429
P 6.126479750925024 7.444557910746258 1.3818643394009025 0.804341341873518 0.620806485139234 -0.008953866759178126
P 1.9146662781512127 3.479550856133896 5.822252600624194 -0.5987659603994268 -1.3599701047638386 0.03136360191294598
P 6.835489591527354 3.7353858912411906 5.98422726026883 0.5427881594822266 1.5153500963304611 0.4924847832419841
P 2.4391798738803128 8.668616740581138 10.208733478837535 -0.01441977496975581 -0.7446881489872595 -0.8006037292079567
