# total energy = -340897.364949495 ev
CRYSTAL
PRIMVEC
9.00614177334062 0.00000000000000 0.00000000000000

0.00000000000000 9.00614177334062 0.00000000000000

0.00000000000000 0.00000000000000 13.18139884005142

PRIMCOORD
 96 1
Ni 6.33419945592492 1.9364825379828021 11.55650067942578 -0.5404646535553725 -0.08041665068585506 -0.5213927245255859
Ni 4.475538986841975 0.24775354961158647 6.03965089557421 0.6867673654110753 -0.05204298463916844 -0.3471922578183505
Ni 2.6471841839837738 1.4400279926714146 4.691325237117831 0.6716731900821142 0.5960899562291605 0.04473462390321328
Ni 3.2530633487990683 4.0921835667758595 4.550640300387746 1.090685100945928 0.31063039953391663 -0.6042853475557594
Ni 5.233459832847801 4.599247346801288 2.7073010792636527 -0.5209864902261028 -0.530664379635499 -0.44111877006518224
Ni 7.357008936403907 6.125608212111752 2.6770494498880457 -0.4265506424430202 -0.1598989624828988 -0.4130544077287983
Ni 4.9017366221327885 4.560331809280599 11.309178523993141 1.2590787311633993 -0.664104890816553 0.14316288067514055
Ni 5.556266963455087 7.9286377450074035 12.467006276955972 -0.31256052667709394 0.06012627586793516 -0.0900325765090643
Ni 2.0231486378582013 6.315808914935046 0.2894186621392346 -0.5545967220813803 0.45977906547884684 0.4167511398540952
Ni 2.506949554329837 1.4578511467453428 0.37357114791557655 0.9087070471758028 0.6772560834865304 0.5426596043241622
Ni 0.6247146091964034 0.16034354244639154 4.768779855443552 -1.1468994433539668 -0.5904594974162606 -0.2794945973610606
Ni 8.688134665779748 2.318577098235704 1.418990546687943 -0.34921854421975984 0.8391234825497097 -0.003241646865749256
Ni 6.879593374272047 0.5046429291840588 4.688847647584866 -0.2137247500541029 0.6478542332856455 0.7931655277623565
Ni 0.6123897045222391 7.258004422642061 2.269507136147882 0.7443770455047438 0.9523001012754051 -0.14093039180019598
Ni 7.579136410926076 3.956109774505528 3.8755021060326214 0.5252090129478825 -0.23533975722071726 -0.6287072280435494
Ni 7.564762609055441 3.8276371656805708 12.518110726413829 -0.28691582952579625 0.6150428431825794 0.24902291113476469
Ni 7.964148961032416 8.78118611999492 6.829981242464544 -0.5563738685864611 0.8932855704144099 0.5864040963999643
Ni 6.7789047120454065 0.6568043920568454 0.5499357155171533 0.11665017909659266 0.6293309776704774 -0.7822445099744786
Ni 1.7956174784222585 6.595494639930423 9.076394830519263 0.7932274913485435 -0.9749967715419725 0.1822307932108797
Ni 9.128174740591342 5.09577394124486 1.2242984810871522 -0.8650517723796973 -1.394857660669643 -0.29455509123860885
Ni 6.334478646312132 1.870881803129596 6.802853843583249 0.45613246986519507 0.0932924782072587 1.118611909263183
Ni 3.5013446583039 4.254690384416064 0.6109496224927186 -0.35270496010646357 0.4048111938833996 -0.2575497176588532
Ni 5.76880289725531 5.581421116728702 4.862314939458508 1.2971554834304628 0.14596898266536795 -0.2937086840779135
Ni 5.269817626175971 2.832989889743865 9.327592328649228 -0.5869242305694924 -0.2959923379057676 -0.11468765605358312
P 0.3212868939182119 5.523025295093859 12.19296470085303 -0.42436649030750784 0.6569700795439847 0.6227052448238437
P 4.078449200953353 6.1446652075743255 12.5341263478841 0.4086166836724189 0.021914797795220323 1.9466552227393314
P 2.3394173097198223 8.455767208345977 1.3922981444422082 0.30502308064946826 -0.884832040330418 0.09598725143060244
P 6.283530903716774 7.744065880635957 5.811454182279721 -0.5249896978482249 -0.6732546756366211 0.33683585428469087
P 4.5959240805793184 1.069434275143327 12.754611102192483 0.12086935938426281 -0.7293448337619697 -0.6691943895243184
P 3.934098764623425 6.103399067116145 8.212498717212823 0.11951747334205867 0.7442677736203892 0.3519359431509229
P 4.766851640543487 1.1402765843628933 4.0016880555249 -0.3331121255762005 -0.5496638035561373 -0.9126763162361959
P 0.297270216318947 5.634395241166724 3.6283906943116215 -0.8434115684021022 -0.7241851439379012 0.42793029639936625
Ni 1.456239047412734 1.038588240427205 2.5728375850976253 -0.2810778826877804 -0.09325725409394907 0.00728033571149714
Ni 1.951702917156597 6.3672790137387345 4.959975736905132 0.36064684066135955 0.9557924306993796 -1.201035563076738
Ni 6.010437674316201 5.6865317944431135 9.130016496532786 -0.6021680441024403 0.19796260212383968 1.0420174605368957
Ni 8.525114498072734 2.3918510656664678 10.30805132923067 0.15761556576536082 0.23029550992859046 -0.564051696846693
Ni 2.6997800504778326 4.9440024443000175 6.742812599892164 -0.504285375421338 1.0379258069660253 0.9316366593887827
Ni 0.5869950872699621 0.01917227407406724 9.045708204508099 -0.016309792903617074 0.48476864554464894 0.20161485416444633
Ni 1.4240961283173064 1.0601039125255451 11.496275710447625 -0.28549195259507604 0.09003386206064494 -1.6496586119387655
Ni 4.079935214304641 6.801915403636557 1.5999977802446033 0.16079216372112953 0.4261780895949499 -0.021008483930867045
Ni 5.5553393308782235 7.893928075577933 8.125514700541663 -0.34373772361084676 0.4340430941653234 -0.5158913350913824
Ni 5.398209179727222 3.0371230935031694 4.849330785224863 -0.19921241537054077 -0.010480330706033563 -0.5201071729449429
Ni 0.7500837016525503 7.408055746556018 6.898353167064363 0.3616423718054095 -0.8388648295716844 0.2701368102952444
Ni 5.113335917214623 4.6176378877911635 7.1389666476765505 0.2162598577711308 -0.9871889427327902 -0.4924708992849131
Ni 8.172064744231362 7.199041214091271 9.198863044790867 -0.5559630063012877 -0.051857608101239724 0.4279431519151727
Ni 4.604903203677704 0.3281279590190488 10.381814330146131 -0.5120411081073568 0.14159116531264646 0.21890423737251336
Ni 8.185276753845537 7.184541326239313 4.782778101212681 -0.05964136581171665 0.08472633380480248 0.09728514430641955
Ni 7.223060593532994 6.227800899972726 7.112313872453517 0.38639001106373455 -0.9684641126297773 -1.0427286276713073
Ni 2.1429753508211213 5.177991007207919 2.678947944521085 1.1353575041526383 0.45527192163711266 -1.0753464137063287
Ni 2.5910038731635785 5.175910588516117 11.365542560100407 -2.302190196095422 -1.2595888380305984 -0.843816774260321
Ni 1.0946334591245557 3.2513701941927526 3.6723244538889017 -0.9568314134868554 -0.08644640181970273 0.4327048349698741
Ni 3.6717138374936455 2.5158476221545163 2.5276258540382375 -0.20231959354095477 0.5906860116047697 0.10116622452838062
Ni 1.1315226148025808 3.4632486796617994 8.015423626565058 -1.3091342530588936 0.024641452697764014 0.49485174081226385
Ni 3.7279661974460243 2.5568976152161467 6.638916850669199 1.146439730108729 -0.13514952345236078 1.379063888170496
Ni 4.152191487743311 6.745708074391794 5.994109539735082 0.004529769549553489 1.2395504313224845 0.482151519636776
Ni 0.855811300061284 7.420520246423789 11.27439320297488 -0.23402052418866146 -0.29322068869790147 0.2726541774004595
P 0.1477799750218689 5.57160442246868 8.05027559303059 -0.18812633275970825 -0.1472617333348625 -1.386375848450877
P 8.395606182972635 1.6135853459602858 8.047375615460199 0.5909680616215629 0.7680864733065418 -0.9447117474051859
P 1.733664230885849 3.1040207127356814 10.306904847414797 -0.07202199886425661 0.5727664510118716 0.08590184217014238
P 3.902171992924549 6.156598345092242 3.7350675400368747 -0.06612337399163451 -0.6125894965460805 0.2167691933073815
P 6.78930680550442 3.9342248506047466 10.364572972814585 0.5354754278708972 0.6210916204798207 0.8766857570741998
P 6.2527298997082665 7.8422508355192155 10.267663287570977 0.5289432831793341 -1.0913726139312558 0.36970149466446006
P 2.360950994101209 8.403432519956084 5.788756003799417 0.22245955882393945 0.23420178696153215 -0.3798210995969652
P 6.989504325418194 3.9380794791765714 1.5421054019208944 0.06918375808451312 0.44786637320166095 0.5623167164334574
Ni 5.357645518307831 2.8599542774635927 0.5117893024825239 0.09940450464226752 0.15189280434897065 0.18562053561871902
Ni 1.46555139774747 1.1983932156105237 6.973500411931902 -0.3067755445642007 -0.21639175536330474 0.008761291132397814
Ni 6.889157896569425 0.7012118746782335 9.293017751342601 -0.5731557160304903 0.3669599273635809 -0.5457490418827634
Ni 2.7358496472772686 1.5826582559704574 9.146282488737395 0.05323109140999864 -0.6687588446487966 -0.3134197893535957
Ni 6.408265963809704 1.87165633130057 2.701711867834507 -0.20319248306421137 1.2021223683830136 -0.533585667047352
Ni 4.092381701889365 6.82377330911277 10.526084611816502 0.4261855457941176 1.09769547082549 -1.9201178385704354
Ni 7.9749653370014855 7.272261144672899 0.10159558067800183 0.34344847450520205 -0.5366653344139403 0.5539557460632718
Ni 7.353775731597167 3.802104754462992 8.268914988940919 1.3833797419370304 -0.43984710244161024 -0.8596650541464872
Ni 2.9867247255407112 8.24629336266356 12.392518281647913 0.6254424412493487 0.5242304510846971 -0.26123976491593076
Ni 0.1922207803668918 4.846772140418191 10.047758528776672 -0.03641042030823407 -0.5961724886406378 1.000779022712399
Ni 8.609439001152163 2.4193558218775735 5.711170796421614 0.022597425684541726 0.10719289033843474 0.6075565621078634
Ni 3.4909155464203176 2.625380315356699 11.52833217058443 0.34562594177249506 -0.016102047768185173 -0.007736963632941513
Ni 0.8965361714139357 3.379815784593141 12.492934057786409 1.461905860468392 0.08406170363761006 -0.09097360026609494
Ni 3.068032171209952 8.227479533022107 7.80151605741089 0.17039086315315816 0.40062646637809063 1.19800037579484
Ni 5.559968487621022 7.773858196793893 3.59438260330679 -0.2172343058692581 -0.1196822810546971 0.30612916922945344
Ni 3.0683293738802098 8.261189520742528 3.6290499438711015 -0.007197289079387605 -0.0637168214326709 -0.3385528369757976
Ni 3.3040200975359495 4.153218187876927 8.965446371869671 -0.08405116211464879 0.16760532998822103 1.1203782571349867
Ni 7.174211281912484 6.055882664441033 11.362892953264351 0.20823415925317687 -0.19207246189164986 -0.49090998255569646
Ni 0.44782498354403844 0.04094372059165938 0.2890584164783163 0.3503382596464999 -0.18663226471268501 0.5668750252281012
Ni 4.599850758283327 0.3078731467339223 1.8125868502798108 -0.38012448976999696 -0.012533613690636478 -0.6290949504002714
Ni 6.084468157634893 5.699113374150682 0.47360236181104104 -0.6038626581960439 -0.31484829427000616 -0.3228248847175795
Ni 7.970732450485696 8.893717858324248 11.379066182211275 -0.29013022269803584 -0.18265014013648542 -0.2172494753779097
Ni 0.3129508093245644 4.913678765792227 5.715731506488838 -1.202219298972194 -0.7967977251983052 1.1835710877433874
Ni 7.974424968510108 8.920709264468544 2.516289823703294 0.44338725438438475 -0.8928950198442107 0.15317655615740072
P 8.412771888715389 1.7069970458363783 3.594501484374893 0.6651153343589383 0.5849177416624249 0.6799732253073774
P 1.7195966378269927 3.267824414755192 1.511036014895003 0.6973333138523796 -0.05654164384047037 -0.0001779203387609839
P 4.677141464833329 1.0875186073214211 8.19952807219146 0.48821675199424946 -0.48192500544826683 -0.8055628729854448
P 8.384429561342648 1.7320071008456253 12.460745207369213 -0.16313623847327388 -0.8175015334045598 -0.0021319587413382636
P 6.347870778756766 7.7573139148162245 1.5205537052564622 -0.47720728825762326 -0.643068381861228 -0.20280630336938618
P 1.8870118025972087 3.185715422490409 5.916998055401386 -2.2956002015827304 -1.0595487845524398 -0.5996856440002188
P 6.937574913396833 4.065840602821216 5.994267147211734 0.6036101758656056 -0.14041539983699042 0.5762551808914205
P 2.409151863532065 8.438934729839573 10.048839265759428 0.6016042011791704 1.077734711432847 1.1019635020732246
