# total energy = -340872.7323724237 ev
CRYSTAL
PRIMVEC
9.23515737503738 0.00000000000000 0.00000000000000

0.00000000000000 9.23515737503738 0.00000000000000

0.00000000000000 0.00000000000000 13.51658632237972

PRIMCOORD
 96 1
Ni 2.6761453969109468 8.42587118288567 5.509590456674025 0.28791984531027837 0.09929754675075801 0.7199217406758569
Ni 7.976719310145973 9.102771268509786 9.267242030964722 0.8527246182729121 -0.6239697133585642 0.2858521641479722
Ni 4.166016375046124 1.4392253757890379 8.692678569833319 0.6839633203033769 -0.17854434549822798 0.7927618645660347
Ni 4.680562396256466 2.7187379421371314 12.65630924434426 -0.7415694008526196 2.086956208485644 -0.8029462612982042
Ni 2.6299603755154246 1.888580421988183 1.8012472339600096 1.349635812717366 0.06282773395949824 -2.1320803545177927
Ni 1.6113871771998207 5.5017156380889505 9.466774067910379 -0.018193897300207377 -0.7993675428080104 0.7692748371876881
Ni 2.2009596158901106 8.904159976741719 0.6404129028543551 0.5695055208724128 -0.33205694483880877 0.6840160279181833
Ni 9.10893111839397 5.4906426845490115 0.22176937208228614 0.7230407459208129 1.004754205310063 0.18495976210626855
Ni 4.087166602465647 6.460463487754246 6.5823343168571995 1.0300016670229422 0.176592878198812 -1.0608646751503858
Ni 5.9691346518645085 3.051240543681699 10.460837158890707 0.5211474412839993 0.1901698455522983 0.27658539413406563
Ni 1.606243194612877 6.432305493306146 6.5582074685477005 -0.5178967955571855 0.7514473220879638 -0.46939216308857873
Ni 0.12270661083386614 8.091161378758912 13.382785501105237 -1.0891162137969115 -0.37249011315319075 -0.6032587060634578
Ni 7.522598922807037 0.5244488803270018 2.511638617342745 1.5121321036137958 1.9573217013142423 -0.5579229582411359
Ni 5.3781584692725755 8.122727146231398 8.80148719252519 0.6278880745763638 -0.4908899279510384 -0.7095082586520167
Ni 7.929536891767704 0.35552492504724664 6.747101527859784 -0.24284557867945916 0.46224732451368133 -0.4610713019277091
Ni 0.7325751546073273 3.0816796219699696 10.202211197748754 0.2522038799659076 1.3489436717463479 1.2978589372553906
Ni 6.586366386511525 2.947769841878973 3.3199032737204024 -0.5282760819089805 -0.08830016719898987 0.29509553712311115
Ni 4.933365590753771 3.5045759426545833 7.763819383084335 0.11943802625437495 0.25294898566204826 -0.2504046219736397
Ni 0.7707265127131144 8.619560135840736 7.4943929055412495 0.693648923022257 0.4065556873783321 -0.7071310166690917
Ni 5.912033674602259 5.759136411210084 3.5387229365777877 -0.25371157485968565 -1.2885407451782585 0.3500649513804551
Ni 8.651005846269001 1.4719363027602315 10.946245335468971 -0.5521914550739974 -0.7323406831654999 0.7180250378737763
Ni 5.326810994975614 2.1375694965422074 1.188911056169975 0.26770428959435183 -0.22076160229622627 1.4360878709640235
Ni 0.7543350321142518 3.446246689478395 0.9798889716366269 1.474086975915616 -0.5238157321447817 -0.3744894029714067
Ni 6.729705262152377 8.127095375609539 5.048850308619971 -1.0923802292601639 0.5383069837824214 -0.08934043553804615
P 4.975108501513172 4.592532877371819 0.8357318610636327 0.5790126890318996 -0.8196746297964786 1.0400297406829058
P 1.1309835323340596 7.8854297807529035 9.692663243640842 1.798331880909174 1.1533349145666654 1.8305755714342278
P 8.88489543872311 1.8249040127656024 8.560553945638295 0.27137788179119715 0.692821027804323 0.027063431875695328
P 2.2890076050892527 2.0390396038669767 12.960148688339281 0.08317647281917934 -0.20267003490183808 0.577823810930121
P 5.085330103263933 1.1905780020531767 10.81078220192892 0.7610359942176634 0.8371229071799131 -0.08660221067127666
P 1.4163129506576058 3.022075917093605 3.1338471782305226 -0.43505765147276687 1.0435860905755963 0.05205609726529099
P 8.14315531406321 8.734722546718993 11.752455169359026 -1.6856946796267163 -0.03633842941971806 -0.6667644399265872
P 3.4992380217654393 5.076279649161231 8.37010560936143 0.416644953293534 -0.17313371600561794 0.45135818840500336
Ni 3.1419851987971565 5.672279757295889 4.3829419071520155 0.4160937087757543 0.6237365143018355 1.3167835420740355
Ni 6.720414693961236 1.3946472717546075 12.689384960026736 0.8930839959265651 0.4856952711239765 -0.8558785905208615
Ni 9.013024010377075 1.871560027180755 4.220445621316628 -0.6057362210696728 0.48738937099694774 -0.09355138829560017
Ni 4.212330688643114 6.305008085804471 2.2337379595092126 -1.7608696222976576 -0.5030275917548369 -1.7045701763749805
Ni 4.18080186179962 0.4946544160146175 12.748140877467767 -0.37217386746435255 -0.1853577688756356 0.11663218137446366
Ni 1.196460797219933 0.45904272615193537 2.7259441353374765 -1.7144146732692278 -0.16180594969762455 -0.3609970249119267
Ni 7.094263094503555 7.003638496432317 10.203846744097312 1.187137464938407 -1.3085030472327983 -0.5464149576015364
Ni 0.5680425165988321 2.7962116762877085 6.354080017355609 0.1453881704612335 -2.1267874815499694 2.3268064519822054
Ni 9.07852898073469 6.226158313223992 11.360771833140037 -1.2698621949321485 0.874406731232036 -0.9868109905680812
Ni 0.22396733950722802 1.3414435308508674 0.19549350268125837 -0.3582418307642927 -0.8650653992264521 -0.2877501525016335
Ni 8.223972175137439 6.630501202998068 6.124689793512559 0.7952036412383079 -0.5200467520206528 -0.16621513450891376
Ni 1.538798841233253 0.8848398097280378 9.247629327517876 -0.3386484820133974 -0.029680557783568238 0.4456261710172325
Ni 0.30889569258811217 4.32584000637404 4.837113087855813 0.06992423579496344 2.396216210034596 -0.3751596895655539
Ni 1.62430716218929 5.245255321321573 2.7227949467160264 0.017940129418188455 -0.8626382778421982 -0.5124807667479369
Ni 2.561675622826264 1.5932955041516648 4.377995556930172 -0.976885246813937 0.513013242212639 0.05150048187213712
Ni 2.278322528153716 3.187625345915067 8.640869337673974 1.506780095273263 0.04118187355494843 -0.33048471525568246
Ni 5.489026532030672 5.21104829887626 9.775749182850822 -1.3419340731977338 0.5320178083395999 0.581452923042276
Ni 2.9877488376040713 7.232956686048836 8.391826699207915 -0.9561061052850567 1.4332357462272092 1.4431422067076436
Ni 9.153527692742896 8.739884999620433 4.358018064772044 -0.921369987355452 -1.2593178437573989 0.3473220985279954
Ni 8.17166424448672 4.3324246734916185 9.141686374119953 -0.3456007449615145 0.36072654485935945 0.36800148125421783
Ni 4.261692604131829 7.421704829876408 13.298549784817926 -0.5048998690768852 -0.5047054936778921 0.7460089246812119
Ni 0.08299728170039951 6.668559286015653 8.460395894740303 -3.694418389562018 -0.45874676755959054 -0.5142741112029336
Ni 8.625138170818321 4.061779155191843 2.6825287376005256 -0.9087078185067511 -0.21726155956276774 0.2175202125407931
Ni 6.266950002786884 8.749563444415974 0.4288788555496449 -0.22743078678628573 0.5528193184659834 0.5146600337874426
P 4.174364957198004 3.0962619352640166 5.445562187960308 -0.5169390596296064 -0.6674298414247279 -0.353679665314907
P 7.3462351248485716 7.597680751230472 7.841741945877148 -0.13122422025602562 1.4763451758221735 -0.17384051226465547
P 6.930911633107035 4.702154193901483 11.633455550644367 0.23476537277448603 1.040328502870247 -0.5299352147789583
P 7.806653889430408 7.294195013758036 1.3516317563264804 -0.21633827641755002 -0.20288240802296026 -0.5565188788047577
P 4.718288013613137 7.390305295234381 4.265455930710249 -0.7629321827991118 -0.012541069889804208 0.9087145033749704
P 1.1222008977915396 4.66758700032351 11.824376726972313 0.2696583279969291 -1.0279463271558102 0.05251221096610312
P 7.253024682747991 4.5943891439785975 4.7093677752276255 3.1350373587181166 -0.6990130155476477 -0.9361759420200328
P 2.0519411185419507 6.533559757369434 0.826500397878877 1.8387727625330397 -0.6366830471601744 -0.9121153015264034
Ni 4.741283555159797 5.135015249256316 12.257042920509221 1.9394337652902276 0.2918531189264135 0.6669012226147675
Ni 3.122406665432128 4.493042528342833 10.83288193322256 -0.3016965873793966 0.17002808049710072 -0.0012500703570172019
Ni 6.2747629458184 7.993989054199088 2.6557791046326935 -2.0873956100159083 -1.2247881854116454 0.748158366924047
Ni 6.967547501908482 5.217097326873473 1.362215246532293 -0.3513988397005303 0.06372684873499994 -0.07433547748878165
Ni 3.4390894426114627 8.9940180567614 10.359895966658113 0.893427495308913 -1.6605444056133338 -2.239897508703788
Ni 5.582393971804463 4.7649717335000314 5.779895197671363 -1.5520397384420108 -0.23173969857428478 0.756314163261962
Ni 7.502115344031739 3.2364608574406657 6.971043932442444 0.1468801816257277 1.6848061063741757 -1.6687197423352744
Ni 2.3455082971304053 4.333671419720051 6.554747055127003 1.493595478262189 -0.992139087649214 -0.8130805215187287
Ni 3.210583946832737 2.1697078437640465 10.876255772751895 -1.7858759145340082 -0.07162682030836696 -0.287713128616111
Ni 8.1294134000787 6.407130454649038 3.656493355862782 1.0672088722008588 0.04222908387254017 -0.4318697406630885
Ni 0.6319608869413013 7.286058840222852 2.050790417948893 -0.8573322922482525 1.5313225604993177 2.0168946757818684
Ni 6.7366962761888525 6.8190092327372005 12.764198968889987 1.0723981297112821 -1.2034086912946047 -0.5732544463918837
Ni 5.616979635696931 8.442300527629248 11.076775048007327 1.0911862089520628 -0.5096625805728512 2.203076997441328
Ni 2.973258875882501 4.320548261271134 0.3300848373771316 -1.4941948024090848 0.18479418306268175 -0.037931484938450805
Ni 1.9522106554245253 -0.002519350897160262 11.819024953347297 -3.0646369546176833 1.4779626568209385 0.5260039980453521
Ni 6.488473719686382 5.715657290888124 7.81973733670316 -0.16472260912378728 -0.5034443675772814 -0.7520361047118984
Ni 3.1048321611898406 8.40416856335368 3.1262512613943265 0.6477123083911425 -0.16797248351965266 -0.6790496850518435
Ni 1.9662665647554562 6.960473371456778 12.135623690595677 0.3889780835058849 -1.237575824094617 0.5347699171634404
Ni 2.8007461384963066 1.7861717632689376 6.767863084868237 0.45298749647831016 -0.8460148103529044 -0.2802188771215948
Ni 5.485304763659868 1.2672852181521985 6.334061890505593 -0.5717724625297186 0.1970498605015832 0.23512121345200798
Ni 6.756921270561215 1.918770151030767 8.540319716108684 -1.2866152460207712 -1.1231110826851174 1.0748198517788974
Ni 8.494830102053909 3.420776125789363 12.615638535341313 -0.6204706990663701 0.05344706407554666 -0.48730683858547047
Ni 4.071069723382984 3.355197274173765 2.9497378538884487 -0.2639155119758809 1.958889560021994 0.6694538138332922
Ni 4.718223367512402 1.2179694784497213 3.812406821612041 1.2871914302392156 -0.5873587470037498 -0.5521881126398878
P 6.807086644730477 1.0717215282758579 4.541586208899406 0.8577938052657034 -0.6361785967199302 0.6538811562060157
P 7.478972039969116 2.5413305714096803 1.3214918971330336 1.386140335401303 -0.1798257833138129 -1.0621623109158869
P 0.9339699227698371 6.799827811133821 4.5573737102142715 0.6773517285241302 -0.45318958518678726 -1.3418628536401662
P 0.054799576076134754 4.914756748899746 7.151328054652539 -0.14434893056344172 -1.6094550431366863 0.46452017970825804
P 4.002350918303184 8.948350204171748 7.430783912966578 -0.7146478938714272 0.28270693365077115 -1.433629382121202
P 4.260279625072938 0.13017785304721896 1.3897350916145799 0.7786573068438526 -0.43602772869552003 0.9610739908132933
P 3.9378525800855617 6.8938417119149475 11.233026520511851 0.8178653445018819 0.21177482541658363 -1.121512627849746
P 1.0148144893158082 0.6792652093952393 5.769014335402175 -0.040482019274446404 0.7734603360239454 0.26956396851090997
