# total energy = -340891.2144009448 ev
CRYSTAL
PRIMVEC
9.09635973457447 0.00000000000000 0.00000000000000

0.00000000000000 9.09635973457447 0.00000000000000

0.00000000000000 0.00000000000000 13.31344194568173

PRIMCOORD
 96 1
Ni 6.3796137539658755 1.7987414931059877 11.297321492527967 0.13746094519435684 0.04116567560503233 0.8720076348722401
Ni 4.654034283429847 9.071253933565362 6.003550224251619 -0.27700885482472937 0.10171412661205063 -0.39423624658103074
Ni 2.821281500706916 1.6929508276218865 4.759822220005982 -0.6972510385512186 -0.9007975625207391 0.5536600691997239
Ni 3.4372142213655112 4.0817640902281465 4.857995593720833 0.4270486651253613 1.4823787836107631 -0.28774655295720764
Ni 5.270167124005953 4.897252754084525 2.626928675364413 -0.35230206824109 -0.6932072074991482 -0.16039929915808504
Ni 7.5401910228497995 6.007117816599242 2.3385595127753516 -0.41765436839465486 -0.2519174590737403 1.0119278402403669
Ni 5.187663139832195 4.96337419410206 11.434249907540755 -0.17333889003788855 -0.9422717705051256 -0.16890065176087687
Ni 5.748662943134086 7.821486855990843 12.400486176350029 -0.557841197160607 0.9976055100804239 -0.6150850092744246
Ni 1.9453020436029644 6.448418620150033 0.32208391087369376 0.9586838933145617 1.4003410523817172 1.3952392123787778
Ni 2.880635248968632 1.5516661658592847 0.15177549362010964 0.04837067799390379 -0.44013378044409357 1.4117112418918718
Ni 0.45624612284488975 0.17162284125723437 4.716513540948687 -0.4862436874282787 -0.5325693099676957 1.0135404361431255
Ni 8.792368635794332 2.2553423739864646 1.3021239058112666 -0.3009918480028881 0.9791501315887137 0.20177143434696862
Ni 6.849240622204326 1.060180744812726 5.020818616423526 -0.0790195132280123 -1.3108244962771232 0.02984202306209699
Ni 0.4944108103861705 7.315019730210638 2.3504084311639666 0.295443150270517 -0.20437159097397709 0.29343460448092046
Ni 7.668467889974202 3.8411835639406564 3.803850283693034 1.7338360152186334 0.4169257177587465 -0.5207718031121353
Ni 7.546958714605617 3.6317762629854116 12.625390036008517 0.43788406517796846 0.2214444872958638 0.027949691135390576
Ni 8.147154732659956 8.923474470843546 7.1762784106724 0.08237865950823232 -0.09618419793275694 -0.8694182768785091
Ni 6.782900869549507 0.7709301449506284 0.1817307163635055 -0.10790482880379482 -0.46550131267460476 1.1512132402379722
Ni 1.4956052998766092 6.625370109028985 9.437074052411033 1.7919627441580364 0.47201031743771615 -0.4611407217130639
Ni 0.436141348222967 4.760179706949536 1.4446283894346958 -0.9804693646207694 -0.26864762734422765 -0.6282804249187761
Ni 6.099454965810687 2.19396013746998 7.138414812643375 1.4815714572181193 1.017800239860744 -0.9955535126474014
Ni 3.4161470518675596 4.465248430338098 0.76264699963766 0.6985288768223776 0.004908235934894773 -0.37919734997003723
Ni 6.177838298955701 5.7509097440261385 4.728814548423678 -0.8765541165923421 0.06900763751796501 0.45286022687182653
Ni 5.417127914337952 2.9036399431224837 9.533103414100554 -0.9855886881252058 0.2162889112368533 -1.305541393501313
P 0.30220745488493106 5.836461008761992 12.595554885215627 -1.1793421372637043 -2.4662564025821334 -0.2184571225327657
P 4.1379068234498035 6.379258995930289 12.710223597949296 -1.2885587429003873 -1.2566760352591777 0.008923270631558825
P 2.2128896623945216 8.320504063023717 1.5273052044463034 1.2319402230753946 0.5041817599639381 0.16468301413510347
P 6.614982066038198 7.970849085332971 5.840394274777068 -1.2303937045238809 0.48033220703985013 0.471614110440562
P 4.718727594945147 0.8084962920113543 12.468610634814647 0.388340449921886 1.1265141948293955 1.0549033153606284
P 3.9705792833311415 6.234908860885817 8.147574074850741 0.2768926409618393 -0.2615588388182463 0.5603950739307123
P 4.710695509165055 1.0010907909877285 3.9994111056285107 1.3332540289252328 0.7110714893740786 -0.8153608329124732
P 0.14055422406368767 5.474180283548294 3.728070328747638 0.505364981638762 0.2695667967243873 -1.517393609123051
Ni 1.4363970933730823 0.9427649313932265 2.68305776404624 1.1319248243220055 0.8845751871246056 -0.6090046074082995
Ni 1.4605297361529037 6.872436339915802 4.763203336975925 -0.0285407877521702 -0.01681887132955168 -0.23939053025132317
Ni 6.03128684481861 5.616456448538563 9.024623263877386 -0.3803564032751449 0.027664298684487842 1.1172291699830434
Ni 8.785473595000099 2.2492296201424993 10.343679133982041 -0.43036538820342013 1.163415181620803 0.4945925736136063
Ni 2.1465862951792496 5.1375694859352965 7.408637646894153 0.07628411657472024 -0.6478136098556972 -1.4244430876362437
Ni 0.44127715301508436 0.08439784630220021 9.395149839328516 -0.023396524547069385 -0.6222175065541476 0.15147988518126815
Ni 1.4675976077849886 1.01449882546095 11.589071772086973 -0.13561797844834708 0.6436324818948141 -0.7687212786770633
Ni 4.077616150119741 7.036789370351463 1.5302069432502095 0.30103221432252025 0.21958635104120244 0.1651697239635349
Ni 5.569137184407153 7.86878792740248 8.134473497341695 0.41625723093681216 0.016832755286622623 -0.5889034657830503
Ni 5.633675857804376 3.1501240069765415 4.519593722846113 -1.2656550988293365 -0.28332219863726693 1.1442766610191388
Ni 1.2099068285503276 7.365640972980975 7.196221270088337 -1.5164605557858204 0.7067558927178603 -0.6652881124913769
Ni 4.7996215234189314 4.592169939839359 7.014226759288112 0.5157638083745828 -0.3970672882719226 -0.3476928516038528
Ni 8.275913706858363 7.187152199281144 9.039973371186452 -0.9219716254951927 -0.1127834970523348 0.507502596807055
Ni 4.558913648093024 0.2086050020132242 10.366018884228165 0.5443935562961334 -0.3783954228940322 -0.706965180515189
Ni 8.178937414104622 7.198058734785481 4.709243730127113 0.3311832839846038 0.3207253218760734 -0.8532797194454337
Ni 7.255202067594692 6.2172619227053225 6.963516372190884 0.5798686092742916 -0.449672058951832 0.25497167251903186
Ni 2.276682434281022 5.603057510425229 2.643570465777411 0.8446292428592873 0.052217305433503614 1.015347150334561
Ni 2.3078556596132676 4.978965354948126 11.876269323522607 2.254780339352891 0.628448317955208 -1.1070337175072806
Ni 1.3923070370015056 3.5006249461367642 3.5312041791683977 -1.3351425041971974 -0.4735396095980489 1.0577428416919523
Ni 3.8887302370692374 2.6523530012481675 2.653315396124196 -0.22906857950002485 0.16842294079350995 -0.24150294860863572
Ni 1.267896122829016 3.2471730706093767 8.495547135598407 -1.2539038718306792 0.16373736239238254 -0.27970722759249894
Ni 3.575533469804999 2.4965050673067135 7.0349428092944315 -0.4948730809685026 0.01335353848877055 0.4638699477187688
Ni 3.3987639081237835 6.506016770953586 6.037233135276646 1.2935263713183078 1.35660555916698 -0.9220575003407797
Ni 0.8017240520755922 7.5426288472994765 11.455098764401422 -0.27843838818240435 0.6798554687825904 0.29275866145981844
P 0.180486334330984 5.484732061017044 8.064071310361408 -1.5008786421871636 -0.18405241980065076 0.5871651429357049
P 8.572336786491244 1.7541966187400682 8.233112604682752 -0.6102467073455168 -0.3234591758674687 -0.9501797124982927
P 1.9387981462838646 3.1590839214650916 10.639317197756688 0.22772286410540782 -0.4073640422122404 0.29537990113274937
P 3.997167943280413 6.221291610135197 3.860765297869085 0.3100063927966725 -0.42120377630881006 0.4993141474589917
P 7.002341455459951 4.027367858104765 10.546696242116772 0.08044621837220983 0.2621766749079033 -0.4121468083128644
P 6.349495706380505 7.545103057188699 10.205459035865319 -0.009021743882636076 0.23790468973441609 -0.02052743052939045
P 2.2204942192599306 8.785591847678628 5.845546453016981 0.9585849058428523 -0.4376079286984463 0.008779288854526815
P 6.949336966399257 4.020090770195282 1.392146941067497 0.4458773677960901 -0.5332984748242364 0.8403303583736174
Ni 5.292962601882407 2.8886764311086104 0.45659633270053357 -0.041981229527792215 -0.37433667944362625 0.01451259179387823
Ni 1.3583685182636567 1.0613268861584695 7.332139079517695 0.3292367017811943 0.1872444443753872 -1.5091007729866397
Ni 6.909995209888618 0.5171917340868053 9.191001144023861 -0.3602817440124569 0.7141097619797702 -0.06600741723906052
Ni 2.554021350871286 1.4348234231126566 9.3723434458202 1.4739303957330938 0.6205815136126216 -0.12802756769559887
Ni 6.62969087997524 1.9691072174268591 2.609701079374702 -0.8593670632900942 0.2908287914269572 -0.7179964986286861
Ni 3.8944791365177287 6.746197057406055 10.371983367405974 0.1677904494158336 0.4863593870705365 -0.181355589694778
Ni 8.069117061190646 7.457341377000342 0.07582088856488645 0.40894655620801185 0.391075589464862 0.8741321374144108
Ni 7.523717515094708 3.7666843764673295 8.390730690258188 1.418223331978777 0.07667749535839698 -0.29876655821679515
Ni 2.975810462464776 8.341580328881555 12.36821411074345 1.203690741311398 -0.22965864767553998 0.48504658179638405
Ni 0.4857419794139995 4.8294666802076955 10.427606698478092 -2.0241662697426173 -0.8368745386145329 -0.17173040790018812
Ni 8.814272670401875 2.5848034327283966 5.806178317062669 -0.730167329663265 -1.771177946202201 0.5310873261055304
Ni 3.946237424273922 2.817042596999642 11.66807365770429 -0.3390922544190354 0.13831557988516824 -0.7560696513513238
Ni 0.9685167262329075 3.2922637265685073 12.770772607900145 -0.04796572924600126 -0.46510973366314096 -0.2761066547254341
Ni 3.1829709625279676 8.350185485334517 8.078449926434557 0.1789816901459627 0.37240423830760383 -0.0677303134674382
Ni 5.530768738404407 7.916270926011853 3.499930893877397 1.2276377390452986 -0.3492000322769986 1.26882141237246
Ni 3.1629862598565515 8.32248706947905 3.7635770599299807 -0.4728744652102243 0.4209890891948427 -0.15708900383792948
Ni 3.33792745320051 4.366016240332418 9.262414846223567 0.8352799404339033 -0.22072097886627795 1.2618575794601172
Ni 7.524135947649503 6.101465261345682 11.517085908850383 -0.22238833926637186 -0.593723512879513 -1.0878494312693456
Ni 0.6165667369427091 0.12719712920583262 0.3251193661679366 0.3605154572898178 -0.5167084316760392 0.02543875178807877
Ni 4.864305738574343 0.41446017443265276 1.827296786062797 -0.4679780563498715 0.030011458760425734 -0.8940203916979055
Ni 6.137877989972755 5.8221888200995195 0.3426425938539704 -0.4148935178200661 -0.4654681454438242 0.2983238142524217
Ni 7.8379603637459345 8.856279660359363 11.322616650101327 0.40473354656792876 -0.2740767687795989 0.11825531880018345
Ni 0.015878605818490727 4.8458856098034655 5.7948624453634245 0.05135058655783415 1.2652054128864276 0.786538252253826
Ni 8.291768662141148 0.10954564284539421 2.355081231237843 -1.7852580784443512 -1.236506245179522 -0.30853443623683635
P 8.539680854497442 1.7354672137330378 3.686305301963141 0.0992522953351194 1.2038182680281977 0.00563791501206771
P 1.967069632812204 3.0316621121700535 1.5396999044281294 -0.27998799205771135 -0.19467184718770988 -0.6291836534593358
P 4.848277952453707 0.9321676721250427 8.11928257633065 -1.3035467316687872 -0.6270874330519394 1.4848961507159784
P 8.508916965360104 1.5650832966923927 12.44459351580539 0.09997554665438911 0.15750757943258678 0.08064882130131917
P 6.530149413733407 7.78845797324168 1.5532389264837214 -0.64117682126547 0.9295617791376248 -0.3802939254683257
P 1.7447364044577411 3.4111349575699035 5.957818274920465 0.5156527367180151 -0.6828610883781336 0.6367486102907872
P 6.83622373120624 4.1695621558560525 6.212997549190365 0.018935660562238357 -0.43114520379223814 -0.9124595722396994
P 2.4302653746106495 8.537106584649463 10.2010791385798 -0.5398496456791928 -0.29414474317406764 0.5731174065933872
