# total energy = -340858.6355403187 ev
CRYSTAL
PRIMVEC
9.41459797926057 0.00000000000000 0.00000000000000

0.00000000000000 9.41459797926057 0.00000000000000

0.00000000000000 0.00000000000000 13.77921578479682

PRIMCOORD
 96 1
Ni 3.1097358865014595 3.2224003815326814 3.8849122375110907 1.2421842694009058 0.986970656074397 -1.2903243194412424
Ni 3.646113781998561 2.39198575930247 7.5217159234842175 0.8879986109838579 -0.9783898563839214 1.5993971446800521
Ni 3.3909311014753496 7.6653469144673645 9.04030942039457 -1.05325549534456 -0.347017422803383 0.1552144125230359
Ni 3.5117109800376913 0.9101656824298843 4.622513986187713 1.5146690111030365 1.7131759157661206 0.48824966211471393
Ni 3.1380549974778043 6.3717058236968995 11.166331842930804 1.1124181217476454 -1.6080882446961466 -1.0884351285694869
Ni 0.3152506405505959 0.5283990236379088 1.8479302590842215 1.2854466796339667 0.053949971853894184 -0.12108816026328824
Ni 7.889018935270555 2.991582680798958 9.287714701457157 -0.8653741887161225 -0.1756693379432781 -1.282781474096978
Ni 2.6634556944763053 8.261055606963444 4.66569780604722 -0.5970399788472557 -1.6708627568202064 -1.0617131391936103
Ni 8.397529620498382 3.1675226894179502 2.2439449705861705 0.692551319082704 0.6948000059075646 0.08165823640244002
Ni 1.780168689518982 1.4037448151282952 13.611164565545613 -0.7343916521572579 -0.6921867366544338 0.717642714833693
Ni 6.6899945550427296 9.203023801653332 12.238258207835575 -0.013570282485266953 -0.6115623408331468 1.915769331793752
Ni 6.235222395563898 2.3585639361754676 7.052064933225127 -0.10722682890016372 1.485236307664216 1.3011892871802042
Ni 4.202139943655115 3.7758469433197144 5.906998438881186 2.092278649139822 1.1674294449865183 -0.8608678162053367
Ni 5.999452616248539 6.152562224562466 10.715104279623048 0.399127513235061 0.35731854761907494 0.9823257011032179
Ni 5.211008272187391 8.463902536849188 10.567928692468826 -2.6113165002799867 0.8876980490243035 3.3623946119539894
Ni 8.803402357633086 2.4986343261708317 5.179606821804911 1.348442049519581 -0.24846652441066241 -3.441549622318602
Ni 2.8103234242738373 0.16568468694793748 2.488030664371411 -0.277036108518239 0.8450213360913835 -0.9076716639327529
Ni 3.7079771058767395 6.040434361620889 4.757866721093235 -0.9173683223952266 -2.0950778091515145 1.6927796114979556
Ni 8.069280244400897 7.688233802360814 9.104120624612177 1.5651014567219754 -0.1641924476519301 0.7528794265488
Ni 4.673886623443238 3.9004491486960178 -0.118497779991642 1.0522360529411103 -1.182540332486028 2.6747908666845484
Ni 0.9933624855209605 4.1215227404335595 7.695099868728848 0.20742014799231376 -0.17955633170251012 -0.04281503828299723
Ni 7.632828892754501 3.974673839832155 13.547407965996776 0.981710179006406 1.0535097774472113 0.6058732608681695
Ni 6.4667273619562895 4.4603917831471716 1.8038925351803154 -0.26001540559052644 0.6979097551811401 0.6496792023095262
Ni 1.5354173836506209 2.0082184984219063 8.455532959170343 3.1086838084252526 -0.5825132459859904 3.0392514246650433
P 0.729296190264611 -0.012721946363808004 4.160633805170603 -0.30529870290835803 0.3351517817140486 -1.3744341027079685
P 5.5696008978449685 5.050696496354547 4.235675683418691 -0.8291859117210235 0.43334195433324074 -2.3191083120069993
P 2.927186830041578 0.22171378440588954 7.939749496938119 0.28856184976965144 0.16253614299542973 -0.7241121246081207
P 2.8524160922177324 4.27731550919571 11.925980697353571 -0.9013338946401832 -1.7192722584718456 -1.7435977225910875
P 5.133610861503706 3.916340990227956 8.897721566876907 -0.7090961108152626 0.09025420560156715 -0.6955859921439698
P 6.817600017201432 -0.2569441518209757 0.7875066500939789 -0.5578347694027039 1.0726539544758302 1.3637529688450385
P 7.353733133148871 4.226184827110428 11.171250970419216 -2.4164500205829675 -0.22819877530056182 -1.357060130205895
P 5.72231509304021 0.4650924418765278 6.500634036883585 0.223364330026396 -0.7155799187673934 -0.9074906582701983
Ni 5.907792089497978 7.1360393821162855 2.108578113783553 0.1386603648190967 -0.14572215676188455 -1.171193282904325
Ni 1.277711590846272 7.750511368553806 10.917645235071715 -2.385050166115447 0.1389077049432124 -0.4015291806980182
Ni 5.252592551835834 0.6631746436821107 8.830934408211284 -0.2868731492133188 0.028514562499925084 -1.9847191194905882
Ni 8.635276465407168 0.660705194609938 13.491712145310286 -0.6652266631258221 1.0826966834238128 0.31888209801974754
Ni 6.4141185879749685 5.667136133787432 6.067305507414999 -0.04358251257664107 1.2228431458701325 1.2188111418926044
Ni 9.385855296055132 1.7927371779343477 7.110185954372888 -1.6606156251709014 -0.08533465681276271 -0.8424851999330909
Ni 8.854307089364832 5.63870404763432 7.121029688422939 -0.9217212000472835 2.2342089429594427 0.028115013068661262
Ni 4.879407299179143 7.164800979201636 12.73979455881763 1.3581531061597578 -0.08050278264175813 -0.6116230188677532
Ni 0.7176089082280305 8.301472476451957 0.24854444742832454 0.12436374569076647 -0.7826839115047424 -0.9524350841913726
Ni 7.3755185130688385 7.283914473906659 13.667204960521243 1.5385291055500858 0.2674116980545976 -0.03367630920652265
Ni 4.371725098580944 6.000205784093654 7.718979055258236 0.9311126685645126 -1.6425708518540485 -0.019435483016792335
Ni 7.836570209456321 0.9898320112469814 2.919623141957006 0.09334004361574248 0.8110406082705646 0.5541532067860585
Ni 6.145407130033869 2.1841208486486425 1.1154396956965142 -0.38123983432136277 -1.1132876688367923 0.1105522937289709
Ni 8.267655240206269 8.106514979743798 2.3586157164648194 -2.53485214937366 -0.2892866437508179 -0.1972951437431699
Ni 7.66485735536804 9.670580985303001 7.624701270245898 -1.5233709097524089 -0.08047527183793238 0.29373079556510057
Ni 6.884001177346431 3.619705834429197 5.1077621410593395 -1.1058427825229729 -0.791026884152799 -1.1022890037334436
Ni 2.019384211725744 2.768852119802162 5.8166889069528 -1.2832568710714995 -0.39053900023510163 0.16968021023937876
Ni 0.45368100756322083 0.7472695994284871 11.490405844786928 -1.7760244756612253 -3.2779073907431866 -1.2043502292722676
Ni 0.2763259848552179 8.594134671867732 7.280813305304396 -0.6525688651524955 -1.5418401722011899 0.6524768196593215
Ni 0.48180429489983545 6.619234435994124 4.869175514003249 0.8788925349175315 -0.5383753751265116 -0.19441499398189743
Ni 3.2421710374669646 5.5865754181542595 13.460268329236518 -1.2689589663915888 1.3096168491222673 1.4917705092383082
Ni 4.229978910130198 5.0688572560198955 1.9736659820674238 1.8198301599922657 1.4400460842808231 0.9313391827530217
Ni 6.387070447737256 2.435085789239207 12.408790471326636 -0.899983808370192 -1.4916375832048696 -0.28058114555702
Ni 2.3815920430398756 6.953904567971218 6.635022716947359 -1.5396267094896388 0.343248442679254 1.1152630473956082
P 6.165893295421012 5.61466857877707 13.649939529131775 -1.6063648342471368 -1.2471446987299748 1.1810557775207016
P 0.33274955397204925 4.302433656830314 3.8007485551988474 0.3290623809868591 -0.12355333397432915 -0.27085183408439806
P 6.014676021317937 7.632715917577734 9.035307444443195 -0.27334940369527116 -2.1413558662824475 -4.028391834697249
P 1.4723772350144493 6.305973100014439 0.7715667941119146 1.018464355807304 0.32037385207392566 0.6896729690936445
P 8.30782733014512 7.82668488148918 11.672456869009226 0.7263651823083555 2.0574301740020697 -0.2776670572340185
P 7.882918275725119 7.03771331993645 5.283901739157288 -0.17080969585813163 0.1402451928077133 0.4720283151598451
P 8.14671531347684 3.6157705324384684 6.948996738000483 -0.36146599412854524 0.8621101732528701 0.829132689885585
P 5.278614500884576 1.2819575745731109 10.886682504959015 -1.011842222505096 0.23880714694402744 0.48116935822916485
Ni 0.6588571090099857 4.7036179241291745 13.277997003419525 1.1417289548966207 -0.028804840046834257 -1.6756599210985337
Ni 5.0994170413354585 7.608661619524356 4.295339757189132 3.108222552518118 1.8808264971699804 1.569169456143762
Ni 2.9530487309232334 4.33832210465007 9.187195979388228 0.26129427230295 0.04548615735725715 0.398905627032242
Ni 2.32255309858088 5.690437263995694 3.0158987046785133 -1.9255428662407486 0.5065664581460307 0.14559745825856216
Ni 0.9561089209819327 7.609753712899773 2.6284126775626917 1.600107283373199 0.30052879232354046 0.2708479774296561
Ni 8.536564404706711 2.6721736122835176 11.720807420286226 2.4723851411876905 -1.192797748547978 0.5011038923695629
Ni 8.028599766166595 9.202035268856617 4.98239923615947 0.05629198972350951 -0.37550036073442433 0.5928483093634113
Ni 8.58697016274107 5.7936683317668445 11.432780972957138 1.7045174687601738 0.33416010722474065 -0.1329399173955517
Ni 3.302876365783278 7.927731762509494 0.4631718638714832 -2.0380093462732964 -0.5877487833533168 1.1844452628182247
Ni 7.184901146068157 0.7217033169260398 10.304042216035498 2.809553696221452 0.33257836455991757 -2.031764136694533
Ni 6.814050713731324 5.344893271254744 8.73171019337615 0.23682456929635987 -0.45995492893507883 -0.9986923153866993
Ni 4.012238086107293 1.9939271385608386 12.416878552523372 -0.8517589119255331 0.011970799208630997 0.1485989640890473
Ni 1.1928860622901334 2.24474144558238 3.086172089007213 -0.4192574512157167 0.24875088842030063 0.9459507620186096
Ni 4.7527056384345805 0.041740561976303686 13.648244901480263 0.7200083868523923 1.5528079840666034 0.6260160543646315
Ni 1.7345643764972356 0.31261267017307864 6.10404126906051 0.3128240647511258 1.5491721870862287 0.2898957380897266
Ni 4.337135865294012 8.314040964867322 6.8453495449949076 0.28542690368509555 0.1430420388265601 -0.4865293369894975
Ni 5.029278285759074 4.23540171861503 11.551364425791164 -0.19026857591369165 0.1276169625207415 -2.7791655708478973
Ni 8.95542928716966 5.679714036800862 1.336660155163853 -1.0998294864493574 0.20456313815949284 0.5771635516383028
Ni 5.706376178517951 0.3590228727890987 2.90344603810373 -1.8747430099800617 -1.7333138241665762 -0.4659165458351524
Ni 7.908638957635815 5.566701201641274 3.4786177263831206 -0.361531557259158 0.32263153775985076 1.0594701087957044
Ni 2.433805403902511 3.9045350842557696 1.5917750505810044 -1.604433935773011 -2.0138309492548805 -1.586680211334016
Ni 0.42615366428405393 3.891928937448148 10.00004578601054 1.1117694324200529 0.5270738340707632 0.8478302662950883
Ni 3.0598291021644903 0.3827015283797252 9.998860488114289 -0.40400772414549774 1.206430251729748 2.5656940744551813
Ni 1.8807071822438437 2.2088153393703682 11.469929093997852 1.0860450310707555 3.6557065748141175 -1.1430520445834185
P 6.0147607527005125 2.3675737065226623 3.4145447963393347 0.6758041815313522 0.4964193424096999 -0.3764699237365452
P 3.434031131412087 1.9134134959179865 1.119508684979751 0.9980773075105197 0.13698323422698988 0.056783070427315105
P 0.8593626283572278 7.154990968019006 8.84120008594021 0.7150209609401298 -0.625517003241026 -1.0207585511581194
P 9.142073693787356 1.0990413487887358 9.11872643204858 -0.7170163941036038 -0.6947771230894292 1.910060454334433
P 3.73838625762328 7.663567555433279 2.79628531710069 -0.601481559558377 -0.7857790054902983 -1.514004123825528
P 2.432845114899988 4.873843271723352 6.347919841688344 0.6392564643143054 0.23814714476252533 0.07819058956881372
P 3.0334588129873823 8.411124300102717 11.883898385467548 1.2126453794015244 0.7800667855968695 0.938441855236074
P 0.1539079662297495 2.856021883276223 0.36745741119458647 -0.5104691356345468 -1.6755442214562757 0.3755103880367533
