# total energy = -340892.4866066113 ev
CRYSTAL
PRIMVEC
9.04648053312840 0.00000000000000 0.00000000000000

0.00000000000000 9.04648053312840 0.00000000000000

0.00000000000000 0.00000000000000 13.24043869250321

PRIMCOORD
 96 1
Ni 6.56370121245032 1.8014076091378677 11.049092897265227 -0.19422730345112357 -0.39031274315690845 1.7705146015865896
Ni 4.909452704884535 0.43047678418316576 5.900932515405083 -1.4954867817476307 -0.8807401296492317 0.4728718941070631
Ni 2.921805197543897 1.5600746434626693 4.676165679145294 -0.037422406512516194 0.410666367112596 0.7911091594539602
Ni 3.2188554378599297 4.024815450041551 4.373595276305176 0.10144621766264465 0.8600430063111961 0.9276352515388733
Ni 4.851238601570073 4.721692997923904 2.614708840408795 0.9369243901502832 -0.04863498739888398 -0.4721686973924513
Ni 7.361664135691773 6.32235920029442 2.7241142640691067 0.15159301372036474 -0.3740852255544525 0.15559699267343524
Ni 4.960149182736011 4.562511123499465 11.374795151259203 0.28955069604548195 0.012847802496945613 -0.8443320233338426
Ni 5.668615272397047 7.930606353492832 12.432679748721394 -1.2067935486064378 -0.31934721058162424 0.280391141033401
Ni 1.6271362049032452 6.708254927580357 0.2697687684643745 0.7985537886574635 0.18229069991453767 0.4921520824929137
Ni 3.0799467266876586 1.6872229297229278 0.32207461523265535 -2.046301925299392 0.018015462740814135 0.13462501840745847
Ni 0.4587235155256795 0.43210243676523397 5.21609764263263 0.6156606792722364 -0.8981338996456468 -1.217531246738916
Ni 8.575475683821987 2.257874932376581 1.45156301209567 0.49544309453935964 1.1657782825363407 0.18236474768558272
Ni 7.04089402297628 0.6010002314631367 4.988772247675708 0.03969114794203487 -0.26696843986959184 -0.6148376691503089
Ni 0.8160821194385828 7.602191964584533 2.5438586128504106 -0.15730086273841942 -0.21339024953281957 0.3366975289346137
Ni 7.514260172165486 4.007301463403353 3.6255761637208304 0.36934591109725423 -0.09591706031429932 0.2331242376266372
Ni 7.538884692635099 3.791796200131075 12.56027764507252 0.5208785038933288 -0.44601157938110925 0.3613870612614937
Ni 7.821569121597074 8.61564205813686 7.272986008614847 1.3954127618421646 -0.6367483531804712 -2.6093303230878933
Ni 6.904364536228517 0.7123714553798953 0.4790817156964433 -0.6989567083884156 -0.4010013332190061 -0.8151417749231316
Ni 1.9359740095733955 6.3590336330584964 9.15827891935396 -0.5050083696302916 -0.05989230548025813 -0.3383373785308818
Ni 0.1066833376172163 5.100233936399483 1.5584526094728817 -0.5490901904408544 -1.5023472563128901 -0.010390084985072429
Ni 6.454528283344038 1.9292886603349515 7.087249094739082 -0.08648239726396073 -0.851724716253488 -0.1959129186836626
Ni 3.2350395918349992 4.412791867888843 0.43258280489048617 0.4814889463521127 -0.21152388574804215 -0.17460335857260897
Ni 5.830067813477576 5.559161902389017 4.690623764602508 -0.05823728637533842 0.5431054336123291 0.8549411663082566
Ni 5.139938940198577 2.9846510989775514 9.208552926556672 0.7989798204512885 -0.6710059888117604 0.3768131660085769
P 9.187334406071193 5.387224490175393 12.666717632358864 -0.2198630017413568 -0.13674746406709998 -1.6217042928176841
P 3.9285428024156754 6.181270287273076 12.553418603404607 -0.6162605176397644 0.15675630308885907 -0.48049444364932736
P 2.3998232610645718 8.723087109429146 1.3410050667939808 -0.39068246779150134 -0.4293793701410669 -0.19004283305613076
P 6.435413069621666 7.573207040416772 5.834439072952564 -0.6197543897256358 0.6112525229022119 -0.4286684601169714
P 4.886375132614885 1.0075156022121121 12.399975816337228 0.11288608406847009 0.34363847902882105 0.3652755976826225
P 4.042320390199046 6.12461217863928 8.193858941907882 -0.8478495495687979 1.0618949161871132 1.2907197551074479
P 4.999827047093 0.9464337645152594 3.6891964439025373 -0.7558199972343628 -0.07786020281258849 0.2919832167463745
P 0.2467762331133198 5.713386305389009 3.7034437463594054 -0.2276868686611498 0.17360165678097197 0.5822543358976489
Ni 1.5487032172208235 1.2939000417810198 2.6260024669166073 -0.4516307253400996 -0.2691075976997817 0.08680172827659244
Ni 1.9122360442125335 6.895281869604163 4.848754437969427 0.44031864276139004 -1.238207544141345 -0.9815703109944321
Ni 6.004891053034993 5.45908068638779 9.090580485671994 0.05177790390323985 1.8374658707961582 2.379409422889902
Ni 8.817206694648053 2.1791253178696053 10.159057607387629 -0.644901835525541 0.8401768635148885 0.45007006572119906
Ni 2.61281360270182 5.194073080716642 6.694445474789443 -0.5051124993083237 -0.2421416106338991 0.5569212564494989
Ni 0.797798277292684 0.18726938770660664 9.094658639172252 -0.49617354494748095 -0.8563385608764155 -0.22530834112664422
Ni 1.4375672018023051 1.0726231238211537 11.422897098445475 -0.17412076250923558 1.0543482141881069 1.5238131394961498
Ni 3.9175965607668024 6.689221132184299 1.501029168571735 0.5684914777856015 1.525211048284941 -0.3112631480219091
Ni 5.619764276608688 7.873495920823959 8.055959817981904 -0.4959742844524813 -0.0893571477085945 0.17646046638600577
Ni 5.354955693512972 3.009574153310316 4.687234952931708 -0.16984193262822364 -0.9276918158084216 -0.03910570775221007
Ni 1.0737720268702502 7.3208373682856855 6.982967597748127 -0.5498378672401563 0.40376732599991755 1.1521280387427577
Ni 5.117033251062257 4.572389880425555 7.232484009865946 -0.9306416424653648 -1.3074224125741096 -1.8050838549210269
Ni 8.23801481421214 7.236687004799886 9.230969201087039 0.002658520668769615 -0.7042259272071549 0.13364002878636985
Ni 4.62893038481023 0.3724725592209797 10.249331533660307 0.2964394527455153 -0.24915737983009992 0.5076082691469839
Ni 8.557310350573278 7.353504210098976 5.1127823097805996 -1.3025257466034406 -0.9796458402782098 -0.7340617796216649
Ni 7.140730983998565 5.830583462877565 6.9115881510687025 1.1235764523573104 0.6821357801763349 0.03182408648913229
Ni 2.244866093127755 5.398858264357584 2.6261083107408156 -0.3813907580769303 -0.3510041753652729 0.274014805193412
Ni 2.251135304253928 5.128142329363758 11.3043031643366 0.40134971769736044 -0.15698744526305866 1.1215740772153007
Ni 0.9091351245827767 3.3924393095612344 3.861388966871944 0.29610778043770936 0.8393250570375544 -0.5691661352551229
Ni 3.9326770440962835 2.5652291142116774 2.5425088779297393 -0.19085812986857453 -0.6882694038778985 -0.20796573608313862
Ni 0.9636220778482008 3.41695527226243 8.379423972650317 0.08354285501966258 -0.521074936174851 -2.4836476014753868
Ni 3.6317096776364797 2.727323955422016 6.918195700573113 1.1972979504111767 -0.24211744226418305 -0.07263417852695879
Ni 4.1058266847239135 6.926953598540282 6.196008813632038 0.7146049564486338 1.2501348917065502 -1.2571640306391896
Ni 0.8085545428468246 7.040839744092071 11.203635736385912 -0.9764748987493956 0.23764706519765522 0.1954123248981602
P 0.11341482390723823 5.607976712254571 8.047154878315087 -0.10373064282144716 0.015178507512651276 -0.7319575887944685
P 8.468736258024421 1.6026926140476623 8.030074218102495 1.0971884492820845 0.7229864956441098 -1.1686376063620068
P 1.7769911577243893 3.2288065666316323 10.442403334088887 -0.7092498627843076 -0.42235794451791137 0.020304772995623097
P 3.8431711640351667 6.303623938761514 3.888544692641851 0.11454290294560272 -0.3706119222938714 0.027653757161526564
P 6.964143680704346 3.7657785216334223 10.35698917724908 -0.6429706799410991 1.21914281420041 0.4548435758504425
P 6.255125755720515 7.521452124323216 10.312381885557818 0.3129886153534481 0.7848531512419193 -1.1853783161554552
P 2.4542378424843836 8.727103746860633 5.8171078252245385 1.043707189534493 0.03421032733312173 0.2654748860432009
P 6.725678449411538 3.8765888637466848 1.5057288152961894 0.47545405301194243 0.8624194769631729 0.3670542868496001
Ni 5.2067291072181066 2.8387313652615807 0.35218401695161783 0.36453100620711415 0.314212203347904 -0.44718683063613307
Ni 1.735078812634117 1.2591434629256721 7.080628880161689 -0.9129601660252019 0.48689289097650346 0.3640856911395794
Ni 7.155630537714015 0.42341419669946717 9.158689629577811 -1.6944942801962175 0.3310359597734622 2.6415724709510506
Ni 2.924247747333315 1.8447221587368798 9.187752353479603 -0.41208793005047095 -1.3027394052761434 -0.2194192293357189
Ni 6.572910529804496 1.9448214676995095 2.5413038867002933 -1.5363117861837927 -0.013919438294569578 0.8022937153158699
Ni 3.9588756522079662 7.099659961613536 10.444508450148136 0.7420910776840445 -1.554983137341051 -0.011565336240096211
Ni 8.062395484352985 7.099596636248625 0.34311130145603524 -0.19893036535374772 -0.6123208162657262 0.7662643324961383
Ni 7.402518042539963 3.748915881605737 8.238307015538798 1.887747906880162 -0.1039946951161112 -0.17050322036130636
Ni 3.1478134249106726 8.430379179849856 12.472704997937324 0.4768031108406691 -0.2705381594987212 0.21009409528005107
Ni 9.071358523477345 4.734927999190269 10.007282991361615 -0.6857828900106189 0.8511536742413665 1.8906321704064923
Ni 8.619649649087647 2.444440503884607 5.796160699160104 -0.24591033364771198 1.3923171536359764 1.4268216151707491
Ni 3.5679048492484613 2.6790971668020633 11.455111616223688 0.33103827376630734 -0.07065854285782669 0.017279613016054112
Ni 1.0456284254077342 3.165399783394482 13.066208410843087 0.1302993944489111 0.6577776630469446 -1.6683757287322942
Ni 3.119959310830606 8.311318447336783 8.34081449766418 0.25688817281545434 0.8092295232037546 -0.717954589647157
Ni 5.5318867630738495 7.774988792464803 3.440236390347864 -0.34908741795853426 0.5020130344473935 1.1815144623246747
Ni 3.069181414652817 8.550471211162908 3.454695380453148 0.8755848107005373 -0.5026342129711601 -0.19467853205592925
Ni 3.1689369573487878 4.245450067871607 8.97116513111542 0.4853448297630931 0.5446390966480362 0.4666950758723898
Ni 7.178988550885411 5.960916110344767 11.403685087379596 0.8295273542208422 -1.1030433654009646 0.005884740915551155
Ni 0.31167297172201536 9.068554114459864 0.6135893140074111 0.8128882030022647 0.27777607200805715 -0.425508574331751
Ni 4.5802784115973045 0.2773135333694655 1.372596282051857 0.901575578337344 -0.947741278260129 0.7967306194057956
Ni 5.845881061743882 5.492263177601068 0.16780045658880502 0.3269857009634885 0.571355429596958 1.4584598109013205
Ni 7.87933994735716 8.330958356939844 11.681324294054319 0.6959019807224919 2.2197354319336156 -1.2574327109195442
Ni 0.28742568949765596 4.89855169563917 5.875113859482865 -0.559202596284508 0.33210579579887317 0.0642410693672571
Ni 7.723849037058951 8.83121064677405 2.7443720483040837 0.5816969207322821 -0.002856495612188629 -0.22025329520124
P 8.493957846220336 1.79347384556261 3.6796107929511774 -0.20594716299121305 -1.1755811275593753 -0.3623198574884083
P 1.9374214464856432 3.264295910423806 1.7666184629519943 -0.030976650887172455 0.30486830023915884 0.6656071863936924
P 4.795367536757312 1.0164535251452416 8.156189396266637 -0.4079368839965749 0.02426298631242273 -0.27237238449398254
P 8.480460497013627 1.631505655082093 12.516081063605107 0.18531817388695182 -0.6764469573216737 -1.041490127278516
P 6.211386021528529 7.652309467671109 1.3917956280447523 0.09006625796047715 -0.04504007095877404 -0.42953697876485375
P 1.8272895904249968 3.314295809261262 5.97840205289279 -0.4420076004280387 -1.1495499936029365 -0.49504277377714745
P 6.771516967126282 3.7808951908857096 6.063458873744885 0.919076563335585 1.4434062590023078 -1.411881448921149
P 2.2554685685099694 8.485743641743332 10.465839146994318 0.8990283864354581 -0.8521371212005583 -1.2516808960374313
