# total energy = -340871.62399275776 ev
CRYSTAL
PRIMVEC
9.23307371450925 0.00000000000000 0.00000000000000
0.00000000000000 9.23307371450925 0.00000000000000
0.00000000000000 0.00000000000000 13.51353667457842
PRIMCOORD
 96 1
Ni 3.1502417091626045 4.33649780780384 11.217235600542987 0.8312875314450587 -0.32424284811102866 1.3846439533614348
Ni 8.96925725709852 2.2581513442421297 10.418355886332844 -0.23311652431715335 -1.3452230283616509 -0.6870437590009135
Ni 2.201534135228454 1.5072439119746421 5.387144057184239 0.36172696109941577 -0.11027075793281009 -5.08865384326663
Ni 1.0948579003329562 0.7135873476567114 11.88948001330072 0.5384869610037114 -1.2467806305223366 -0.9393108881045886
Ni 6.580217857576241 8.628113643491654 3.2247350725095116 1.7261646147163043 -0.21374171933496736 -0.37691163925965415
Ni 0.7461579390651659 4.528222586859448 1.5628814918499698 0.1764452968773542 -3.272580579213635 -0.9114380729537207
Ni 6.610169949233183 1.480458764657507 1.8107332036963846 1.2644155699952804 0.0051982563714878215 -0.01860681646790989
Ni 1.444422077315632 3.072720820891433 12.165615400354504 0.15170742781104196 0.27589582426620873 0.34972042355684285
Ni 2.7959501983549115 6.202622068303038 4.372642522110077 0.6223928557897475 1.244997827590301 -0.11151774296603376
Ni 2.955008362033743 1.0793186369979892 -0.007716079838996891 0.07964711950968219 -0.7102824178138799 0.7475857822500286
Ni 2.0878934619505145 2.448103373113355 2.880761521759351 0.0038939357377674867 0.00032601588085105147 -0.5914570854428395
Ni 7.352730682715876 8.034713218491666 9.110799356325321 -1.124334156458941 0.04539642585692827 0.7013298366062825
Ni 1.388654311098639 5.437744995259671 6.3101864556625324 0.6471962879866724 -0.3365869714986784 0.7215888439656347
Ni 8.71879166203753 5.994379320081503 8.640434257273105 0.7205372627726688 0.34952604815784966 0.48206410212929235
Ni 5.973844963779088 2.2934678518215996 4.5269945880338085 -0.30713189946235486 -0.30215707195558283 -0.036443330428698524
Ni 1.4703116164666996 5.930264855079716 10.324477684381206 -1.7465994855318887 -0.1830615166422912 0.9532064151397585
Ni 4.72985445418506 6.6404544315496965 5.741036699200445 0.25973412690468173 0.5255193450994499 0.16981005094902368
Ni 1.7314783441511152 6.458932199128159 1.9443274729298772 1.0031035570805176 0.8181929030446295 1.4980761397413618
Ni 4.483811501511147 7.508668067424286 3.062951305422194 -0.4487120090314079 -1.8393065235493227 0.3474771360486209
Ni 5.1098416095924035 7.570538895473967 0.07354051012280285 0.25255200733394567 1.032758403832473 -1.345003199041361
Ni 5.997103076875214 0.5586914536816251 8.002581198092368 2.107967006409357 -0.9548956299167232 2.487331735195194
Ni 2.3588472479445346 8.856069004440553 3.15331632276364 -0.40722263153836963 -0.18447048117467585 0.24660401728062692
Ni 4.581321994725992 0.1394258786941969 2.039003412464488 -0.4877449545641535 2.2502821943722213 -1.586120482175804
Ni 7.492944142611779 4.002971480145489 8.995826350486933 -1.2849473714000452 -1.28053458704433 2.1640867322210595
P 2.937511687036855 0.39313412930078345 6.882755219381266 1.5684919704607632 -0.16690753259024801 2.4401579057228684
P 3.923290052587103 1.395569883432501 3.725371727574814 -0.6667850087518775 0.9481408276913929 -0.011068856219651906
P 5.656818139138909 2.4393873513734805 9.360691577498551 2.257258625690054 -1.5003847332698805 2.1358313369197925
P 7.950830742319251 0.6682224857769179 11.46977679061152 1.1746858694386155 -0.17045385518060968 1.349949744413359
P 5.228098819808835 4.665416831597577 12.397926925558565 -0.26014010409384875 -0.136085662113385 1.2638098180904813
P 7.046718915210941 3.4395970113934564 2.951316055790336 0.3280874186680995 -0.44858319676302744 0.3578638785995837
P 1.8078820304831713 7.637506380303743 11.569655567275815 -0.029748692017342315 0.7884601518668873 1.3580980845521062
P 2.7916198867066053 1.8772501145209644 10.82464068275662 -0.539052346588878 0.32230629320994814 0.14495931045393098
Ni 8.801039884133719 7.849423891928317 12.22945379644737 0.8294821028052037 -0.07510732265779968 -0.06536232745589389
Ni 1.1294080627806362 4.75071196807317 3.977547287917821 -1.020911531796216 -1.724317534205237 0.007059992170574938
Ni 7.431414938295546 2.641600902353343 6.773011826586803 -0.5582212062078451 -0.8507602954576896 -0.37910376181496647
Ni 7.876836888269088 4.244961113387405 4.776819407767735 -0.020829020930209288 -0.29134558316237563 -0.09078693817658558
Ni 2.757051258111171 8.169940818493997 9.582462625564643 1.282028140870721 -2.1489933282230473 -0.17632471213908987
Ni 3.7216951175569988 8.818508859908976 11.698155026343986 -0.18702255817256824 2.3807872770740355 0.7262337989368137
Ni 0.4537658788361727 1.215044822989678 6.808498222725611 -1.7611035926853347 0.07431645132538814 0.013931008258795362
Ni 4.078811948971049 1.0850800750972283 9.273718791499508 -0.7485360619784399 -0.8762167878575812 -0.04636058954241048
Ni 1.7864797652363185 0.7217004496724188 8.721096237277226 -1.06095672064356 1.885177575049824 0.22273440975188094
Ni 4.440203693590143 5.733905072937862 1.1862413257230335 -0.6881778726053567 -1.9646470313310618 0.018969599123967333
Ni 8.641344638357374 8.966025681241574 4.921643864757805 0.02974432114196813 -0.2974748359885651 -0.22945475919484998
Ni 8.801612334714092 6.400283713861546 3.3173705027173086 -3.588911371566439 -0.8913055638699037 -4.189732157612365
Ni 4.802851136256508 5.424624797280474 3.7999934306486125 2.5668865521013853 -1.5059365163260452 -0.6229266168060305
Ni 1.315906922021869 8.171842831712656 0.43123163873200154 0.535784988691516 0.13650166660488106 -0.757381685294528
Ni 6.73524116797083 3.058464954825367 11.534668680433754 0.09935513946157083 0.23831478068864118 -0.769108743923469
Ni 4.005584440052676 6.670461921649899 11.349857627097231 0.6004567178382885 -1.9165177799240023 -0.4276294773294958
Ni 5.275196729655339 4.931929509056768 10.296490390845287 0.6140460264869488 -0.6023086834453627 1.151766541638281
Ni 4.927146776788489 9.058347186937553 4.86315695828404 -1.3015214737086422 0.010710187328652523 0.7931632137695114
Ni 5.957936377489042 6.175264470405529 8.529636447441888 0.7256838399706147 0.727339887516799 -1.1072422339736607
Ni 4.818778188694308 1.8292196642128848 6.755565933496239 -2.4102099532105266 1.682792932598889 -1.2119984898461449
Ni 6.5354097500512305 6.151175380660473 2.069530724623965 1.0563014812597358 0.7255097762865957 1.0891691785220339
Ni 2.3635191833262894 2.767050677119946 7.1615802008554175 0.6953815894426476 1.4598849733836212 1.4513612521833263
Ni 3.3267042170995533 3.7969262035066778 4.577629688482586 0.3539033512899389 -1.6925813794442206 1.9995757248874466
Ni 7.022528261653239 6.099830256830556 13.285036970429791 -0.7653155954296239 -1.0035254751092846 -1.1422048660917747
P 8.984861151950625 4.3411605101117186 10.649167037031894 0.15928935392335794 1.070342532733834 -0.3873464614397329
P 6.576321500400154 6.7251032528539 4.309210381267797 -0.04103300668190998 -0.19248615239030073 0.5028797533230629
P 5.392087444937977 0.807874574781101 13.60367219653934 -0.22577216813694018 -0.04026450394700162 -0.9995878306177753
P 8.695838240379345 0.4593232660027304 8.648947151387684 -0.3092890550146738 1.8204361690073807 0.10524347992154778
P 7.675038825613689 4.902623732571215 7.091349747717514 -0.955187193015213 0.7232729165362769 -1.3113199478563031
P 0.5566158586740787 3.2383067678012933 5.574279998522983 0.5064895821615084 -0.798053194871961 -0.5475210461815215
P 3.6774871598339915 4.497005564081359 6.755633334935541 -0.8678537606048667 0.481319510653784 -0.2643256029301061
P 0.9330482806387829 7.135153296804709 4.435493902605493 2.599551903544891 2.272375426726835 1.4016587427518763
Ni 2.1231268718650917 7.758431948870624 6.120551121225287 0.8927880619527011 1.2265928427205521 -0.4434458755364621
Ni 9.01256960665546 0.7165003824649004 0.31507218290042077 -0.6763361427754223 -0.5419150128486538 1.333786247279619
Ni 7.491263723166168 5.942812602478539 10.959978156338087 0.3238340427083842 -0.06786092550803151 -1.0029739734811889
Ni 6.5410234589684375 8.117053771326622 11.896507305828493 -0.03610471614235718 -2.362503134052867 -1.3001006821017158
Ni 6.822392152295698 8.030262876882958 6.587862842746386 0.08525340995286608 -2.712448786246638 0.18414215130097963
Ni 4.42854232128351 7.879856103426862 7.627972308218368 -0.9336778581885274 1.1194020092646464 0.6821483785818251
Ni 1.6047359390417335 3.600861879728888 9.55275982690238 -0.001037697235894987 -0.936639769030329 0.04291942507134544
Ni 4.842858045365486 3.370533618793604 2.5698017499637396 0.1130894583285278 -1.5120490569816862 -0.5077928743539643
Ni 8.472148559561614 6.403339861314828 5.554428889687465 -1.1517236042154875 0.4169717405053335 2.0625667238976866
Ni 2.2896822915320354 5.949377318005076 13.006847224438378 0.06212582279646721 0.10935570231770844 0.09690359259728472
Ni 4.420629576970934 2.4804560639783126 12.339197189241833 1.5766750204921878 -1.1952104717545287 -1.666981162377613
Ni 0.022299720027695695 7.983229598553593 7.4815939248948 -0.21676147999789766 0.3154519892922761 -1.7000599472094529
Ni 5.150245540878092 3.956455253953235 8.241176753377104 -0.9011086660032545 0.7484576433320207 -1.5848218179690385
Ni 6.70954552337118 3.877641735339286 0.9783134253207049 -0.49576191133135905 0.5628106253507404 -1.4372736637420087
Ni 8.608918082901402 2.024083688386667 3.8994798016731322 0.1359393663435078 -0.14001970706046854 -0.3346522163698108
Ni 5.8717825651428885 0.6672160807243265 10.988668086796043 -1.2257559486415535 2.681861914598717 -1.7036942015279304
Ni 7.143998581578861 8.375561373734467 0.5201978453810843 1.2777439116730704 1.4698924782182945 2.444893363525325
Ni 0.22116351180498758 3.7669464126281054 7.609094365369483 0.1517184835546355 -0.7103456669516476 0.5749400616244227
Ni 3.1682277370749725 5.283663458400535 9.084988298302209 1.5523351581952427 0.4958524141626363 -2.999802731751118
Ni 0.3727308826474206 8.10422903171149 9.843544408969391 0.2277462611441755 -0.08074240945638998 1.1705710759392938
Ni 8.490439278911921 2.819023649973498 13.217522887626497 0.0670883090080651 0.5109046805100685 -0.013909925212872817
Ni 5.727506552741111 4.5151762534712665 6.082293879615998 0.4736295982086939 -0.1594446485542996 -1.1843547599869475
Ni 0.04862044372881862 5.011952560348602 12.689927503455172 -0.26140508684920144 0.6994999824863953 -0.28479826896216115
Ni 3.4873227702635954 3.6018590517076023 0.46147087898651723 -1.4456246068098653 1.0278812782458298 1.0941455486907028
P 3.034671323444375 4.562043336470846 2.5970854832702317 -1.4073750764103632 0.7777170544177703 -0.8652636312801872
P 6.544485861672308 0.6467888280788834 5.946361796076852 1.6440901167120523 2.5233240941294026 -1.1191747237451888
P 1.7602393692779255 6.866590876944828 8.031392081818113 0.2917793282656846 -0.9878137208009825 1.712047201478316
P 8.678535459933872 0.051912034565964 2.5612205311024687 -0.4500628666323474 0.9664267704847743 -0.33597530605660847
P 8.759518750908914 6.144361372139258 0.98826483234532 -0.057458242117468784 1.2905474911956418 0.6865169399631661
P 5.170641401072354 7.851325905146976 9.86288215889735 -0.1440023458573004 0.4206070232650756 -0.11245311029610956
P 1.3903162643964961 2.3348043235688642 0.740068726843294 -1.2326814721167934 0.4792153198265876 0.40697400586267324
P 3.378363265441288 7.647265739391717 1.0127047788977008 -2.922738285366947 0.8665286140355398 1.746326177265844
