# total energy = -340891.1764741262 ev
CRYSTAL
PRIMVEC
9.05889077955847 0.00000000000000 0.00000000000000
0.00000000000000 9.05889077955847 0.00000000000000
0.00000000000000 0.00000000000000 13.25860234259766
PRIMCOORD
 96 1
Ni 6.425208653947455 2.270864669434166 11.5513053076579 -0.4230387726350198 -0.677661289344749 -0.2290284702907088
Ni 4.813749716778515 0.19945050827515368 6.012935808443064 -0.7558909596816142 0.5707874729086299 -0.40742986245316926
Ni 2.787049335535811 1.7197308019878594 4.796193586087496 0.2764928344202593 -0.9543770384090918 0.8300827125036802
Ni 3.305544018833643 4.354817241578441 4.668420646687277 0.5294528758259011 0.028805611377782647 -0.1011993917591612
Ni 5.130385132693483 4.652374633120195 2.7543023505848474 -0.4731989384291786 -1.1448932115572152 -0.1451359452411113
Ni 7.310380066853337 6.007992371643224 2.6374145745686994 0.2248118611061999 -0.7798042759641021 -0.6085297246544101
Ni 5.1623720766924475 4.476840502882896 11.558253477028392 0.40402186521288486 -0.6850305852256267 -1.4304173029418075
Ni 5.6636820438288416 8.143997331274909 12.314192563199523 0.046488630479842516 -0.5157481246452988 0.3489496068290894
Ni 1.7286991040436432 6.558138819974298 0.2572607268601953 1.3750683938578576 0.2673078254868816 0.8362394761336953
Ni 2.4727692312718563 1.7288621640810211 0.5491952647797026 0.447582523412655 -0.6873615473516484 -0.673062357120157
Ni 0.7788626097591727 0.04544936186270097 4.928527677088813 0.1480513191156934 1.1089355625156836 -0.7057629326769717
Ni 8.719264084253142 2.403260360894048 1.5831037025580208 0.10766777309232424 0.13444324141395556 -0.4543365543070369
Ni 6.796786243567807 0.994838346933479 4.745293489530892 0.46508633662437326 -1.2990311031866209 0.8927528378393914
Ni 0.8578760685379194 7.441797398088951 2.6899715422828834 1.065397530023733 0.42822365927006895 -1.6298855430768961
Ni 7.844963340505787 3.625549342187754 3.831298497351177 -1.6064273120539558 0.6171586039740017 -0.7256637853659567
Ni 7.810865674911877 4.018732386760677 12.678220473089278 -1.0024278711697316 -0.8712782129053833 0.7419648365188254
Ni 8.072721977158839 0.09328121204931222 6.6961383413854 -0.4685516694651543 -0.7598265472905947 -0.06434442771434079
Ni 6.969321880895547 0.7094724108530112 0.39743709977029246 -1.1565914738307501 -0.3606095596655209 -0.0248679668862733
Ni 1.6555757361706247 6.322209063670421 9.38190655826032 0.15601274005461518 0.6826713409648307 -1.342483775053617
Ni 0.3374165117896839 5.011333187625692 1.2016709454563683 -1.983176971814449 0.059472701444336286 0.4638804892417301
Ni 6.130613519751399 2.0796948933905193 7.077216895850304 0.7089534145898113 -0.45283682983305884 0.015277237874044657
Ni 3.3891847591175357 4.290354173468382 0.6133557659315166 -1.2683442156257252 0.8289498844508176 -0.2834165581232861
Ni 6.122089103352922 5.405530827986744 4.8212658786125395 -0.8398027680049214 1.2094865220575688 -1.4613415033244896
Ni 4.949723670169746 2.5922469442150238 9.37380519206993 0.13158854557397984 0.8564213503982089 0.4190931577237105
P 0.04983839453545587 5.703677047441253 12.219830625458034 0.8495302797053306 0.10965703560821115 0.43438350822387767
P 4.061028348678309 6.016607376951357 12.534974947920091 -1.264234564332726 0.8217060584042106 0.7871409188348314
P 2.3776327583528225 8.449599017993974 1.1575713583475178 -0.14869563756791165 0.20228591208954197 1.009554454912184
P 6.579544979325629 7.978545746682142 5.63847296205022 0.05597420137277456 -1.7526834869424395 0.2878846211969687
P 4.577620664873399 1.107168594904915 12.518812074659554 0.18741388007371593 0.3757207042753465 0.15850002525284315
P 3.9687635441953186 6.227253768570695 8.458816439551308 0.0019082727663063913 -0.4775037364521196 -2.081008475542642
P 4.775820140306225 0.8443239676536236 3.834573286435183 -0.14975981716636788 1.163633725389512 -0.8252611227453207
P 0.23800243055676984 5.610560707207511 3.616893571870278 0.18841506764472069 -2.0355940519635847 -0.4248434299439263
Ni 1.6105711658543267 0.7836737867509169 2.629896600956482 -1.1577415282747932 1.631714368755519 0.2416700703141193
Ni 1.8518637856097437 6.615671836495797 4.958014367181316 0.5745441117375847 -0.055909409573110164 -1.004248469318238
Ni 6.140496769794692 5.86851262744837 9.104245208945958 -0.32943827626903915 -1.1056080408043476 -0.37249885490393914
Ni 8.704262560814376 2.4108517115230854 10.161485726294858 -0.6972854913335798 -1.4670344399442088 0.12276220553160148
Ni 2.586304311741696 5.280028952551561 6.912836072169652 -0.4521801700856664 0.36443201873540465 0.8751222692418219
Ni 0.5810644431961149 0.1648373917853101 9.279404301097289 -0.6704161777465616 -1.7723359710660445 0.522586487723371
Ni 1.3399730338257163 1.048711571504941 11.462260938913124 0.07001036775086651 1.3498823815105332 1.035186039437359
Ni 4.228400418155749 6.667624576182586 1.4936743309472131 -0.7433000103904812 1.327753410821978 -0.24042334239121177
Ni 5.790488399563049 7.860454044056687 7.790688807064556 -0.2504329041084139 0.3088545385804165 0.4598947651211047
Ni 5.402052213856016 2.942137548864116 4.703741262561521 -1.3325338629297567 -0.048230552871613715 -0.36109626949395235
Ni 0.8577682677354306 7.598778919629034 6.878616111547709 -0.5743672198400882 -1.2303343120408552 1.2481821388555536
Ni 5.05747011931267 4.567628708138519 6.934859141995729 -0.8880793436231222 0.12654635516438206 0.8353776423540323
Ni 8.324124319231686 7.136639597027194 9.503381756661367 0.3035788920037739 -0.21464186255173356 -0.7008814362149542
Ni 4.513211950109131 0.31970728584134833 10.420877104310126 0.29387066357707453 -0.29643122521539916 -0.1125173878751417
Ni 8.508907577144699 7.298277388523512 4.519725292713281 -2.5278302095298724 0.1661210321332107 1.783577605418135
Ni 7.1854126659851145 5.896042597092337 6.775729757407742 0.8856522222388683 1.217061249081033 1.1401747230356236
Ni 2.286219489620584 5.538877702997998 2.5534875733302993 0.4104897323254156 -0.9462549235225897 0.7086255989367474
Ni 2.2269652838156513 5.345017436337616 11.457753234768722 -0.3589627680907173 -0.4145304780536925 0.5364491046380762
Ni 1.069954670818894 3.364390574545131 3.882542831764469 1.2716156872881454 -0.42093689580066856 -0.788759685385177
Ni 3.691860424054763 2.43419647354102 2.662513137877543 -0.21784982796606997 0.8484738134163581 -0.01996513026801723
Ni 1.380402864204468 3.6369091914584137 8.22481532113397 -1.202679269327748 -0.15370106120230304 0.0606968036594245
Ni 3.6774839640926125 2.443536190126387 7.091363259981933 -0.42268473172971077 0.45846805997690726 0.12493581614415257
Ni 4.113352502894681 6.870290084861375 5.963798572068333 0.7571243178680832 0.05826711117200933 -0.09862700304629467
Ni 0.8398869228587518 7.666566600723409 11.647509823821759 -0.27791259758592135 -0.11862427210382795 -1.343521215179196
P 0.09895841901735247 5.634584886047853 7.713364831450864 0.6690763758892155 0.7139770930566478 2.232842401629219
P 8.59842753766516 1.5433360771088427 8.100395983169157 -1.1820734201519385 1.878646458799526 -0.22720272993587967
P 1.6909144698267997 3.2815198399933 10.418569804781228 0.027009181598992193 -0.03252805453469237 0.3977571152500956
P 4.088884438397032 6.274296589354217 3.74754361504112 -0.9432379910731369 -0.6102071123568329 0.8654374378538903
P 6.653827885242224 3.8967725376929794 9.999306213118809 0.7103117283899185 -0.06766243634398025 0.8728836097192902
P 6.377613240815042 7.701995923289239 10.223005560730249 0.19943712978683717 1.4530646080276781 0.28662889441299666
P 2.654843880786203 8.636275584118762 5.899149796693482 -0.2642137599425901 -0.2837276616058017 -0.8222092232928744
P 6.829769665572968 3.7757276366127916 1.5756527647389478 0.9781885390063928 -0.6011452592648808 0.6153174370002048
Ni 4.996585313133959 2.7496179980666193 0.576458903029286 1.523977432988156 -0.7703037926728346 -0.09674084176717532
Ni 1.4113661535243363 0.8830987386529894 7.215649432249554 0.5483278583535331 1.9185553791793215 -1.2724135005990926
Ni 6.70241071748987 0.9082806437587152 9.241590678429356 0.45594066556936313 -1.0144485497796918 -0.26011387884160364
Ni 2.5539731298860464 1.579354227587426 9.314512938922942 1.0223364371682007 0.3641900779279276 -0.21833293825007563
Ni 6.46612766443834 1.748918548678502 2.5760804473981023 -0.48576854756407306 0.8511127937011019 -0.8459564463111431
Ni 4.223209673632552 6.8332211030308 10.524943831942888 -0.1454946141321107 0.4010735812178383 0.0298996157729098
Ni 8.144595218078628 7.096309414449062 0.4162542280837011 -0.660127908446676 -0.2574381317816534 -0.21787425344610223
Ni 7.773669868607787 3.6963536339736205 8.104652756033817 0.17009415784834578 0.15403376195137344 -0.27911150299002896
Ni 3.1324104947021842 8.3486014426203 12.373100719369576 0.6568998884276817 0.011234692373554844 0.166259614593604
Ni -0.09931896287777692 4.619554271152413 10.295146038933517 -0.05978097671337446 2.197080156427945 -0.43733307777050484
Ni 8.614144713490196 2.4095744078969585 5.800797417481718 0.6555212629126 -0.7163139687199406 0.7998370262452612
Ni 3.4664933346165867 2.9438768559294806 11.571975885062837 -0.34995773637862954 -1.4650325790228318 0.7006988878905028
Ni 1.041808696589277 3.374237589024562 12.680076639848098 0.37588114111261073 -0.23297331387106973 -0.5519592844585332
Ni 2.943170262434176 8.268783554323822 8.074701344834788 1.3142561476664913 -0.616715602899312 0.8294713041719263
Ni 5.748699735539482 7.676241496274497 3.4385656796592365 -0.19847142343945817 1.024606978369932 0.9611022729480674
Ni 3.130381303125926 8.368657827217781 3.5607963895668 1.1148210747621834 -0.7085158128317605 0.40304973110760267
Ni 3.4065053586434537 4.425884241202305 9.562077934782828 0.6631924063046127 0.1690492615235992 -0.813121144948677
Ni 7.068453324730339 5.960514724093361 11.517894305999171 -0.22004400740391136 0.9756868556304615 -0.5276194221615881
Ni 0.3414676478294279 0.0315557407890081 0.41605493248246145 0.7475058209417126 0.6094733195146019 -0.020730290568815913
Ni 4.517668924464127 0.340146861526667 1.5022132415712353 -0.10475137077647767 -0.7180306943007312 -0.3488791586024701
Ni 5.728235700848557 5.171213554274715 0.4446139921401026 1.3272111651652627 1.249938459425028 -0.07105500696529699
Ni 8.043633878268817 9.17765302599529 11.114646833563645 -0.8435401235601666 -0.6891062979568972 0.8495300225950144
Ni 0.28361213478955904 4.768129141876568 5.745443064237406 -0.5136986983154379 0.5304100975328478 0.0392193505119389
Ni 8.023876437073197 8.684052175070484 2.4672134134427535 -1.3377282626465026 0.2637810432805457 -0.21592304325700235
P 8.597349529640272 1.3746232917685182 3.5784041559363233 0.5871579438468533 0.9607158361429261 0.38392766556617103
P 1.6489174513110272 3.4586573939314826 1.7102008486922182 1.7726367901359146 -1.2608098549218931 0.25676064609865457
P 4.648778253406917 0.7989959949298595 8.204092202161434 0.1759195062808712 0.10213424486860476 -0.040368890735349834
P 8.441011189358738 1.7584485019741432 12.534271977981172 0.5838412207687945 0.520055236661085 -0.31154802625217953
P 6.179812356584694 7.66998180261738 1.2715929012622014 1.226535250009739 0.12633243938136307 -0.32624188081892846
P 1.9063258380939594 3.32781077282669 6.107880232873631 0.24214572439895718 -1.0261612102309297 -0.9472167732152267
P 6.858359525459893 3.7912092812727263 6.005735801903734 1.2533127752138995 0.3674276110286188 -0.34686572771686713
P 2.407436509629115 8.640415497289968 10.267090653613554 0.014381722642968778 -1.395887387485738 0.24780549378789582
