# total energy = -340870.1135906099 ev
CRYSTAL
PRIMVEC
9.27285909196270 0.00000000000000 0.00000000000000
0.00000000000000 9.27285909196270 0.00000000000000
0.00000000000000 0.00000000000000 13.57176659605009
PRIMCOORD
 96 1
Ni 8.428166461512864 6.69403055288806 8.74656954852354 0.74674888817103 0.7201855358602048 0.5661854553602442
Ni 1.9189161700581145 3.7172851730246923 1.5349938431613859 -0.6813665061104782 -0.18883955677664896 0.05169922814650452
Ni 0.6818277590723406 2.0378313139644115 6.5869345950721385 0.4298167147888017 -1.0516405854489566 0.45383647474216676
Ni 3.09683817686356 4.800234557880022 13.225265865762603 -0.2068277658239535 2.2883538044329623 -0.555669900540901
Ni 5.5035530949870815 3.9770643181069536 12.85737538480315 -0.4125481575163411 -0.7779122011477119 1.0113922794518713
Ni 6.813761708386978 4.192658290020663 5.134023172555182 1.6545095122731637 -0.5623635105109928 1.3156766821631019
Ni 8.991455554754593 8.422324560338428 7.009586872183577 0.6302046385246824 0.22183118121132117 1.3170198264545576
Ni 4.291367874150617 7.791204503460191 6.934955193751305 -2.1518817055144357 1.1182830651688547 -1.0936655237304906
Ni 6.555215853552653 2.6490703611315514 6.921261962855607 -0.286037540685901 0.42679566857429074 0.7968604601154405
Ni 1.8043314513081052 6.5052907806587426 11.834336087420512 -1.2585287721972005 -0.056590237690218675 0.9096259594456463
Ni 4.095766186256088 7.177100142859876 12.06249107414516 0.14326058259526941 -0.7958086218121584 0.6099744275207366
Ni 7.595788272745804 0.7292315416022365 6.18735504574202 0.886647496272602 0.3682267098911465 0.18690094499303941
Ni 3.64000516606001 8.265010507283973 4.3421098859230485 -1.173414973145992 -0.1536612091033031 0.5298681089864488
Ni 2.1499401793595405 0.639498084991098 8.571398750879226 -0.7249294783030935 0.8889692024272432 -0.21134467985770053
Ni 3.5963392729958525 2.590771896554283 3.0135289569725 -0.20215298605610346 -1.0991998232851585 0.6479282810566906
Ni 1.7932040204996558 7.6554405747381 8.14753822023917 -0.7253912484308604 1.0659577734025771 -0.07516671514082539
Ni 3.382646237178587 0.02130902999818085 2.0923047242012753 -1.3224602807438384 1.4528946581087172 1.0065051265628988
Ni 2.9649595760654193 6.731196171788282 9.779624460919685 0.9642621587332878 -1.7137937518557773 0.7264883381497811
Ni 9.149437253657554 4.635159121836673 0.08917244864121242 0.6396999796096273 -0.0004782251879991764 0.1547701258967657
Ni 5.606769288594458 8.733929714411042 11.269723757198479 1.3331149322442073 1.5435728386215803 0.8001928669227831
Ni 5.71319389141827 1.244176584410756 9.528045305057349 0.6417717745369915 1.2574175414108926 0.40564551685923683
Ni 1.668335701110838 7.443917387928482 2.6733263057221697 0.33173144317859 -1.0210596273383061 0.11364584505263006
Ni 8.909483481132348 2.6196846709382378 1.911718576896849 0.3670211196188195 0.42906852376886745 0.8195895262818401
Ni 0.1484788729925463 3.6731092727151475 11.482460761252119 -0.44789259845390605 -0.5976431596488933 0.8314076019626907
P 1.5730199833774607 5.512863045430151 4.076728079428732 -0.2873176929499052 0.6960688453176592 0.20978170624595485
P 5.100805009734257 5.923854702340234 0.2791659114082825 0.574832589512281 0.23982581801652889 0.11744105042900418
P 8.398752952742528 6.254330124492178 6.3351106357320175 1.1534030488004396 0.8042089300607118 -0.24744888177942542
P 8.637584709327884 3.4834885788801606 7.61947486379339 0.32397673893383555 -1.5349501299495758 0.8430328449064448
P 1.3257313793776841 6.095078043905251 0.7428858264901047 1.7569348060196255 1.2353749597885564 -0.3873752577951393
P 5.557428405817991 2.6738381675393588 2.14934671638309 0.8247741558065732 0.35980454726572225 -1.3956223067498092
P 7.603957661531006 8.99284648360565 12.779867265506894 1.2372084134528691 0.7610413935343022 -0.47390907712232583
P 2.6404095108189747 8.648341225776052 10.987946608693814 -1.0070553426394138 -1.2761871087089118 0.30177654868771253
Ni 5.463948714168008 8.855914174648671 2.8385482529378296 1.5949002852509628 -0.23716961134060446 0.27045768396977293
Ni 7.086587766092147 5.521134435664432 12.390628808541429 0.24870537989434588 1.1621540555201921 0.5947547823575048
Ni 5.708705827658862 0.030446505263719323 5.18018068283453 -1.8882873243233995 -1.5673424302373522 0.6213556727744847
Ni 1.6179469852665758 3.294248072264462 4.1974486489837 0.5743749331495721 -0.5121706917066856 -0.9501838262633506
Ni 3.718129003194333 1.1447437172782524 11.507663464747358 0.45667882928696835 0.05734202825457867 0.24312222937961353
Ni 7.206958748862549 5.092162705139695 7.619325570763377 -0.8146558364256486 -0.8214173235191982 -0.30627160834458866
Ni 8.739354336930163 8.170334616822082 2.871771979474158 -2.3235118403913337 0.1599249306248278 0.17804478015399014
Ni 7.057109347308762 4.556747826073131 1.4991375519529586 -0.12257914298651791 -1.7890771950801254 -0.4762238412984314
Ni 7.801859018459282 4.8985732276496945 10.220517378983873 -1.3053513889776938 0.2845355022190777 -0.8758331792659174
Ni 3.3726871866050243 1.578277694434453 5.395591052139901 -0.574494746556888 -0.6374258388634699 0.29007314420785524
Ni 8.297011143717272 1.3874329832105368 8.633435104922233 0.16209108503821115 0.5189031253345128 -0.8004713173951504
Ni 3.761015976101899 2.559568725995589 0.23502617524886532 1.1722746888939617 -0.5997882310163541 0.6883894743955306
Ni 2.4474134963054244 4.141972842688175 10.774924000582757 0.2941190321424548 1.7207827815791008 0.2631732344932177
Ni 0.7072214834631232 8.686536132026054 12.477067618347366 -0.5152889256206933 -0.9458846846673644 0.19097151551798724
Ni 4.970029879157955 5.096706406053145 10.868230289769308 -0.6841196433755831 -0.09243758640613112 -0.33833635008961727
Ni 8.483386336899795 7.233479125622687 11.424238334118709 -0.5592653312016432 -0.2528443417633839 -1.2325241206033224
Ni 8.388766083591944 7.180957652206805 0.33398334471430774 0.3122748771158751 0.530332450217377 -0.14014106312968122
Ni 7.539464927137035 6.429503703994194 4.227279436409352 0.4898586584730466 0.34184564879445645 0.47307295437427554
Ni 1.280118185922048 1.2952329461035252 11.319464300198149 -0.07624477869635256 0.11505866623975668 -0.6111905593160247
Ni 4.153536097869956 8.75888297799899 9.341745222032783 -0.015305262898502672 0.1084542735493616 -0.6606120471719461
Ni 2.3370572012626263 3.9741433675197357 6.743050594742884 1.3615379634715907 -1.236493903884348 -0.7395310302663521
Ni 5.919570641478981 8.546775601071928 0.41248087806661415 -0.7789622396787811 -1.2444337275567148 -0.6745276288117739
Ni 9.100012915150025 1.6827735425848012 13.302000628617673 -1.1199316565158712 0.39698501297076144 -0.9576755066547056
Ni 6.67049603672819 7.537573263899599 6.707601382044866 0.11819412654494484 -0.33302753628219417 -0.36988430009922746
P 6.1699471075281025 6.836925310186567 10.663445689600104 1.2284509789752134 -0.15908263722919055 -0.55114527319767
P 1.961738232952631 3.062862421461761 12.75120393103023 -1.3831519421969405 -0.6007428816201396 -0.17578323781332308
P 7.489521308525111 0.4055846528230776 3.9499272962228473 1.2337757336222364 -1.9404115558224644 -0.9889012974382067
P 4.108293818774602 0.3113084225843897 0.11435289727483298 1.161520278590935 -0.06863945554526889 -0.865495287675019
P 8.40244355062733 4.15264590340528 3.5610551171881597 -0.3369687803181293 -0.6348027994183261 -0.01672991116017119
P 0.045048476342107215 8.807287302015746 9.246023353074898 0.7602782901160325 0.21743356636425779 0.2652630271427109
P 0.6012985423115914 5.541683091224035 10.195775536581285 0.7999334426138094 0.01948330553559225 -0.016003574517107926
P 4.780390639604954 3.1809151894804035 5.309288553361368 -0.5959608868504639 0.9328137104160195 1.1997286713398563
Ni 4.963288510659835 5.599286091375776 6.190938078462342 0.4447800209668533 -0.9998135734753362 1.2061777693993097
Ni 1.1613606806188703 0.06486921246965795 4.349045057174414 2.110113363328398 4.443170681316322 -1.2947173063026154
Ni 8.829254705003427 2.0165315568252375 4.417759724274292 -0.5027933642568438 0.5777381931948502 -0.12642911286022743
Ni 2.2348053849919824 6.424635453015497 6.271988429899286 1.2288250744851805 0.03704985366444587 -2.636336419363092
Ni 4.405451858514246 2.0788915336475906 7.790330072855827 -1.3650652598985589 -0.35222750624941274 -0.6232256361036879
Ni 7.0872832305176745 1.0054190106974572 1.4475507827249867 0.30924714603314485 0.6081286325612495 0.9267937294741846
Ni 6.16998419896413 2.0208341634045053 4.144288275582234 -0.3614721647761323 1.4239756610815217 -1.0310167385510178
Ni 9.010566917168104 5.753484463803865 2.169677459756028 0.2579556948480202 0.32813781229006067 1.8581509099493354
Ni 0.3488625742770061 7.638313604152096 5.012691521591649 -0.872647325338768 -5.035653636920514 0.4917723305559918
Ni 5.792653020249607 5.081777103051809 3.4536346093069907 -1.357947417906855 -0.18492505221359118 -1.0226989627139418
Ni 5.317734273344981 6.630029280021462 8.566458171600274 0.5791754398620089 -0.4866154689454007 1.8102422591935148
Ni 3.6363516596112357 4.96737784148194 4.443490980732931 -0.9942227096511199 -0.4601716729315752 -0.6216716613530068
Ni 2.099458734925208 0.9029075543746159 0.05511972850965475 1.0615470459293912 1.0935503383088652 -0.925247210922671
Ni 4.244947941961369 4.422875560588476 1.7222703582393928 0.8097753684048958 0.9548339234408523 -0.006301773848311727
Ni 6.4335930348163 6.714236112664404 1.9666435753673557 -0.08287616796994114 1.1883404841075726 -0.5413966784513385
Ni 5.205208129294535 4.2392265879540245 8.620582922338475 -0.1762568350156319 -0.9053257894083956 -0.3632752794231421
Ni 0.7763293197848998 2.7082126558784605 9.483461398951492 -0.41379977053525513 1.0331810931921883 -2.0540633144123657
Ni 3.553730485858498 7.32495587972715 1.096292101680561 0.2047865670242086 -1.5801910040652463 -1.4197940189000064
Ni 7.674357207112465 1.2969020607247927 11.05883205208724 0.4122465671155223 0.1097771061258432 0.34594347301291384
Ni 0.15130431313199177 4.204750098165845 5.691781932685112 -0.9828833733789007 1.6539500402252676 0.014986960327135479
Ni 0.9508482354410193 5.457021888489748 7.835496314507324 -1.6157421616969785 -1.439252127624618 1.5926857940981474
Ni 5.725248608127424 1.6602775866337192 12.59226527307774 1.3479615103387366 -1.0591821452416403 0.27861296608705566
Ni 0.5909027400787975 0.08533348501229733 1.3237423511206736 -1.8051866990474783 -1.005785731898371 0.7594169705570019
Ni 7.176395405575341 8.638029806560223 9.076322614958837 -1.8405985028878689 -0.5787108415207646 0.22334838918679598
P 6.344490132617641 3.281646256873893 10.291687499148814 -0.4651588417335215 -0.8825054490797705 0.5054369725272779
P 2.8167514705558787 2.2833395290348366 9.921897936664717 1.1305089178110854 -0.46023826450345257 -1.8609981495901435
P 1.6881518008088852 1.3220222357748674 2.5832228620366506 -0.030421035494018575 2.032905706498144 0.951434153730684
P 5.611693176727196 0.13236635318191137 7.464457697914979 0.5887533133584313 1.292643197382406 0.5070310564872752
P 3.3807360282231365 5.428238934131891 7.998833089486853 0.20244609181649006 0.5870790109798019 -0.15790738597416676
P 7.640872913238038 3.335132107626507 12.974880126854476 -1.0758518925878375 -0.8593331247283652 -0.07087374419242633
P 5.331476650393416 6.949924370046372 4.5419956346788295 0.3784437596334644 0.5695039782105159 -0.31755360901631113
P 2.1421138863575977 8.779329632109517 6.269653524001314 0.24935458344257055 0.41535605927878144 -0.21651079743967228
