# total energy = -381163.3606662397 ev
CRYSTAL
PRIMVEC
9.34388670666354 0.00000000000000 0.00000000000000
0.00000000000000 9.34388670666354 0.00000000000000
0.00000000000000 0.00000000000000 13.67572268975316
PRIMCOORD
 96 1
Ni 4.682875727247645 0.6552307151216432 12.45580750945836 -0.1822817010534732 -1.4168405926986374 0.5291885664209208
Ni 1.557541827824166 3.011487983145998 9.93609669596178 0.6217199980924389 -1.6985008302524491 -0.36548771369342864
Ni 6.364850095047781 6.1609571420692095 2.7976699536515084 -0.6654369793644153 0.34723725212367296 0.5929254424582499
Ni 4.731790974433514 8.157371987099303 0.5907980751943099 -1.208051846493571 -0.6128970004841702 -0.9117039250205976
Ni 8.737823576484843 3.1803320168897673 6.6950462341315715 -0.1103923711123389 1.5039397976109907 -0.8680579061958728
Ni 0.8977484927978697 8.643562446855228 2.869317008545835 0.19092369299918732 -0.3459614707350429 -0.11341830242285629
Ni 8.698878256471337 0.8037415168881122 11.288748578090138 0.26210571246065184 0.21621357791422763 -0.27987666329082767
Ni 1.5448061101709973 3.0131325072156665 13.589934846331479 1.4165346314224443 1.0327301216976987 0.9850716392794713
Ni 8.177863130762839 3.1334350492439467 2.092330777004812 -0.5166634373707166 -1.968579276505932 -0.1759760705504195
Ni 1.2259366306170474 1.1479058322886455 7.416918484010488 -1.4266202977932205 -0.12576216870018986 -1.472977287791205
Ni 6.8021346515045975 0.022517832701666303 -0.01977820510378732 0.6631972914006191 -0.5448239589653326 -0.025393243262124006
Ni 3.3603233075375942 2.2781517186018774 8.2853542696552 -1.6791082846584502 1.9073618244563477 -0.686922660042017
Ni 4.926059724049822 1.0829658193102727 1.238224776094437 -0.5441282184498887 0.5791178471511962 -0.9889365215515162
Ni 2.7828617619150875 1.9772131577393657 5.938751105430736 0.3039221342758056 0.5112047282489905 -1.6617417683555447
Ni 5.569974992305738 0.7071191870743769 10.185309368501173 0.608519440241765 0.24206319198747986 -0.01540219348768315
Ni 6.55877312085399 6.631982473614501 13.667353620077135 0.0697979946297443 0.7761983037803987 0.03252239810773754
Ni 3.6444428722330455 5.74843388552501 3.3692327035627567 -0.02274140746157374 1.2492589168594999 -0.8430009632272449
Ni 8.016260609257664 5.848217252229476 6.060245927409526 0.4851391415101903 -0.8990114171545937 0.34443654945008423
Ni 1.483117769784923 3.6482551780309125 7.673708114323142 1.072615645038727 -0.34491734574124466 -2.520101473427047
Ni 5.1767935813536585 4.712327658313521 13.091154433555834 -1.4369767013268802 0.4384815895526512 -0.6416722728446498
Ni 3.379001737169791 6.608277032905705 12.887235317694335 -0.10879623026981264 0.2811712137325351 -0.03880128913791382
Ni 0.33754697479747087 6.603679840620042 8.644520195248074 0.3114726929295539 -0.28613858504013945 0.7899879013653233
Ni 5.059387644220815 7.361067269683059 7.5626195790283814 0.7187665440254911 1.0375923348860068 0.1959658834087851
Ni 8.216985984624772 5.296572865723409 1.6669064160118017 0.16034067800600774 0.908229850429068 0.5136665595259217
P 6.084225144000375 2.350295868271808 4.945414651083406 0.45394883195031493 -0.4662739291745711 0.24120110109750073
Ni 6.7794009750187865 8.057831561450582 5.765410793378306 0.5098052767983026 0.6912426275736094 0.486536278968033
P 3.6051611722961994 9.690264641651964 8.606774630294487 -0.23309595549186307 -3.70766162772517 0.07749947703906007
Ni 8.725751274791596 9.041939058845577 8.55988140020337 -1.5291337803781149 0.2291824793700698 0.8840506820797033
P 3.301690418121869 7.916561337534033 2.5471584808525485 0.4712508135638723 -0.0772631926585379 -0.2576448484758208
P 1.298557318511711 1.6064103555762363 12.126700867570726 -0.2147634757312624 -1.6611666125783648 -1.3765796882960615
P -0.12855225964822392 6.789520404379302 0.6258610102592514 1.819768196406079 0.5639197992545192 -2.3180986397955627
Ni 6.444413290804738 7.700259702938874 9.844919983351467 -0.25367660785669216 0.6303481060810822 0.593389783689178
Ni 8.112035448542315 0.053291923744007465 4.007451938450094 0.23669344303513426 1.5638112771556423 -0.022670702124638377
Ni 7.857143561630512 1.0054582786404016 6.324242497579766 -0.46096408692588353 -0.27766962833717984 0.29680249251188884
Ni 8.126882884603125 5.23655708106728 12.476635033045238 0.8220130481216683 0.05512496599860183 1.1056118974590894
Ni 1.2639475619546041 7.272328377128296 10.71401264423537 -0.7609226085682508 1.0718448283109734 1.3199097464078429
Ni 4.443447972922779 2.1265751875896233 3.479431700838014 0.30646341264042054 -1.2485374653124433 1.2175896107806772
Ni 2.366946674477198 7.314310460338631 4.588957518262103 -1.241006961263353 -0.48417909158976613 -0.35230541067519966
Ni 1.2475957601255174 5.101593980713378 10.783334940103938 -0.08730695004778513 1.6157095086868303 -0.09678455052091718
Ni 0.8744962305969084 1.486481569018335 1.8467837112411627 0.8111833044960159 0.5225373796529904 0.20430499940209979
Ni 9.374815024651983 3.5313911863301195 11.540258912383685 -1.732803717299377 -2.332653911901918 1.0730447621563455
Ni 2.83688811515839 0.5408634099629829 0.4819109596200836 -0.9536206198590416 -0.4096613228868493 -0.2069717476009855
Ni 2.9721969393223926 4.123494602504729 12.000569608981882 -0.3705196196903813 0.3812796864203627 0.1736008854500236
Ni 4.510695925930742 8.430334951003937 5.094781352877043 1.2858626841254628 -1.5836949034534467 -0.9126436632260475
Ni 2.8082304144670704 8.441968090019488 6.524098891478243 -0.6590179632119488 1.598007463421377 1.9115403813140694
Ni 6.446039127100887 1.1224530847558272 2.728498094359768 2.216819029617769 2.1355552004402707 1.5942536528058995
Ni 7.292137417058389 6.267000912902526 8.378691288884301 0.646041605556939 -0.4232282629380066 -1.2209724112099811
Ni 5.123159671354254 0.7861030618522454 6.467112394909537 0.3499284258025909 0.5892415658487594 0.5297133285761393
Ni 4.041156272380207 8.32858002419322 10.797420849393852 1.0191431270418834 -1.575002003665139 -0.27699574219860684
Ni 5.316746317237121 3.979636121955804 2.0270291556088473 -0.172072107510323 -0.15664497432197536 -0.3685460409037782
Ni 2.9794010760139504 0.29616383472841823 3.811013538328234 -0.8726365267054906 0.9069903215950121 -0.024555834962493195
Ni 8.839036557863508 2.070904310276653 13.415295734019482 -1.5629815821654953 -0.03470140803692733 0.6055937819545377
Ni 1.2227783968923438 5.389666009508089 13.372613793690862 -0.2914250302500594 0.335060507551823 -0.3180392904034781
Ni 4.845674266258032 2.7733216535336607 11.301466542358462 0.7027771105757703 1.119835497257639 -1.6867521743569533
Ni 3.180677740699868 5.059724024144157 1.1037512954067317 2.1265658524574667 -2.6758144228530565 -1.735966431298075
Ni 0.27074005324455425 7.893762253840906 6.873964846579409 0.2212208013208319 0.7093143974736558 -2.910905297287761
P 8.256538657277645 0.8514495339046556 1.5781236071892684 -0.6685349015634486 -0.3835142321778363 0.0006468895553795311
Ni 1.0319388537167626 4.042595230941167 2.1840812042621556 0.9893568969183865 0.10371521620247945 -0.44355669008271353
P 8.34935148445954 6.060519703291579 10.314927765628651 0.018476461537632695 0.3436837304444597 0.4417250361906135
Ni 2.2289187792661873 8.906667610228613 11.96709139711135 -1.2265943853824488 0.26307270435961144 1.426435435475924
P 1.8375313945719276 2.5089363776742273 3.5346138928734634 1.7322514443403327 0.16125290540763196 0.7114039330128329
P 6.507129458734355 0.21843858149705148 8.34349006429532 1.1717357856713562 -0.27209650512477657 -1.3905456635578504
P 7.4455546937622605 3.182677332466396 10.435656388893165 -0.16655940522220994 -0.9870033090845453 0.20741500578599117
Ni 7.158267551455346 4.062441646418298 3.9850368885027816 -0.15515707692253924 0.14795695962967423 1.0183594547983237
Ni 2.5549269883043784 7.624107025849127 9.016020985752135 1.4753293329631494 2.088743896513687 -1.768202408513645
Ni 6.806629061035907 4.055695360177955 7.59005323055421 0.3490462803079537 1.0257655174544078 -0.7067211828251829
Ni 8.697644863419088 7.3533585631064895 4.386829625492396 0.6238506712821966 -1.2703440196645734 0.01428556338473669
Ni 9.096806361897233 4.286386580382711 8.843665519364155 -1.562115120400142 2.236324960861181 1.532113431831729
Ni 4.281836107530845 3.972413297490727 6.7409004240150345 0.3109535872012903 -0.33702097371230344 0.3878236581864676
Ni 4.622187182744835 4.169784217511183 4.370637604126897 1.1205158111541154 -0.5878742531875876 1.7961431007879711
Ni 6.367148691190613 5.005800453655209 11.012020027821432 -0.08376371278121703 0.10082915290393603 -0.48957506579435683
Ni 8.502404349579791 2.2051385874633156 8.661396189124368 -0.7754969068379999 -2.5168428572804333 1.393983999815438
Ni 3.3306377793027324 6.106201965658667 6.711197142395328 -0.4523069254715178 0.21257135317595002 -0.6900370373012826
Ni 5.290508683216507 5.303085554794764 9.037710950086913 -1.2310058841865832 -0.49588815249657814 -1.6880225564289444
Ni 5.482824560500085 8.531463837401768 2.671334063942633 -0.3652421733415258 -1.796270370394455 1.4232606372923682
Ni 1.4181964445800688 0.509997748830399 9.512737333942614 -1.2572859009290347 -1.171575348834092 0.8495187097411047
Ni 0.35312697158022466 9.161129678349479 13.7121005593796 -0.2785970252474557 -0.899108090633458 0.09132507006824271
Ni 4.014115064098278 2.6848537336949216 13.407131980157725 0.2383870286874733 -0.19221464389646897 0.8748810997652934
Ni 0.12070059160423445 5.0577524640379075 4.070058782904625 -0.5603590784864544 0.19456103264145846 0.38873408581587887
Ni 6.565126963850435 2.0136356283278114 12.550962849050858 1.0805433845262358 1.7833289797424385 -0.14022282421021012
Ni 3.164036278381238 1.2013248328925819 10.632245225591852 0.9242586217571566 2.0456990016080705 0.8179090532556237
Ni 5.552903711196171 2.3811867578986425 8.281484031759422 1.4899049167844793 -0.6212235180719946 0.9428803506234018
Ni 8.518176830429791 7.6281716165895 11.89268228929092 -0.5987407635884462 0.36993777904498226 0.4931375863346346
Ni 0.15313602571241083 2.5025264713572253 4.747841903108944 -0.43466632957161916 -0.7500103325311213 -0.7754691389238579
Ni 2.4261869165322896 5.435703339572037 8.824068585663502 0.3937294821479413 -1.320709873711635 -1.0094924913259968
Ni 3.7275660888453626 5.89167566954781 10.65672527451301 0.23353098614675263 1.0566483230761932 0.8766050244349355
Ni 1.8563686702790354 6.411821813787677 1.9592112255085552 -2.7522785166490666 1.8504689679240451 0.7324720665370418
Ni 3.1336219269791363 2.5638690879331993 1.7798403689415578 -1.2542180606369884 0.9189495508394173 0.19558304614806962
P 0.8763790237789433 5.815485616911026 6.558206881316366 0.5025449956914636 -0.8939252608809378 -0.1433829671057466
Ni 2.1690992162320084 4.583867903144215 5.244379783062315 0.20054244703587398 -0.7031782026689309 -0.28422928383256857
P 6.829278642540881 4.1711484249780675 0.4474366894209891 1.3391397982820485 -0.8371234214005453 0.361011680199946
Ni 7.980043704177927 7.992041254777098 1.649210028878026 -1.272818706457311 0.7047008099610443 1.9843311400235504
P 6.016846376577779 8.181012020600782 11.928895456815953 -0.22316661219329306 -0.053011776310340965 0.7069404979248405
P 0.821649075862652 0.005360587833912593 5.290548861929572 -0.055505746376788276 0.11588964678148428 -0.5271206281482986
P 3.6396214266651548 3.812006793490766 9.829945470430728 0.28064799423921344 0.4012664139549348 -0.1259305759572541
Ni 5.734997376364881 6.07071388374617 5.339029618381125 -0.6877279295521317 -0.428653547718636 -0.08892211705370492
