# total energy = -340864.2887831413 ev
CRYSTAL
PRIMVEC
9.29251976782910 0.00000000000000 0.00000000000000

0.00000000000000 9.29251976782910 0.00000000000000

0.00000000000000 0.00000000000000 13.60054198251397

PRIMCOORD
 96 1
Ni 2.5490589092467473 6.601666063140821 7.247524977137853 -1.131704223670767 0.023716369780333348 -0.6141151891619875
Ni 2.67877318933619 4.249506350169969 8.341171822143558 -0.28471316544752256 1.1270600400305364 0.4636588601492273
Ni 7.152517328233027 2.344902255219592 5.913216744391735 1.1306600986769688 -1.5237828004788467 0.3084282496762753
Ni 0.693488652089047 1.4247198014924634 2.931447017070272 -0.9045925107867969 -2.1481656901154293 -0.6604022451539852
Ni 4.33421695818597 3.028004658232346 9.468779109015792 0.49055311343691005 -1.5250809504649798 -0.8803534357337742
Ni 7.0058534925247615 2.2943602415075444 2.2739018305150003 -1.0727066620906365 1.677846387226891 -1.5568934669898864
Ni 9.051471571310463 3.957591141721673 11.719042628355814 0.14727741706414638 1.5950290975193433 1.8639762583818609
Ni 7.142100413842292 6.989312807765165 10.87172932501033 1.6233449137449012 -0.6012005379828484 0.39363486555160593
Ni 4.539767490142304 2.63885252544449 2.1205287957076178 1.1777285129196815 1.3891346421429367 0.8465984507705163
Ni 6.195889612917618 4.163299646509982 12.99496410240446 2.001070821375735 -1.6476302686548272 -1.3183478012373617
Ni 4.6834484270821255 5.897265205370205 6.799876433922098 0.7622955776563775 -0.7019792972648233 0.31837816180013556
Ni 7.194212863354549 2.7073012242867303 11.452608437704873 -1.1527826416076212 -1.2834293920936217 -0.5812773166963603
Ni 4.341743899003538 5.52085311685505 2.6119432473957036 -1.832509555232147 -0.8817945390556751 -0.7197325074831862
Ni 2.182311041040569 8.90553255212537 4.452545114097922 -0.6855327216730258 -0.4418823877040841 -0.45904295864377076
Ni 9.059639695975454 3.4787847805289918 3.4162925867041114 1.356030146279484 -1.6186701339770513 1.0086846507127207
Ni 2.6617121234830337 5.7663800678202515 12.793838668247295 -1.8466542221636455 0.07756375461809223 -0.3542489075548157
Ni 0.019414861049564656 1.5831944295206428 11.46546092146386 0.526669656653809 -0.737683178424336 -0.8670780587811067
Ni 0.7219005305454888 1.6335691778811894 0.012365555735727606 -1.7909487010712253 -1.0985315935735402 1.6027377790175108
Ni 9.225427536872061 4.3027153169865135 0.9183072232864061 0.39715136334529666 0.15831490582523056 -0.703090528051131
Ni 2.295447466292304 2.4883787567298006 1.479943386542649 0.08953301116482645 0.8447829948283321 -2.734326045935704
Ni 1.9610189810040342 6.917788284959201 1.5062328535389269 0.09033930911620572 -3.2261659965048377 -0.15388258108548983
Ni 1.7976657802237264 3.2865968916537245 12.549764138084297 2.079116657836568 0.03869921634241077 -0.5533170840380084
Ni 9.049873257951669 0.42191198113138556 8.667828973350675 -0.6864169240501921 1.0309159513070956 1.1128958327150125
Ni 3.571115254557841 0.4153709766357227 12.975909791112578 0.3373202501202771 0.6928099720607294 -0.4620118114641075
P 3.8492403640267874 7.575364136828916 8.629162799595237 -1.1360794699203272 0.834381339879034 -0.1643693395494266
P 8.466219398926107 2.502531263970736 9.558460285727246 0.17252050790165127 0.6666819075151099 -0.3152604421067603
P 0.18052577686779905 4.2407620892942495 5.992303519589473 0.6178533160481812 0.6407523321335417 -1.8198797822832784
P 8.849461489294242 8.23354400246794 10.405529195809148 2.3894230983721623 -0.2270561770556864 -0.38873974224283375
P 5.856814867865417 4.263816830242877 2.9683587631388506 1.864740390241395 -0.9745650833211926 1.0398034836047125
P 9.129881851086571 8.030818396448076 4.6198587867010055 1.5119117600728735 -0.21298812899839448 1.547593015524567
P 4.15935032571064 3.4714065200238684 6.965204295102077 -1.1918204722363732 -0.9171513212884139 -0.8895852387446873
P 0.21495363246657956 8.87217240702034 1.3549023145237684 -0.6328258781976134 0.4055791823976757 0.1678344152798916
Ni 7.357649696810608 0.14007265160715204 11.203024372713802 0.009750137408228369 1.1361982548863787 0.7679034107614582
Ni 4.3616577683517495 7.323295252116098 0.6171032123180584 -0.23553773216413626 0.5619950714279804 0.1805804020916503
Ni 6.161516583184052 1.2176917589311982 13.179944713133917 -0.4039758424662978 0.7121585517906703 0.9053401875860989
Ni 8.163385480032574 7.251389736009491 2.964156685808351 -0.7129715346102689 0.8343165480793696 -0.31376714539068545
Ni 5.242068238499624 6.407656840438094 9.856502981552216 -0.8947462141203364 -1.0388516612144043 -1.2653344822651242
Ni 5.977877812274419 3.7706999889772876 7.852231968405742 -2.8366690643810046 0.0847787843092927 0.8304267261066601
Ni 0.17353129741917642 6.592438591249654 6.327352745182204 0.7500650970284566 0.7654153542322817 0.32797994655595775
Ni 8.339079146745883 0.13044281362042737 6.36108180331249 0.05243070699589035 -1.009114796271604 -1.0021139394737386
Ni 0.5184194426880092 6.760688949821145 11.807378248239633 -0.039887837333873244 -1.4505932636690502 -0.5497273098042209
Ni 4.3472264855249785 4.884835910289977 0.2014292995457274 -1.8260206050736938 -0.13323739403131246 4.138628139847698
Ni 7.8421802500324524 5.086279148614997 2.857814021583437 -1.550590150479678 0.3642222167174437 -0.7473736662392225
Ni 3.4565106112207036 0.3519950642037426 9.678431359091727 -0.4510838516976941 -1.3051701262048232 -2.044252756079847
Ni 8.406821614104006 7.40343394052439 8.329515285647807 -0.5844927383098644 1.2426182716145306 0.6137395509901237
Ni 0.9051833979572048 2.1873568791441986 5.224716316785245 -1.0412175903434198 0.044896603402374294 1.215053988843017
Ni 1.417322955948284 7.942455828257624 9.053309631673073 0.614832012723354 -0.1254279252892227 -0.21401245649785078
Ni 7.873152217618821 5.365937523806042 5.290868834052151 -1.4763965978853992 -0.6322028999016338 -0.5067495206911143
Ni 9.047113379651893 8.705343803936612 12.806256262092377 0.016843296809583897 1.1130737530537733 0.40296565603422857
Ni 7.9531793957927785 4.053963861745142 7.682986380992816 2.6744921044972068 1.4399959477691782 -0.8669384478794488
Ni 4.775416492849388 0.2194549289258765 1.928733980408379 1.2278094887364726 0.3564304885871668 -2.270308002674845
Ni 2.4003135491642404 2.8977978746079267 3.653295509506405 0.33929922822351893 3.4362001850812303 1.1612621398335419
Ni 6.71770175448525 7.219098230650166 6.646788679464221 0.07382691328347932 1.4984057551666388 -1.339172451292197
Ni 6.562739698838603 1.5956092356098681 9.110200294726559 2.0257485266280724 1.854175470241355 -1.1936107313675766
Ni 2.723702521253409 9.08914344547642 6.839725545413433 -0.16628378296332008 -0.713943668715551 1.7003792782220846
Ni 6.430228370371273 5.775886315297256 1.008980841083437 -0.7910045155552957 1.1775367086238495 2.565658593231556
P 1.6176696769690153 4.662140679804735 2.148681412869232 0.9061850520848973 -0.19099979765276137 0.6713638863718115
P 6.026198913819307 7.715950664765958 2.2518283796285137 0.6688506330316545 -0.262064060589439 -0.08764556433412647
P 4.217252014888755 2.9053991555817187 0.06562470215772295 -0.7057832443919457 -3.0006712503990003 -1.2508306322219942
P 7.798226632665659 1.464287349642105 3.9274146138068895 1.669180484021777 1.0916392373290813 1.589163896987818
P 2.3809665235072295 7.822396475957631 12.996909026741642 -0.4854420174625897 0.8071767544397841 0.2011875368190406
P 5.746967994526545 4.303449426029214 10.592265163477418 -1.7025999400224874 -0.7058027847759716 1.4036585467907245
P 7.8705503121510185 2.861780068917929 0.22008217399400729 -0.6940060492513596 -2.162453310382695 -1.1907100127810137
P 3.2540359032280914 6.443916251635815 4.688936589115281 0.22532376774561194 -0.2439442110602767 1.0514762919569505
Ni 7.679505403177679 4.609461386601279 9.981016238461914 0.5082181348168409 1.0030390223911694 -1.3342945543746052
Ni 5.607059820515037 3.673379431961976 5.161446339075883 -1.5582533234518905 1.5017075658463621 -0.5082934681394665
Ni 4.7363507407542516 1.2264824824045568 7.769690234447544 -2.0622335089279837 1.0231581617385477 -1.074655558286891
Ni 7.058737221157831 8.889651636252252 4.338368855911019 -1.3521722059859747 -1.2199241724511247 0.3540907847103966
Ni 5.798727328296744 6.3175008159787645 4.655941640027699 -0.5849077143600958 -0.3032022253906455 -1.6455695294710566
Ni 1.3607593895821808 2.237424974360326 9.449262030251422 1.318750178882103 -1.2265475913049135 1.9349926987997383
Ni 5.208847481187513 1.260037770419671 10.865119555870159 -1.2301265669054235 0.9984706862941967 2.6047074796039014
Ni 6.886807024853305 7.707745370022855 13.185289770366344 -1.9798054842390551 3.0328640330814607 0.40313226351907994
Ni 0.8341467324264543 5.65161745165114 3.9530656847116035 0.27852940523431385 0.6045229174878621 0.5658512119492771
Ni 5.032205977482361 6.0791569826086 12.214496538282662 1.3340269025355156 1.739298066774469 -2.2931373418645347
Ni 1.7974334672355297 8.979584640242912 11.185833211587257 -1.5276134870788465 0.9900788626860755 1.332946010766511
Ni 7.337522099513255 0.14114593761262023 1.4749923321382035 0.613722324598943 -1.0539715475749785 0.1407193042306544
Ni 3.320049961954032 7.235657500448818 10.824439693133034 -0.3680973834021338 0.15338430129283262 0.23399018517135828
Ni 4.036094346693061 7.647018754908269 3.0768507871305593 -0.8485578884897321 1.50159546574853 1.1648691404585099
Ni 0.7189036929977528 3.233843258294045 7.684020638416268 0.6624179900324334 -1.1319747037233345 -1.4247426211545333
Ni 4.559988012634935 8.284578519714964 5.534849509767917 0.30399258250242484 0.30343928110211615 0.16479717111546457
Ni 2.5799844142354766 4.485768659165892 5.765283550515964 -0.4544239718145206 0.2035084716427334 -0.3814380663750979
Ni 3.3577311286395175 1.5171989558337582 5.400121915393191 0.09382932454733518 0.8315677816896387 0.9651191074169443
Ni 5.877732329322636 8.872952978660681 9.515387599211696 -1.0645053572267666 -3.246707053880982 -2.1850880170630758
Ni 2.2883572738925446 9.021094324973877 1.5595607646054284 1.0216378684392793 2.46358219818408 0.13477311394954852
Ni 3.491543409840748 4.402684242067266 11.042742349637454 -0.6988584922476545 1.0917695922593584 0.3902183836708893
Ni 8.931142735944162 6.813814283961939 0.8801307653100856 0.6185305446208638 -0.5715827151164157 -0.5151467436158742
Ni 0.4389693299767314 5.635504222789826 8.69086884626806 1.2444725512144503 -0.8618299230082899 0.09592477362378318
Ni 5.175580261277762 1.1987443116138852 4.040026940957254 1.662078839979989 0.4590157049502611 0.7360027053981195
P 2.9861604427983783 1.9548022854398934 10.950203723171182 -0.24362308027543203 0.6686300323804162 1.5057372558310456
P 3.217042382987668 1.1166541941047412 3.0376809588167104 -0.8446459550298356 -1.4958619056988625 1.1446890659662092
P 7.71267969789215 5.908044528022527 12.993984670846226 1.9312064922844285 -2.5782958223795918 -2.485340158686461
P 1.2456436576710108 4.635415393642601 10.442741090258476 1.7167484636087273 0.5135341477131156 -0.07666386851164216
P 5.327996166573776 8.402602810238356 11.590966619459131 -0.3539905116871065 -0.16322751263549953 1.1617853593268637
P 0.917664180935078 0.9107700606973563 6.955262228459215 1.640218292461472 0.5922181319785801 0.3429172845920804
P 6.747084701232353 6.073497838216132 8.392893985835645 0.3676073311395927 -1.6906260554900625 -0.3941526857282889
P 6.367513156077724 0.22549320811508203 7.137374238410421 0.7836465325283278 -1.1139003627201267 -0.421229744450739
