# total energy = -381176.96098446834 ev
CRYSTAL
PRIMVEC
9.16156514322637 0.00000000000000 0.00000000000000

0.00000000000000 9.16156514322637 0.00000000000000

0.00000000000000 0.00000000000000 13.40887665231206

PRIMCOORD
 96 1
Ni 8.926424372546498 3.841618317201108 6.404494694408284 -0.2906040770106608 0.7400437082367125 1.4503652068186441
Ni 8.911738383687243 6.385913208067461 6.645063651651398 0.22889760113979932 -0.12119768925795903 -1.2162467235995378
Ni 8.109350188883031 0.2861165943065359 10.980985052390979 -1.3073139120207036 0.20185370964812976 0.2703334996870828
Ni 1.8843965181008013 7.205534306829413 10.020801724887924 -0.10692318161681585 -0.3550150962968789 0.006086572513712098
Ni 3.975908538473061 3.6814375129495858 1.1320863543031807 0.17184662176307824 -1.5208365733663292 0.1968256603059191
Ni 6.865209647968094 0.5413348941484936 9.112431628821872 0.8577400692096324 -0.21987225771273747 -1.6253328907092073
Ni 2.003982427383295 4.755594374953361 10.366804721799753 0.2605406819663771 -0.6671850724037736 -0.527497294761427
Ni 1.9132554481735704 7.173148174192194 0.9910110779163417 0.2071185575914949 0.6965015619797037 0.6088014902585579
Ni 8.142707447421111 1.3484083133461071 2.199203469682221 0.0926802985445565 0.9363970568919036 -0.46391237092093013
Ni 0.5257868020130979 0.8777823786584492 0.29915166913432506 -0.8783068376173907 -1.1266841447483562 -1.4846063873897013
Ni 3.714785609922563 1.551575181058402 2.898664229029754 -0.9438864232904132 0.2694796363272198 0.5551788198370955
Ni 6.5650492905159865 5.633977752282532 6.8805772572709705 -0.5239401735377879 1.760160769156091 -1.4478822924957904
Ni 1.9010797281523926 4.807833619167624 0.9653495340643333 0.5950723135979236 -0.44145275636583325 0.5366704766202629
Ni 5.057092320910428 9.186484559545109 10.229121972970358 -0.3663750013943884 -0.5287332240510572 1.0201402008478302
Ni 3.119677825561653 6.382386005503013 4.384085580796267 1.077802588556305 0.05560473384849779 -0.5438579955076376
Ni 4.818057925821977 1.9093892677003295 8.7871053681898 0.7693439998627266 1.2191070758664684 0.7643198071752578
Ni 7.447408787099628 2.846397500120183 8.735762125042557 0.615117919394889 -0.43358980867798874 1.2708998921680434
Ni 7.8443519182941905 7.02179911869945 4.684337553899398 -0.4055825248317854 1.8396356247539674 -0.34193152364004337
Ni 7.002770547981627 0.40497415916338375 -0.03480112119822887 -0.010733327257104096 0.034835619621946465 0.09159477878986161
Ni 6.610719692551782 7.099745714591234 9.126845519197582 -0.9021443063566205 -0.18334202399718746 0.9765612878156149
Ni 6.017480867471775 4.728466980684958 8.826500098130406 -2.7669644007960157 -0.4671339631820213 1.028565191686732
Ni 1.0879908253084998 2.0792630078302614 10.838877267617091 0.6140102881530072 -0.030417178839276644 -0.17652320130314114
Ni 4.596265596256368 0.6786750004430572 12.464637305936206 0.8540934735959805 0.381486146004214 -0.8525060745042027
Ni 2.2741386591248243 4.051299057701256 6.975338073595312 0.6771223861221436 0.36570522902087343 -0.6208085420217632
P 0.8720435742782643 2.1341591059242404 3.9749813880846907 0.9632612282725992 0.373162456629867 -0.17029727499808736
Ni 0.47429972229374695 8.736935721532184 6.336954720316391 -0.011449379487522216 0.2060237818654194 0.7820791880412079
P 4.267392893773132 6.14256371581575 6.517974420549984 1.3622943820216409 -1.0216689787875308 0.12290772997053026
Ni 5.335310729942128 2.0905500560365002 5.030943381794968 -0.07089354168676823 0.7327991108591574 -1.6886733026390661
P 6.1423621613834944 7.686406535927669 2.1818652077258034 0.6656874048123245 -0.23565034648260058 1.5153030451426097
P 2.717439309737866 2.13356360419258 12.853400075650773 0.43987152792164247 -0.21738085874945143 1.1413692575643568
P 6.687053852985532 2.1674980413321157 10.875417253871767 -0.39799828472662424 -0.5296637062851265 -0.6396940660723562
Ni 3.3799395669925185 5.8980048969705114 8.459901902868234 0.7790123761904262 -0.8095033456904317 0.5372857416067586
Ni 7.142356153882805 7.103666864455089 0.3663709884476313 1.5324366194991026 0.30432528325149527 -0.49508365431741186
Ni 6.351374107631163 7.858964614632624 11.61071897205666 -0.07486486762969043 -0.3005465329353534 0.20613871017672886
Ni 2.3387002084019053 7.057061982778843 6.477131247166678 -1.0994219665982936 0.21491028572177182 0.5217804468823078
Ni 5.519888782061518 6.437254618901683 4.11055789309703 0.2194943055480284 0.11852785573527974 -0.07722822565554441
Ni 1.006242179899192 7.412558193449846 4.446262374677175 -0.25124305871453506 1.4743196607517126 -1.0268122135513673
Ni 5.67891522911013 5.458451326484378 0.20250723502491727 -1.4014738804345799 -0.11346586783134008 0.14970119601429058
Ni 8.835898947769026 7.69101480317421 8.67893568518149 1.1812743212894108 0.6659529997688853 0.31372600774010484
Ni 7.824535452977555 4.740450307838984 12.977700526334997 0.6896151192725156 0.06690473224234929 0.7213800703889383
Ni 2.9231714156788513 2.6950759293227455 4.971622247756499 -0.35159501487173644 -1.2727991660732856 -0.36108032865435236
Ni 8.1330145115427 5.130109994777085 8.623315823444416 0.7321982440503647 0.5814359537614116 0.6286972007412205
Ni 6.12488189516799 5.4542278449721415 11.216779918059197 1.048282467610001 -0.7155840325324514 -0.19466773342265184
Ni 8.692181476006636 4.334922790143411 10.938009066651817 0.3057782136479379 -0.05042087565471317 -1.5864539542558225
Ni 3.5947324608198437 2.332378728481203 10.945210056822358 0.24236066862324068 -0.32652341661508927 -1.7533517166540578
Ni 1.1626117730680887 5.209742318647724 4.811654907971863 -1.2259600942325595 -1.9953020372127572 1.9410859561816698
Ni 4.098270401981601 8.212381150025369 3.026088773413918 -0.53407726197179 0.44725522198022327 -0.1606767211891878
Ni 1.357404970276729 3.691680142734143 12.403277723662436 -0.6366771336229036 -0.03821713449966967 1.1677958271870017
Ni 2.51675522616834 0.2771767390795492 4.713984378570979 -0.09260702210445985 -0.30699923053923256 0.3192597930741405
Ni 8.126225791801774 1.473830139598872 6.814525121351719 -0.9598930831313147 -0.5968872553194754 0.32707620379476576
Ni 6.94130560770918 5.319708584572627 2.480480925301634 -0.6025994752129041 1.4214837478976037 -0.9428027033079311
Ni 1.4093327212775086 2.355566649755546 1.6228631514337135 1.2880874596909235 1.415471994485885 1.492607660427623
Ni 7.919788245347898 2.5383215504195453 4.765300137022914 -0.7035954927120076 -0.6872484188125519 -0.8426155548633681
Ni 4.778736488402192 7.915418178794022 0.590012121850918 -0.10016503695737587 0.07958464170286295 -0.8728699828725355
Ni 3.2204367185585787 0.5141818474978037 7.061651010738668 -1.1636774341432539 -0.7395384864655198 -0.8438777094052435
Ni 7.304497533066255 8.264904402757809 7.136284784689401 -0.9097020640992204 -0.8848140426082891 0.025463948599059375
P 7.044629738934796 -0.034496957236826976 5.315976162949882 -0.5868964626553504 0.8511727004047599 -0.640053249183988
Ni 4.52138812467391 8.044541277348184 5.720789994723972 0.6506428517743762 1.0146740355269364 -1.3733946056998605
P 1.7052329509569684 8.339772712775163 8.1167417396077 0.44808440274973793 0.5532803172628019 1.112423006843652
Ni 2.835531883908658 0.26181920749828475 9.89348437081546 -0.9445155722339797 -0.26204760552920675 -0.5667318147820175
P 5.099143904730748 4.230380170759168 3.1216933698841958 -1.7846032184691716 0.8171942865767862 0.9623163478608265
P 3.6094642575046096 6.073641261549894 13.325781366212066 -0.9489160152945207 -0.15279911821332393 -0.8470221685714961
P 1.4722451888361454 5.966744119934316 2.8471872270320153 0.012884055051519747 0.09337989571474241 -0.45496184659586164
Ni 7.326338704270535 4.858607012965494 4.718730985450567 -0.24103706471581068 -1.4954219899479664 0.8889928565763271
Ni 4.095815102534141 5.8612670209096205 2.055325670530537 -0.26442330485023496 1.3539745493020359 0.6263245867439858
Ni 2.5349226097665305 2.1319053609090335 8.449214937176206 -1.3470893921464284 1.5508626874147742 1.3491179925406829
Ni 8.285499601108151 2.309658047027087 12.273211900059232 -0.048608247926006605 0.5081672269742474 0.7502193632181338
Ni 1.341097384394339 6.0567106892405365 12.321189184187826 -0.6981743216964363 0.7341363416133421 -0.5503960537364715
Ni 1.2615108683492133 1.9476296404380244 6.282112675456517 -1.279564252711261 -0.8853992256877977 0.33413465330344394
Ni 5.49426388446992 0.7739635229172999 6.885645435085656 1.9932929772025285 -0.5852717825677339 0.34997727676265533
Ni 5.918453510279217 0.5245976308627978 3.5602574913392626 1.0771148184606611 -0.9692714390224211 -1.2833646002939576
Ni 2.70211201132144 4.115979707324669 3.264243658252532 0.23563980495963935 0.07336437182476398 -1.0606420176166187
Ni 8.816998638962637 0.3362147807563529 4.14402692272936 0.6628995576545422 -0.9078207879161074 0.5258304485819653
Ni 8.580483674277366 8.260818344722107 1.9643870591669457 -0.5360714095836833 -0.6073763277762573 0.8300058365191576
Ni 5.1458404020580195 1.4766427400853293 1.192303489408672 0.2738895924694573 -1.1453513821405565 -0.0028276992567822265
Ni 4.472657759893892 4.343901123943828 5.249387159315625 0.7214762296471704 1.3107093108554975 0.32767347105913247
Ni 1.0918203595213307 5.585155771851488 8.260149550469627 0.6157666087224815 -0.2597852918575913 0.5732158798444644
Ni 4.4512380206843245 8.063551524935802 8.182512615478307 0.5520603288127718 -0.5367638076650175 0.36993520794182094
Ni 4.148649848480065 4.202226681199288 12.166356901643125 -0.8404445153539785 1.2071182789357082 0.11497459116638263
Ni 6.504711222751143 2.9579303936776093 2.4998438931456968 0.9448025073467792 -1.1413198923836603 -0.41607853926710275
Ni 2.869951883998624 0.23214306581837563 0.48879148597282834 -0.42709494498226447 1.3102465122864662 1.510047196060309
Ni 8.914294460350831 3.9799213039879406 3.1340028487558698 0.7771403559786939 -0.4196243476368322 -0.9781126914631347
Ni 8.581225761050666 6.866556398038157 10.749574911780801 -0.47846610036538884 -0.5330819879380561 1.2629135315284572
Ni 0.9858760206764092 8.9323793898631 11.462122050720696 0.8096370430548187 -1.0214501779085055 1.0414091375289354
Ni 8.936529578854516 5.814607169842759 1.4584029801228289 0.5430139023397874 0.3379152033917987 -0.44545699242921993
Ni 1.702456996730921 -0.18369945802606402 2.566472291509894 -0.2807472388212391 0.8690992029761935 -0.035422859583984154
Ni 0.1876453441156963 1.208428760145523 8.95633871491907 -0.1850474367240684 -2.5181867729028373 -1.0300579741821745
Ni 4.308610775169128 6.743177600803242 10.588359766829209 0.077887199395782 0.06890042251613941 -0.739240495609127
P 0.5431791172036201 3.213263213083348 8.668355909801162 0.2833749062520733 2.5159074899503575 -0.2117581132460353
Ni 6.332263082827419 3.3148924547650074 6.748513296318918 -0.1892463052967644 -0.04482409829322603 -0.0012642114244042744
P 4.173331104866109 4.373978542175226 9.919055215172953 0.03744708910286454 -0.049055876986386485 0.6519636274683288
Ni 3.0616393106375286 7.894392386883862 12.157184342662534 0.4659093467463008 -0.16411994254278187 -0.6434432487021435
P 8.577286288056605 3.159649734103714 0.960812727025592 -0.22134987069952847 0.34384956659836263 -0.13145561954054133
P 0.08568903455987847 7.9313776252025185 13.3580438177204 -0.14869255224411812 -0.6907322635960943 -1.369972210281873
P 4.139579899028623 2.591935029399179 6.818681723438708 -0.37276959206682253 0.590304459895635 0.31162798756049553
Ni 5.997783502501473 3.2013165321897312 13.3108974875466 1.2604205899032745 -1.3798467890831074 -0.844156674098243
