# total energy = -340895.6264175813 ev
CRYSTAL
PRIMVEC
9.03928744912277 0.00000000000000 0.00000000000000
0.00000000000000 9.03928744912277 0.00000000000000
0.00000000000000 0.00000000000000 13.22991088697576
PRIMCOORD
 96 1
Ni 6.398559156818687 1.972716046322366 11.520408429684187 0.2646536756934861 0.5274551286695819 -0.32732225836730083
Ni 4.509085909965627 0.15852741013931182 6.11945578551084 0.207718653069339 0.8828075537012214 -0.5259181231997653
Ni 2.722461677377068 1.4514655271131578 4.910863261092984 0.2865340207063452 0.5122871626798919 -0.6758954556935779
Ni 3.5004822000312914 4.474935481428865 4.923775883423519 -0.25745638661409853 -0.2541319502265559 -0.7262813643452976
Ni 4.933507580449109 4.609602788030422 2.549112547366997 0.9517709682448126 0.743121832941404 -0.121483595929494
Ni 7.293394393072851 6.022136103468664 2.6950916184658817 -0.933840866128953 0.09630709666386639 -0.6972091295696896
Ni 5.034340833579756 4.6334032322700445 11.343484261429994 0.1096709195652821 -0.022678672544438363 0.4775782984437969
Ni 5.407500704107711 7.985912294358829 12.134408367127158 0.21239986059509228 -0.7851724822545509 1.7826725771053622
Ni 1.9513652490211932 6.2274635212062375 0.5382082227388447 -0.4734262239486362 0.44026439248468696 -1.37043063797553
Ni 2.8251841416152272 1.4436465433428296 0.31955960687140733 0.3844567985967637 0.20525939289556908 0.8555114369894299
Ni 0.7770623581690733 8.916624463080545 4.822791674190023 -0.8720351456760659 0.3215948689652203 -0.4642057337916328
Ni 8.64524697088079 2.182382322105902 1.2701762868789754 -0.30360151771159327 0.6958065927952082 0.14781323496295834
Ni 6.8166262081223525 0.926608332153243 5.090353683095611 0.174427495116377 -1.2372783474588562 -3.0684200758091995
Ni 0.7165705416495216 7.207304218010881 2.352198898523552 -0.18800831912460525 0.615585860170243 0.8972851784921063
Ni 7.713341616196434 3.7380256387601354 3.690007135193966 0.3750208499948445 -0.17676591344156656 0.16244435461257184
Ni 7.638930200708179 3.8865592125335806 12.609402139922608 0.12557859193447404 -0.18246862025329863 0.28385415988133694
Ni 7.854020049049168 9.00755969629384 6.990816895807589 0.8750783033777638 -0.8486021114641062 0.2797177691154602
Ni 6.883417504167386 0.5765881339416606 0.4223751757718027 -0.492312776440494 -0.290432584429803 0.5303111100611383
Ni 1.8167612174328063 6.596844969519167 9.221988772711578 0.22458663246927124 -0.4584374638492879 -0.28842352441957425
Ni 9.102291430297349 4.78996369342852 1.4758761232654938 -0.03161428447117136 -0.7926358805111317 -0.5255296295120949
Ni 6.368756625615482 1.9928555790857083 6.888484024864806 -0.7621171430969843 1.4267144001689236 2.1275482709753937
Ni 3.4049821265821403 4.18954709345569 0.48338675132811026 -0.4875644631222313 0.30448931963318526 -0.392673272969285
Ni 5.8507240927903625 5.581506990325994 4.766022236302404 0.25914174473632146 1.1208536541095082 -0.5994935825940708
Ni 5.277108980538946 2.9089421804774926 9.350848337032863 0.18501555504486847 0.15984805464030533 -0.15752994803009
P 0.21117312502574814 5.587608509453128 12.38641195422293 0.9060688382220073 -0.2690985988387172 0.29892570950247876
P 3.88894558445886 6.101311223519882 12.583193629467477 0.5214323195142698 0.19898153030665733 -0.009435177270970848
P 2.4306101987729285 8.406022224659134 1.4456324748276173 -1.121974912198145 -0.40109826380818664 -0.06221118342142189
P 6.24217044212453 7.803409077800536 5.868827977987141 0.6762687798725966 -0.1743169376804417 -0.43364688716816935
P 4.8346991277399125 0.9525510875530597 12.691625307751115 -0.6739589007924973 0.4008167280120259 -0.2133254577331552
P 4.094815359452179 6.076254318304449 8.313372238588926 -0.8942253086198598 0.6819838279795029 0.2655108814874588
P 4.734118974661947 1.1096629452548763 3.6926402796706093 -0.5379585993040671 -0.21875871293358454 1.41166753313813
P 9.170266873017427 5.479751729860579 3.6479229239344098 1.139036495666122 0.17147355469437567 0.16087238213976163
Ni 1.3553236642447082 1.01074602109453 2.5621047154283754 0.1716116229341367 0.061076812706662556 0.24350455241969673
Ni 1.8917692259023808 6.425649901743164 4.7800331320758245 -0.05029180627601661 0.4538202767922507 -1.0875133880861658
Ni 6.115692730084727 5.4896045533399525 9.197394679021048 -0.201028385533357 1.0713617180269677 -0.03918052685420349
Ni 8.674850637756887 2.3348027895455217 10.290846565901697 -0.28115861532704484 -0.1390570860368831 0.4319515017436174
Ni 2.368410860826539 5.345536387638811 6.965733776658128 -0.01433235746227209 0.09898130106191984 0.6744062727425612
Ni 0.7067059670962743 9.407276993778122 9.10981211757702 -0.31487889039762545 -1.3586189900525827 1.1032217999603582
Ni 1.787302179158241 1.1301098137964738 11.448424062915391 -1.6463205487044676 0.18747687210116742 -0.4955353971428498
Ni 4.165457392013003 6.857447630904782 1.5290470207612437 -0.3179081641422525 -0.616295741753074 0.1992062447229537
Ni 5.735093525865466 7.883470048036138 8.01731297160896 -0.7403411848724734 -0.29949469463207123 0.4665199837471062
Ni 5.4075368612580945 3.062438323141007 4.637837906764522 -0.004471919728424556 -0.48722636305652217 0.028298332724060942
Ni 0.7040402811842862 7.334866644562175 6.728190337929284 -0.8034982771469322 -0.011142646880380809 1.2603694249503647
Ni 4.98859299905764 4.726200558728065 6.966421666444165 1.421678894627545 -0.40792762802519417 -0.05591300911753597
Ni 8.268760642517595 7.510933888352289 9.043094039761511 -0.5043596803026992 -0.9971239424583151 -0.10034295729613688
Ni 4.592925302416254 0.6145612772026676 10.430104926673138 -0.8752729358870732 -0.8611071859096524 0.3863781839891926
Ni 8.113556074498485 7.1517668350225625 4.741229278284767 -0.1184833756505895 0.08820632193360294 0.47973185445169
Ni 7.287618288299164 6.197190947048053 6.965032327940697 0.4155159818954134 -0.6622698944903432 0.0101946811448147
Ni 2.332326024744285 5.101041736748831 2.6254231171791194 0.3081060904501662 0.14602014761827756 -0.0010312694779917723
Ni 2.3117435668887514 5.1872313439743545 11.295314801760975 0.18675979142948482 0.35683749421759836 0.42865149083610693
Ni 1.2846093173831172 3.324496309829539 3.765034126167492 -0.9577498115360666 -0.44103340944022756 0.44843175878682767
Ni 3.7196578063655616 2.7030452876213866 2.592771402525734 -1.0152077965432194 -0.901625457738673 0.10251373969521055
Ni 0.8930065883735431 3.5351297893858202 8.239840345783739 1.0826899985555933 -1.796672748039196 -1.1449698304314218
Ni 3.888177245013221 2.7326941509354628 6.659606551154012 -0.27640130314771755 -1.1991010650581866 0.7116741559550841
Ni 4.066621821441019 6.8057429058570635 5.96311769082722 0.7011064077415667 0.405763787604656 0.23856726301907946
Ni 0.5332546931363711 7.571912922473253 11.20795731857808 0.8592426218970879 -0.7822450241951109 0.593079708647927
P 0.2578655651016203 5.530480211847957 8.0324347958279 -0.9843748703227627 2.0238171139333145 0.631089612232797
P 8.433167205309188 1.7195346400528664 8.13724171978564 -0.7771974344688743 0.5608146779666342 -0.6696389332609048
P 1.8862462211813744 3.2872544449350283 10.246804444948902 -0.5530214071744606 -0.2783219172091981 0.9657078900408788
P 3.9314754325968866 6.323740973388623 3.678510969229685 -0.11737111642301723 -0.6546820548407564 0.2732172489927811
P 6.942435012880069 3.9398910093485346 10.462504445202603 0.36623436205146603 -0.23682431218604377 -0.044664175676594045
P 6.3357451473157855 7.644489362579568 10.187573609048957 0.006239810262124738 -0.19521794949916704 -0.9271318295398936
P 2.4694881747222706 8.296113526782351 6.062050885705239 -0.033023506113872156 0.9605733970277909 -0.5815082017602436
P 6.846184678560471 3.8896687274665203 1.5268242599414474 0.6459994394650939 0.5754172583711574 0.4235193118158641
Ni 5.3033590717170185 2.8395294910296904 0.44360032697539487 0.11447296893961575 -0.25846374483269036 -0.013275376952667459
Ni 1.4912564711096712 1.0586904025024142 7.051767908137005 0.29665105453568913 0.48890760741368705 -0.5720033475936019
Ni 6.688467188589739 0.7228754447475607 9.292583800976905 0.9587348011571553 0.30945386272731223 -0.6485864834659797
Ni 2.753330844516571 1.6518394152482576 9.168791661281801 0.6128836307477316 -0.13273602891486172 -0.4776775430258225
Ni 6.4705661218064705 1.8609814123512396 2.6175110287465557 0.13095656841693576 0.19042721297874302 -0.3224556743036189
Ni 4.15871408346657 6.916871907559275 10.396791536167743 -0.48380473896948284 0.036105744583621695 -0.6809651569070014
Ni 8.134635693171784 7.053600171732664 0.4058793798383096 0.06830006992797914 0.3512353175394725 0.3320901120695894
Ni 7.580934131493816 3.8699088447822 7.984449737625836 -0.17177565931582675 -0.00370393121414846 0.5213130203275861
Ni 2.8864795508020413 8.2600196514125 12.496392062471722 0.9815955078054128 -0.784752878218629 -0.33262901529219485
Ni 0.16318897075244265 4.6956206487916266 10.24033502681662 -1.0012672752027272 1.2736435163514517 0.30313023450212956
Ni 8.754568115063849 2.4215709111771737 5.9942083205128185 -0.16873867226171585 0.37095773566906437 -0.6262798495489795
Ni 3.5614341162894667 2.766582440131948 11.50470447534408 0.7199852469239406 -0.03140628222542333 0.2546921936054001
Ni 1.0625230604430143 3.2885832202116045 12.526490178379305 -0.130865037144394 0.13354952595509256 0.12364100859212901
Ni 3.2130690116366676 8.423214949666262 8.237300305969331 0.2959792252796451 -0.36062370073290795 -0.4257098917092797
Ni 5.6573918096923554 8.046737660590663 3.731152164472323 -1.0286101859920542 -0.5884416956552834 0.21130585619996511
Ni 2.992203058521991 8.4335649339634 3.6170049446418897 0.7706961430152469 -0.5558686468152685 0.20803052788280302
Ni 3.252407991253393 4.021199401272351 8.734135709382405 0.5917625324984002 0.8738328610064371 0.6547170218437498
Ni 7.301909401988052 6.147520061709381 11.568723421883496 -0.4722183196834641 -0.15552525889523539 -1.3970346137163037
Ni 0.5660636913939232 8.884507874252828 0.29825219815069376 0.5122470534705759 0.013327056126209305 0.2132925476126907
Ni 4.467794444228219 0.081952893129393 1.7022262121645146 1.3716701668095859 1.926314197189134 -0.6436944454810011
Ni 5.957478079296228 5.751716775754059 0.40790598811727774 0.04588442123694033 -0.5333362700407073 -0.1961864840600234
Ni 7.614958010004237 8.82287801142497 11.459867801011617 0.42684271976214233 -0.48918734343763487 -0.1884855158713399
Ni 0.2997491041765508 4.9348634735884715 5.886728479213015 -1.48083689304494 -0.8442201803463267 -0.807574246988519
Ni 7.775414404116483 -0.29279698808665566 2.916546933131801 1.4926871075153068 0.45833899059821065 -0.5617672716878906
P 8.621871373158166 1.6103852423341254 3.801906284199336 -0.4142682255312414 -0.28467742711358074 -0.1797098265612389
P 1.735660729123693 2.9586401836789533 1.463082819531222 0.034275633353418385 1.1426170139285288 0.4696078786438106
P 4.698929028051673 1.1320803784923483 8.135508888353534 0.2807081580531875 0.10701702688220278 0.13661402381302923
P 8.621148230150506 1.381519519697206 12.400567478597884 0.3970575180799097 1.8175236233462764 -0.13799367776937524
P 6.377081809491173 7.761801236997276 1.5436662605898581 -0.5893657501314495 -0.6186621851027216 -0.3423688682877781
P 1.891868658065934 3.326277049485902 5.990795085516662 0.027016123577527664 -0.850784720937722 0.10320408089401582
P 7.014478135018236 4.155441861356907 5.828675462486798 0.041348995260432016 -0.7876163158093532 0.9515945905679482
P 2.365997371038472 8.481427961782924 10.27444116284416 0.3427378215914226 -0.271197647459591 0.0960795540340926
