# total energy = -340872.6100296337 ev
CRYSTAL
PRIMVEC
9.21031566514110 0.00000000000000 0.00000000000000
0.00000000000000 9.21031566514110 0.00000000000000
0.00000000000000 0.00000000000000 13.48022796891248
PRIMCOORD
 96 1
Ni 2.3287914462597215 3.7839844623376933 12.113413462244994 1.7195946748082709 -0.08057528775090639 -0.08720821968639174
Ni 2.3999135029583347 3.7466366327711462 2.680988386808925 -0.1462626026463868 -0.8909664353629302 0.25663543337469996
Ni 5.637827566486901 1.785723610320802 13.349429520144874 1.1378003092661757 1.3118945894128502 -1.174070347341804
Ni 3.359831010500794 8.045634309873973 2.0881682683169664 0.5164065841649041 0.22062661938025876 -0.3130996870100156
Ni 5.698901168917424 9.136900127514712 8.272397804972895 1.3445987645140907 0.15523395290706168 -0.5486273918718229
Ni 3.342174835586103 8.186810026667077 10.995727854441087 -0.924799581862291 0.4941547147452393 -0.6284192644894855
Ni 5.285054060184092 4.861020342449379 9.286744593306098 -0.0015480612134102373 -0.3624558688456403 0.11761177167891358
Ni 7.459904292294548 4.986078007025107 2.5326783595886337 -0.9092004418724535 0.4131492814354497 1.2791667601625258
Ni 2.854958353159278 6.0842423510148835 8.552664944149507 0.299042180475685 -0.1413556522630727 -0.0928960140997884
Ni 7.262812749780482 8.014494232990003 10.535579568392345 -0.16718109796660885 -0.46420213424720697 -0.5349339535451303
Ni 4.985534598407492 7.2407816749782175 9.468093864477343 0.19931525949699225 -0.1031914824885255 0.0411132251005421
Ni 1.3271604195786944 6.332331410744726 3.0904099389191435 0.2510124307609677 -1.0142150936126468 0.6152649864957146
Ni 6.957463158258969 1.786967002920428 1.8826621815138744 -1.4606233942115425 -0.368873599446526 -0.19807881598672983
Ni 1.1546419989594603 7.708803859793037 1.167528151449363 0.08648419703617363 0.6703637272420713 -1.3621840816960216
Ni 6.036403972033713 8.327783116518019 5.551265336795597 -3.2335329783928697 0.436939441876512 -0.27968743009815705
Ni 0.7291954188189496 8.71177959254477 6.7821853271001205 0.8230214347815246 0.24984849235985357 0.19351742186829254
Ni 5.612250520196814 6.1577959310194315 7.2406619408760315 -2.3979375636010767 0.018697319299187155 -0.4702473120000224
Ni 5.708415424883452 3.5418176355082913 4.9850418465254185 1.1308920121821169 0.19351227966196993 0.5894176864153075
Ni 1.417624138938158 8.70077326545919 3.5771401166847814 -0.7087001609284246 -0.5834272731598275 0.5137244093470507
Ni 7.293575203726787 3.5648250037591507 13.519185767129828 0.5033322674794493 -0.1885773042541978 0.460878983411245
Ni 7.23255686318958 5.292753883986221 10.631127381936947 0.476620819626534 0.613312490755034 0.23993097613582545
Ni 0.4924875460176844 1.573232420202477 4.748585415338744 0.37002262544930464 0.272093419800983 -0.11101509229800237
Ni 1.3136857279249685 7.901953387250511 9.134310186781269 0.6904332442984367 0.6070063460313482 -1.0096362159927128
Ni 5.285569837855048 0.5323516337932526 10.87121083538831 0.5516610364918242 -0.024094579055358504 0.4236607224897349
P 2.144225932897443 1.2009330449277626 7.891810987763783 -2.327706080978339 -0.07176514565844415 -0.8385385565805171
P 8.594145442304589 0.44223422229857356 1.1779827806333303 0.070859088904407 -1.9336930061517084 -0.5873417777228852
P 2.645184206129025 2.5145543006438613 0.402431843637209 1.1092986022820572 1.902340459982356 -0.6725270534419773
P 6.186172913237566 1.1624615568637755 4.861266257874638 -0.060651295133469736 1.562393056651877 0.16274131702770037
P 0.27306375138277733 4.337303379486864 2.53550961058956 0.8802107395083228 -0.8959258362507344 1.0743580816511302
P 1.813990068752302 7.144837817864846 5.340785679594 -0.9504352801525244 0.045120032267090035 -0.10499511135616757
P 4.11222168800788 7.735025628171818 7.4858405408911945 -0.46681514639002186 1.0451747752189549 -0.35984439936472223
P 3.888254444710783 6.058646884093692 1.4781874898870575 0.032921947539001364 0.24705627432669705 0.38074284008028625
Ni -0.22455854555558527 5.451650247902885 0.7991238186219218 1.939830486508014 1.126383325678486 -0.05643957104496731
Ni 3.696910139101655 5.665550616300786 11.026583332574477 -0.7280610819535397 -0.21236823602620844 -0.45162275492029963
Ni -0.02698069838033122 2.0337850391039867 2.41897332996327 1.9020093018951825 0.9890869310864514 0.03183719911525485
Ni 0.8408216802240498 0.20625764855219955 11.035116689934132 -0.3194225439042499 -0.35982871563543833 0.29252906194751555
Ni 7.686837257199643 2.9865369211463784 3.945810627631698 0.785726297875492 -0.5190663903852544 0.6302316351078759
Ni 3.6352747074224108 3.112082732446404 4.645259490309814 -1.1166725261486252 -1.7139282205511128 -1.172429212193955
Ni 6.177441534093525 7.87735263440902 -0.19305742430194672 0.5968193781960174 1.4107565912880866 0.2503002351852915
Ni 2.104428159393855 5.099604356528746 0.8083230817960445 0.45069047291401737 0.9229489018067975 -0.5774319748083411
Ni 3.792688210535076 7.15357840732444 4.410353155230674 -0.2760799152525568 -0.06622107591176336 -0.2336034912559009
Ni 1.036878904301539 2.4632160017526323 9.791053579335783 0.5537251181097045 -0.5941986527437186 0.9679905154274684
Ni 2.1660267498108876 2.4167407494732744 6.182329448557388 -0.40971403050165567 -1.0528235500134644 -0.12747195230244496
Ni 3.66254645177421 0.7912268940669631 9.09541962935963 1.0454665954277607 -0.775809295872096 0.7823797500007622
Ni 6.111864087357689 5.9940641514375566 4.850806102501339 2.606430118721963 0.6766086797105186 0.2074242617573718
Ni 4.488361764868106 0.2625989908517019 3.7367862002874417 1.6040552122773535 0.40710230391042146 -0.16863351414241926
Ni 8.063502322046377 7.285221447520411 1.8676318675632828 -0.24967288601393775 1.4487549249087308 0.5284414038422512
Ni 9.353628062787319 4.2024367288474185 11.497380585465349 -1.7374671842133176 0.21514374188881658 -0.41947470943284537
Ni 0.6637542847532948 6.2418032191763935 7.088079248270803 0.910980930811644 0.14679353544919235 -1.5277731525851623
Ni 1.5646115648450694 3.8798914781888536 7.893657656032117 -0.4357382224795593 1.2155702663578032 0.38222996614877397
Ni 7.977542446992225 0.32347641356095136 5.762217483185051 0.25831102130491 0.9082187946854746 0.9093079139845953
Ni 3.8654036518243213 4.008725372141224 7.205478535464389 0.7594419102576663 0.5785884570102875 -0.269058232519085
Ni 4.179503043120981 1.8519365688297804 1.9138418627547207 0.8985517039093558 0.40807006714032945 0.6305733347180108
Ni 8.31529392862844 3.579082572234864 8.981943015559976 -0.5770306256048644 0.39182300915384777 0.16997460155134597
Ni 2.8669133427467943 1.3900484541731168 11.34692823884748 0.2992563533690201 0.025507914463117363 0.7469304080542168
Ni 5.574736904950316 4.6793468681706765 12.253203947578958 -0.5576493928647751 -0.18479546861426238 -0.7439006200889575
P 7.630341181598853 5.673388594836207 12.861499238262708 -1.7817657490203764 -0.04854114213349705 -2.4377883770494275
P 1.9481567354097356 8.875750840331019 12.810556982940248 0.6535335430586099 -1.104571114899401 0.6296991596431736
P 7.264977173935387 6.24803860280563 8.617154652618558 -0.823594276565859 0.36862420243988125 1.5500039389589046
P 7.901704708730586 7.352309386006903 4.429104436664591 -0.26712630560369477 -0.2673263374296428 -1.1959553203403532
P -0.003013615248871569 2.023230017480494 11.914283676899094 0.4879028202982565 1.3606149374366892 -0.30915638609155144
P 5.4053684122501355 7.081084013608462 11.5636497268992 -0.97091720215596 -0.4919790472501591 -1.0306961219868054
P 1.8090809705626674 4.750616289918133 10.063529712586293 0.9626739883105614 -0.7316631974825012 0.29962453534171624
P 2.6016286238799005 1.213698542283924 3.771093704690014 -0.46691901895773785 2.1894231541033196 -0.11321801348659212
Ni 6.628572000184535 2.6610167385642636 10.247830889892207 -2.5944894014203186 2.1124692651550845 1.7036885451009758
Ni 8.043469885719068 0.08631907736071011 3.468031034520257 -0.23664459207506988 -0.16007456882881466 -1.0461682494804756
Ni 1.3232644560998656 6.295186208120341 12.133283797018576 1.134237788725898 -0.6980671066946106 1.2221422631483663
Ni 0.08569001280845483 5.663837497607967 9.18836552876057 0.05680852434861184 0.5920124437256772 0.7156483101114837
Ni 2.0270891396971114 0.9667147204204153 1.5262579688201579 -1.495612765802534 -1.9803384739243894 0.4887163173384874
Ni 4.4186028348713045 3.979712878149948 0.7937035479191074 -0.08817932535040941 -0.08030120815391331 0.3483022030530775
Ni 0.5721438811075091 3.335211837028197 0.2705806503097462 -0.07492657410556129 -1.709414391841159 0.17713460963489494
Ni 3.4619918306122957 3.1428175554460505 9.758929840750776 -0.13862385515420642 0.9793064546609198 -0.5731539162582774
Ni 8.88484142178162 5.217579288444383 4.708616329965874 -0.26938939060625866 0.5685958645739497 0.18072206987583714
Ni 7.509243952710824 4.846956190600275 7.055497757002823 1.5975168969382034 0.0690829708405907 -1.3778521272505817
Ni 3.7071980615741165 7.135913022094196 13.039100832035524 -0.49863409067283154 -1.182684571373376 1.1132907541605859
Ni 4.660345987185278 5.061924955602299 3.3549320436582666 -0.9527587860793785 0.6342191590007141 -4.062465379342191
Ni 6.808771823974792 2.7759891076096914 6.880348870261712 2.182419211981661 -1.3086567992018427 0.3944388495101401
Ni 9.192042286729242 1.9943925194847212 7.623985142835876 0.23669678546924397 -1.6555829478430004 -0.9096437000574593
Ni 3.12684686827752 9.180207031243912 5.564988706969248 -0.9385873796750029 -0.3670537726289678 1.9848970398293493
Ni 4.887905253547961 1.7194277589718485 6.741542967660341 -2.2250357611006066 -1.4835429791221935 -0.6762703225344934
Ni 7.648264455664575 0.6684174675176704 12.02642571597515 -1.3410362439738128 0.15669588216456884 2.2071658227987214
Ni 8.065040444743692 1.1807440332360557 9.884350391759284 1.7029267272342865 -1.9927484175529682 -2.3463414366913398
Ni 2.108176757823839 4.717993352230166 5.429782195685905 -0.9186284200545727 1.3557375547397297 0.16535895715620555
Ni 7.596603795728998 7.192114367597297 6.621015857305029 2.5060642786076905 0.3970428627918904 0.883188076969092
Ni 4.075371215481183 0.22863042606147196 13.230048173044327 -1.609468669983441 -0.26865636909497603 -0.06752462521453532
Ni 6.0649651605629025 5.915435687563423 0.9247221287205982 -0.7529334197151871 -0.7493228195457934 0.6899779019285731
Ni 5.822015456911514 7.733505926105608 3.0165514974697976 0.7304023284922067 -0.6512187788825043 -0.9187122380176307
Ni 8.529185086710788 7.75608961984104 12.872310306658568 0.8080596712653697 -0.35807213795564785 -0.24857168252995898
P 5.8556975808880525 3.5385479734870526 2.6541624217298807 0.35276460969980533 -1.5077974807941839 -0.7781266311513632
P 7.997234101644082 -0.029833133107029033 7.92224923860263 0.20427286061258368 0.3356258931369897 0.46846708017114796
P 8.98782195997732 3.393807864575021 5.933120414456327 0.16790692038903984 -0.2118182770600094 0.030360357459412228
P 4.221262613837313 5.249124619212674 5.2934833409780016 -1.348126060941059 -0.8083113822648594 3.9481153091336845
P 4.641916145764153 2.6937041484611015 11.512774706880275 1.0067545235695436 -0.024649166007247873 0.7844710853121523
P 9.384943135666791 7.273662501501664 10.749349150309397 -1.2527381336573522 0.7516100729180732 -0.17538574526458828
P 5.369512653803139 2.856643840905438 8.551789043140436 -0.17334711756800467 -0.7651587581367855 -0.9325242042000583
P 5.5033753800473315 0.04757312189325009 1.3771540123992163 -0.21338022223049055 0.008572315050043302 1.4564168123293626
