# total energy = -381161.3887109934 ev
CRYSTAL
PRIMVEC
9.29985366179618 0.00000000000000 0.00000000000000

0.00000000000000 9.29985366179618 0.00000000000000

0.00000000000000 0.00000000000000 13.61127587766149

PRIMCOORD
 96 1
Ni 0.8387686574418849 5.911414610987103 6.515772093745155 -0.8945410400880659 0.34475819445556105 -1.2113477436360234
Ni 4.517571183882197 5.472535929579994 5.27385200168294 -0.7116353322973487 0.19454020670585206 -0.44987363343967685
Ni 8.818920776335439 8.157747699232573 2.8091769554345016 0.36620942235080156 -0.8569453412224789 1.1315232180082127
Ni 3.7224151189205372 7.9527324311443435 4.9390554194996845 -0.08492765118233114 -2.8591996413833534 -0.8282526012734767
Ni 5.1166398400146305 2.6224470590911158 0.5166849748493122 -0.9041957895690105 -4.204423955296584 -1.9662552563584461
Ni 8.128378762211813 2.588139899917721 8.42516219364385 -1.433721427614376 -1.6734873389272469 -0.550195250579575
Ni 3.4478276475858554 7.975535671668378 12.551569453931608 0.18331039942830363 -0.8043721951114535 -0.7829587624326838
Ni 7.290973463277606 8.771333426514278 11.048231412927079 1.1417454099568531 -0.3528885368721793 0.61209275941532
Ni 2.750831535206244 0.488570588051511 10.908008223440376 0.6032939301767674 0.40348579020375674 0.5151673124411644
Ni 9.197768904079153 0.8110169649264807 11.329930482152758 -1.3289646575212595 -0.4044784931343292 -2.038232518027696
Ni 6.782662076424966 4.5438525695758845 8.633183174349277 2.3562442976273483 0.3989364802701774 -1.5306152500196477
Ni 4.723181642587694 4.431714937341461 1.1997322371220722 0.08864649479481507 4.320113827362437 2.1399278755866695
Ni 5.0316484798396095 4.135607605251226 9.64818963353454 -2.9593201982560386 1.7859563900629565 3.8021995483037547
Ni 4.391418672581819 6.429239747862617 2.901106936227378 -0.9384369701400677 -1.059371121323995 1.4684259209750967
Ni 7.008583414944693 9.208166140174534 4.418396617294777 0.8142179775572816 0.6750004546831343 0.16159254813523785
Ni 7.85908290745877 3.992399162824796 10.901896359789317 0.9394821235751305 2.0662380021016866 0.037392838826161415
Ni 8.569545207554043 8.76631150568109 9.160143557214496 1.076074550121605 0.5690044128662781 0.10121584681939343
Ni 0.8085980730584948 7.910855191307587 7.653347830717783 1.8167288953591225 1.667928871002863 -0.17225825537920011
Ni 5.4723034332451235 0.5983404776116202 1.0570064570868323 1.4667315639918095 -2.2669591408072702 0.09956057060415757
Ni 1.8521867016673188 8.08258628409585 9.799342940716144 -0.4866833460688586 -1.527757983076511 0.04299527261460337
Ni 6.62438787149897 4.5515156487731945 5.607940865022853 -2.133288515893281 0.270513734018689 -0.8962454243736823
Ni 5.436154903099561 2.429605299096671 8.476693611289743 0.6438448550159364 -2.424562879498089 -1.1851772558882427
Ni 8.505115823234911 4.14287079075256 6.57624718040082 1.7440702913521318 -1.2435929768229745 1.3364985040044597
Ni 5.079579924236377 8.64141447458901 3.1202756511971437 -0.2920806615561873 1.0560672537617424 -0.16973343207481736
P 7.306104324750935 5.924025212190443 7.109073910787476 0.4947571242159286 1.0836878436924884 -0.3935273934394642
Ni 2.0804423033891375 5.90884785145014 12.784199706690337 -0.23914087613436233 0.5445755903999525 0.7224087687637687
P 8.933513569866088 6.925535724129184 10.704001989445482 1.1059859929690565 0.4105095298197575 0.4392552344938822
Ni 7.010638682544941 7.991373321999712 7.4990232735285565 1.881909960042146 2.751960214077699 -1.3287635972540472
P 0.04970213648313601 0.9537092654894995 3.908287568780923 -2.123079179460447 0.07711149757202203 -1.7937681727978916
P 4.932735239132583 4.240035659021366 3.431102791240658 -0.08719844949437885 -0.02808184583788067 0.15804056911792136
P 3.209658402145186 1.7653725702269185 12.79468064146627 -0.6135325771856401 -3.152756116154119 1.1126346086338257
Ni 0.12753353952950486 4.548167701551069 13.23912993505686 -0.07390558904021466 -1.009722347948616 -1.059101669712692
Ni 6.189145432769226 7.919773750713194 12.847355941079721 0.7901367682383618 0.6459243632527844 -0.45617026508166597
Ni 1.502223918567833 2.5670757319785134 11.240068788754884 0.06079887645492755 0.7932033229788275 -0.29651324340624413
Ni 7.276130897259515 1.6153473352621046 12.823794762504011 -0.4312583323313347 -1.1911026202337422 0.3871837106096235
Ni 9.021769178582682 0.5245786904108131 1.4990917279444664 -0.6590123067849941 2.282191641486308 -2.2302021357928945
Ni 1.9111849716038904 0.5022088230549762 2.282516027848594 -1.8357769131295094 1.5614381489377753 1.11517460144686
Ni 1.081154456411754 7.815503794450766 0.25419847275193597 0.25345420743324093 0.29560204444588445 0.9457463593172872
Ni 2.7853990902746926 4.543768870895331 8.910581061379865 -0.3641581962487277 0.3762410955551907 -0.9339478240204626
Ni 1.2283525359445502 5.1214013649527645 10.482955634075308 -2.4717194825792332 1.1422902267167296 1.8545842756439994
Ni 4.599995784520255 5.641625864004134 12.751369364236036 -0.4436315091847069 -0.21186352847564802 -0.617709077160833
Ni 6.754464920931952 7.144258976121339 2.97414519483407 0.5383481214330019 -0.7799477435205019 -0.368631658639049
Ni 1.1229665972747467 1.8492479479945638 5.424338509376136 1.048342117203343 0.7383902317936897 0.8831952760579435
Ni 5.230832739849302 6.893060636074563 8.024867673986401 1.233429406026411 -0.693681061811773 -2.5041917441753254
Ni 5.247116783143587 6.98840273307799 0.903938310091242 0.03667292994100136 0.40048325593200707 1.2948445759090992
Ni 3.3425440073033945 2.4444385652613674 2.0239559238544995 0.021462026528517877 0.025984596989219764 -0.31588419173368826
Ni 6.060268064424173 9.252907734856885 9.148138376467157 -0.59222610239838 0.8777090561323916 -0.4145857567716602
Ni 5.167993630460681 0.10761418354319599 11.31821080690464 -1.231145495088241 2.134829378017839 0.5911575519245497
Ni 5.118453311426614 2.2043070507543963 5.543110657022405 1.0189330679136066 0.8429515980465483 0.7849989327911642
Ni 5.053261339129111 9.285531620565823 6.244962222859439 0.8761221712612459 0.35462326017509893 0.626506620847805
Ni 5.399532080430863 1.8463556935887828 3.20900834239289 0.07036775109028527 0.5241810859040005 0.09580521732678339
Ni 3.3156674309924403 9.22674724725733 0.8052305961442401 0.7018234884132494 0.5369715528004494 -0.4517865341916735
Ni 8.713962630921795 7.63938317086016 5.967468547338883 -1.7640001975068393 -0.10557412378808914 -1.4214194703185712
Ni 3.0147520746970975 4.424023958583966 11.306654809076267 2.786747239849898 -0.4468728989401401 -0.4929061870501189
Ni 9.12757361065525 0.8895244673146512 7.016789605580258 -1.60602724840206 -0.970572931442664 -0.24145306920730675
Ni 7.4620163669146535 2.6167462489601068 4.528104197837141 0.8475554153671468 -1.1005938754192077 -0.28934140824815335
P 7.674518016985692 8.043024707754396 0.8681654940228282 -0.04427876731271729 0.07101361220440028 0.36237102244131786
Ni 8.509551853304227 6.504652259040999 12.998033095767509 -1.0280327162220295 1.5612206336103307 -0.6887679407808719
P 0.5404116908154496 4.410753067789595 4.957335211332491 0.9051599532544927 -1.5801148994116723 -1.2637195723695203
Ni 0.8680669155768433 3.0731737537231925 1.1355520888739212 0.24514414490564881 -2.0458234430010767 -0.3722278606307396
P 6.134108900378835 5.468220797604809 11.264678060808187 0.8629450104493396 -1.159698394890848 -0.48256598146637536
P 9.25817145187834 2.404532894344307 12.78753463411771 -0.5289036881906504 0.11465731703627996 0.6656552660228084
P 7.316641058647237 4.761776034176088 1.0824462060482907 0.9554515024201932 -0.10474391457730993 -1.2168385915472657
Ni 4.586399398857067 2.666946857585204 11.691935645413162 2.067911533149368 0.2460553438660085 -1.7498020516295862
Ni 2.8909431264522074 6.492497350654005 7.1048675870970115 1.2134041119444199 0.3700233967802531 -0.031001333477520803
Ni 2.0854177249553523 3.959998473597335 6.5556256854832045 0.3791950359771921 -0.40336032036948594 0.12368985955219343
Ni 9.002853276777671 4.109130922636248 2.730367207811 2.364620951726818 -1.238649259664454 -0.17158565479220772
Ni 3.245202441820088 2.163183099042618 9.367851132860519 0.26024551932346146 0.36225429435779544 -0.33835640469427536
Ni 3.0817017192862184 1.7044213310774399 6.902550206478611 0.21071604513476613 0.11065642340700296 -0.08345466618123046
Ni 9.010953449084536 6.098025469207036 3.910247047891206 -0.07753495826268582 0.849383212604505 1.1441380785587456
Ni 1.057644427029715 8.519233000688208 4.598923511423835 0.24823358246424992 0.5715024966977835 2.293084120029096
Ni 7.101023957688942 2.025322072318195 10.471344767111908 -1.6135541529067243 -2.0822035242920074 -0.13062232500596857
Ni 0.37195135646613614 6.081192734562459 1.6647407166125336 -0.2684895044998086 0.09481739949221735 -0.5844665130576192
Ni 3.6989980880724462 9.052467994638896 8.219182530758582 -0.7837617179499534 -0.5709671930196037 0.9536579008548802
Ni 4.968595473822908 7.199416406605861 10.74178729378853 0.42427367348338546 -0.016483599477319998 0.03566814282557083
Ni 2.1107598254561655 7.6785076540920585 2.949781438910389 1.2161436223627702 -2.519326028713603 -1.9563899335285917
Ni 6.039557290913967 7.226274383210026 5.525851059107007 0.4173363229336039 -0.5789746367051125 -0.945022079556753
Ni 7.2087441595608395 6.847537853707048 9.458311736817016 -0.7509035337693519 -1.1734833644900824 1.1499994224355292
Ni 0.16846777423202924 5.859512129190759 8.684293308636384 -1.4633850161170796 0.034160962152425034 -0.582936449566338
Ni 6.414797075540502 3.7960234585403305 12.926641841197036 1.6485440387183479 2.227887885837421 -1.126587728379808
Ni 2.3349606910978546 5.69122198215857 4.4901282464995 -0.6870265326097329 0.5380534730107185 -0.0712961764418256
Ni 1.33660282945995 0.5585929042022715 12.932236632999343 1.4522413407954344 0.889928481016719 1.407904466551272
Ni 4.462246356036569 4.236994606961268 7.23267826225768 0.11203402048081995 -0.2693690788912845 -0.12883720808108778
Ni 7.088896948862131 2.262114939456435 1.764197998743156 1.4778973508006419 1.0094120157970485 -0.1991939034277795
Ni 0.922457108156295 1.2596000433510575 9.05865797705847 0.6689185101551125 0.6353172771608995 0.5618505754303162
Ni 3.2972723209775383 3.4207650742070053 4.471208624753132 0.023328390313295307 -0.7168302462347268 0.5152729847810932
Ni 7.058951420930895 4.638934270684256 3.118057636162485 -3.911880495171366 0.9829232254779007 1.8694977024207224
Ni 1.4568592337080286 2.698650057808056 3.2683395470809957 -0.6572341318386486 -0.1725667877585544 1.0338832614655356
P 2.4949088696349135 8.93475975022099 6.228206676998039 -0.6796073573275263 1.119909030808052 1.9892550596877288
Ni 2.5242220075353035 4.948442691516389 2.010617144130347 -0.6049677183347646 0.01789384956128531 0.18001193118268996
P 3.7274835390206995 6.655653978612267 9.16404949564031 -5.142083938061312 -0.5980321675571958 1.6283331109881116
Ni 3.529015367722405 0.7946743325558097 4.108059579525168 -1.1550441839482883 0.9139816653111807 0.670149040128104
P 6.718139693571887 1.2970970522388658 7.188073375420231 0.15184549605080302 -1.1162570358777615 -0.9970308685238765
P 0.3639265129717686 3.6343176077116555 9.123529104413853 2.1364782264751723 0.4960671012766037 0.9935434241959082
P 3.0941263234216625 7.008257920075875 1.0625510296808083 -0.7699237836255965 -0.9236834659799769 -0.5738450287880311
Ni 2.6329651932806275 3.6107703789160377 13.405242056423988 0.4207052394058367 1.2688520085000792 1.0475034233521314
