# total energy = -340873.52079233865 ev
CRYSTAL
PRIMVEC
9.19444085064673 0.00000000000000 0.00000000000000

0.00000000000000 9.19444085064673 0.00000000000000

0.00000000000000 0.00000000000000 13.45699357324603

PRIMCOORD
 96 1
Ni 1.2213343446726637 6.587697280903103 9.156071444953175 -0.7626922988741639 0.8316004346997872 -1.1746169638738932
Ni 3.219819600626417 7.061312119185723 7.7546731723247975 -1.4348599120941934 0.06933956693608703 -0.5934046960875135
Ni 7.913618389285747 5.641414631736731 3.313501757588262 -1.4329822354555064 0.3532975993851399 -1.2450132542092687
Ni 2.544800537370863 2.8528694696668278 10.054338885552843 -1.2399695211377741 0.5240011086827104 1.6941849764859145
Ni 2.7743305566461114 5.886538422550628 13.33355273463761 -0.20498299930573083 -0.6948588841699581 -0.4454528786641619
Ni 1.9138504287053688 1.9354757533863247 1.38892325539746 1.518652678341133 -1.0786572232471163 -0.5160036922995306
Ni 5.5151473767012 8.983281239087216 5.2664883234128865 -0.2298802767680428 0.17836308272535734 1.0182275572061497
Ni 8.052702694748682 6.056966576583876 8.49366439609595 -0.6330151113902839 1.0686319778006308 -0.10759526798317598
Ni 5.926929600834403 6.918770703994881 1.6365718396456217 0.8612887057928392 0.270036023051322 0.22983811067619772
Ni 1.7511731882376163 6.954877272881834 4.560803961315528 1.1381252967057625 1.2312218568521311 0.0908671565952177
Ni 5.461838009141599 1.3626069270378374 3.464354947231308 2.4871018785725747 0.5766331330561295 -2.050191233051469
Ni 3.425462462792344 7.971019282986091 10.26561334268777 -1.324702796921112 1.4429069507683858 -1.8031336731731913
Ni 1.6977718762703577 2.2287876082533216 5.8747309217193 -0.8324882366213792 0.9007263429631712 -0.8577097301923293
Ni 7.715919523941396 8.269351302511167 5.89666609905406 -2.051329203310654 0.48779920484085665 -0.473591545881907
Ni 9.055301293605043 4.348473982380697 9.989382000431238 1.8631254803457913 -0.12204512485991884 1.0594567390592657
Ni 8.368559318373205 3.277294049852886 12.368564915177473 0.49754445715307866 0.03785178074045094 -1.9311098188055646
Ni 4.522846551502436 7.922665718999208 3.408575952882036 -1.1856781067840612 -0.7703444161027829 -0.3920963174198925
Ni 0.7395989763057661 2.199190703428493 8.594604644598247 -0.9668548591611283 0.9695061807410463 -1.5440749750689793
Ni 2.2211194446547173 8.478322552234282 2.4319075158731374 1.0848111586636542 0.4628841867667319 0.9431300047403628
Ni 7.942240683389411 0.6386412583660123 9.09554168306026 3.3941037701318124 1.672423930659739 1.143400686172089
Ni 0.22907213612511615 0.03978066741693201 1.7004934307370085 0.14090750898206053 0.31619786631936514 -0.16085464152794876
Ni 1.2248374266044002 4.147492701682987 0.9920130392027966 -0.006013553183931579 -1.2010731011828928 0.2055427284639428
Ni 3.994442040696935 3.421058325665568 2.1621619321327383 -0.24159319432959683 -1.7625030441360225 -0.48003575884535393
Ni 6.709165037858931 1.3635907321997685 12.140522556418118 3.067107784755679 0.6009208019589006 0.09400955887894132
P 5.7854547407723835 4.373694333401047 4.670303314726628 -0.5939369144418998 0.24995467892041465 0.7527524140526326
P 6.657519864077924 7.862111132116225 3.6013070618806737 0.9604355858983459 -0.07213769850651447 0.5926130534241536
P 3.53160308699173 6.642183536880715 1.753459845656049 1.1213038542730496 0.29785355948422254 0.882578211299235
P 7.403106260210322 2.5421709273118687 10.244176504042512 0.9676786406140042 0.1738168581155716 0.07985435042448183
P 2.1582294698172433 3.79947392426 3.1313074777071317 -1.698356334254785 -0.5961223521289927 -0.5257486875014364
P 7.223253804392218 2.371733578837855 2.5923551044552045 1.1095446568545924 -1.317724822941382 0.19277051639993897
P 1.9612385764118514 4.547552013839906 8.796567891569737 -1.2088339760752342 0.12263339326322105 -0.6988690337706158
P 6.407072492060679 8.49359451834613 13.020165737802758 -0.9686985972380867 0.7443549340175567 1.191645637221406
Ni 0.11925281617536862 4.145497508036827 6.589983938321535 0.15282302947272391 -0.8804639931697095 1.1967153384348292
Ni 7.244235518219575 5.239323348170589 6.140304987684295 -1.2979257859375841 0.26946395259793593 0.004733400919927332
Ni 5.901111611164282 7.245550323249071 7.09594022199755 -0.0662573284663375 0.2431988482538199 0.19991381231293956
Ni 0.6204445406465905 0.05467014479292694 5.8514239338222955 -1.1617467927794445 -0.030322819353257452 0.8528500881071829
Ni 3.228195736163981 3.379738508864455 7.278242076835639 -1.386030035075684 0.9437704665378392 -0.24142812950664228
Ni 7.082155916401593 9.077680562428787 1.823422184330509 -1.0827416777291352 0.5585065986587479 0.29519041082976255
Ni 4.587455886763099 1.1807041109289798 12.328287747959193 -3.192302510988173 -1.363062370535917 -1.1012225101421422
Ni 4.885631600795157 6.575450285803173 9.244093504179649 1.848306670165404 -0.2761675898703566 -0.03942298188231275
Ni 6.121447189673818 4.102761747357794 2.5767723662454745 -0.7098728410802871 1.282190120369882 1.0030413363840145
Ni 2.033920630664809 5.5784511013731315 10.967719228439114 1.0805752662054358 -1.7676107976762332 0.9501460310468798
Ni 8.112843531797207 1.716730813129257 0.7026152577697637 0.5042357531303252 0.5808145181273288 -0.4728526108333534
Ni 1.4717357444860797 6.173515307730049 2.171084217451786 -0.20596310383081307 0.15434615098546964 1.0892704799865884
Ni 2.0450183206690244 4.975571620365358 5.765285815508717 1.550458252887504 -0.6301362471805922 0.2792547134361126
Ni 5.607735395211926 1.8307510730648584 0.7257797318349001 -0.11051501273313225 0.8763484283394392 2.0436698869931833
Ni 5.271182085423782 2.847656221752669 10.61519977226131 -1.1442131547710552 1.4121560427387743 0.9801369209820151
Ni 7.967084062338365 0.9710800559114989 4.401149852971542 -0.7137112409897708 0.16421687313196234 -0.2746848346772431
Ni 6.616255213921407 0.7431213665631106 7.456883624804899 -1.1002213225711373 -0.3988110104359067 -2.6609560176839846
Ni 4.903689482459017 5.122250533900771 0.7644276441494963 0.19661920072206784 -0.64280458667688 -0.9973630550523145
Ni 8.247303033554987 7.579869383931147 0.33267969189354824 -0.06119636900366235 1.7310736219821476 -1.531285279503479
Ni 6.193853410703805 2.248757933596449 5.500950240714863 -0.5180775441094239 0.8694241904157801 1.1442231820733844
Ni 0.17980556417019847 1.484175822842089 10.982171969878737 -0.6239686849172995 0.3585765883958921 -0.3357696178037056
Ni 0.3116198253196836 5.509069851355064 12.837393127597464 -0.01165661040232186 0.8245581831410251 -2.8115151908231963
Ni 5.939286929223521 7.456139794546952 11.225191153201363 -1.7696679373155781 -0.15556562521486755 -1.1558437970314481
Ni 8.083733932332962 3.5263254779922106 4.571354582094183 -0.5610278224187047 -0.38100920636779545 -0.3109448454505419
P 6.803500000115142 8.083899432266744 8.89940587264608 -1.0742045867924017 -0.8576274548911682 0.060948771769230525
P 5.983778828088805 4.897326929449144 8.026491183013787 -0.9327309208942258 1.0196637754320437 -0.15498815544484273
P 3.591449701935753 7.864768325497516 5.6835481565456085 1.2297925806047723 -1.904435394838172 -1.3843367065336611
P 0.22878894734953217 5.343873334117506 4.685751814101178 0.10537074952803144 0.11862247233161508 0.7893739219304082
P 4.294723281664342 1.7379148046534587 6.530948273053048 0.721579587994254 -0.5835290888450144 -1.152386177500151
P 3.8439290453622204 0.9227540752469137 2.0114972285253896 0.10703888125907372 0.6401437520152653 -1.0401156155284927
P 8.38030061923102 6.38907897148218 10.793194951044741 0.671072837493954 -0.4417780009157359 -0.41274638957007626
P 8.766136131523382 5.89217461474001 1.2458871792934225 -0.6131301995408989 -2.2201041281269442 2.549450358902809
Ni 7.86276393741059 8.594889672261985 11.099610722891029 0.7138469952366867 0.44747093753545514 0.6788974757446953
Ni 5.326256785610401 2.594873461780933 8.202979392955717 0.5131945049855097 0.12893799532501019 0.38695591086953357
Ni 7.679472760746111 3.6502665395140164 8.285995998629335 -0.2780151846020567 -1.9096979287886917 -0.6748143068142572
Ni 4.066269011958681 4.406141514863247 9.168680701019273 0.7860636266102526 1.2109793045530113 0.21980283792738273
Ni 3.4544617289674013 5.399628422920787 3.668591979404158 0.9847803332912977 1.4660075413415914 -0.07718914488749287
Ni 7.014420471280588 5.863037431953467 12.471739412785839 -0.08383107568404272 -0.41154799838660094 1.0383657227169214
Ni 2.7119462760507513 0.2998702494651795 6.632441107445366 0.47597830094652865 0.06228600252341531 0.8949045940750716
Ni 5.728366458058075 0.6978525374531247 10.097993170864369 0.6814793775392586 -2.2974403401152625 -0.7064463318972415
Ni 4.192839683539481 8.405594525777495 0.5215877524218021 0.5123977201158272 0.6453921448983981 0.13995645792270092
Ni 7.433705359078614 4.193768322056818 0.6867107141332343 -0.37500002405923805 0.2898944525381459 1.4027614888977518
Ni 0.25189733532599756 2.493449585694358 2.837555209127457 -0.08996058562054829 0.09808552872052785 0.5706609746330946
Ni 4.381040691572852 5.691561111672927 6.162630009307522 0.6016116573783381 -1.076265325976172 -0.8769595795608768
Ni 9.156210281008738 6.792154060210254 6.395906763194798 1.8218137660811977 -1.1576307137285418 0.7113316850140008
Ni 3.5649972958527982 3.262307111404774 13.321495145017455 -0.8003998407272668 -0.08004358361715247 -1.434598945123323
Ni 8.881829779678343 7.8064295988390695 3.737168715855225 -0.13378761010782764 0.2515384784677668 -0.21247673657961472
Ni 0.8802766783533981 7.698707530827981 11.39796572851802 0.36695684203978735 -0.0400143356094085 -0.3155332361521727
Ni 3.474744665296563 0.8494789795645673 4.082568916548137 -3.404656091726362 -0.6700405395746977 2.363148223836033
Ni 4.452683774019284 9.043394492813444 8.18932105119825 0.18156076372704863 0.593775706273687 0.5364581034991406
Ni 1.7703160139118297 8.024972261399292 0.13825680579401992 -0.37576826968383026 0.17821550140389952 -0.09875247288056542
Ni 2.037763906904877 1.1629036736065603 12.42813937467483 0.6638292685576632 0.6713376611195664 -0.016947940708248233
Ni 1.6323166524592498 0.16965030434446893 9.350658911542409 0.3177027329996657 0.4242685312770628 1.1881340245237215
Ni 4.575052586170153 5.202260557444001 11.465828976365668 -0.33262515863745296 0.6682605648561394 0.5350789637634269
Ni 3.691227773125266 3.196934637560558 4.570425943576846 0.9221166357134893 -0.2201723054516595 1.7709645446398148
Ni 6.690932461820523 4.9326887486340745 10.281923361162068 -0.41600654837858675 -0.38298304226471463 -0.4620434360329914
P 8.338088941675633 2.0194853586626405 6.725509075764062 0.5528388588500092 -0.048646300252793644 -0.5250161802107861
P 5.818830560751921 3.802572450798045 12.579664677937851 0.13591159842936593 -0.4377758217348783 0.62684497802383
P 0.8290949043869825 0.5520011235866261 3.880943105552749 1.7069476754682216 0.4942323620607101 -2.279285780693423
P 3.855137068655624 7.3370717866309745 12.055353532161245 -0.30604843659018904 -1.5122503743592148 2.3212323003285382
P 1.352594181043976 3.5612091862573245 12.224454008947923 0.8824334581912545 -0.49092052407865777 -0.2291415988298054
P 1.1692846154979648 8.240931286104349 7.7024597821044685 -0.4523981996337434 -1.2094777803068202 -0.4840024568025858
P 0.07894714619071441 0.16408031212860025 12.790105199295326 0.6191956890086885 0.5043807633486217 0.2935171368923978
P 3.6511859835905875 1.1454618194740034 10.023521878438403 0.5822638489793456 -1.6712923881584572 0.18176645197995145
