# total energy = -340894.44664367964 ev
CRYSTAL
PRIMVEC
9.03995940192989 0.00000000000000 0.00000000000000
0.00000000000000 9.03995940192989 0.00000000000000
0.00000000000000 0.00000000000000 13.23089435783077
PRIMCOORD
 96 1
Ni 6.2649086303101305 2.0426601231649215 11.327788360151402 -0.5658735805467803 0.0570401807434437 0.34115196516154145
Ni 4.79948605689792 0.31599809906804355 5.970678752806978 -0.548809425975642 -0.3029728829886589 -0.38107914037378243
Ni 2.7587062452302975 1.7532729517632275 4.862088677811137 0.8107030224254878 -2.295097808025015 -0.26748420316374577
Ni 3.6097279969407663 4.498735656880333 4.946012042312722 0.03282810227361443 -0.29055625449186084 -0.43966686811000405
Ni 4.762919422250917 4.720187535482961 2.304107492909387 1.1739186522552878 -0.3263118148249154 0.3127471887666033
Ni 7.405950350560808 6.3690760792687 2.743729744953489 0.278447644153785 -0.8944075998339951 -0.6638344107639857
Ni 5.065749012866479 4.493094722388435 11.663787368776058 -0.17262052381462528 -0.5125784686680657 -0.5599312469204164
Ni 5.462512818714922 7.967593970828704 12.386114454439145 -0.055889097858136005 -0.06099556584676592 0.6159707543134877
Ni 1.7532277519676192 6.5199981968043526 0.3667863974051984 0.4509869211085136 -0.2835975637858406 -0.2704664257205213
Ni 2.6611650863078844 1.522699754406873 0.2781848540581677 -0.3862218609169864 0.9927019021312192 0.6109573602592963
Ni 0.6764746050063426 0.05974689782669246 4.8819087881853145 0.1346586998588713 -0.27417935579573427 -0.5272139591930532
Ni 8.558554178528052 2.353896875763602 1.4497888681072595 0.5654020402270004 0.1514228066910876 0.6504587607880281
Ni 7.064348375272565 0.6677591804171769 4.890362957955865 -0.6229153039521208 -0.398543615707133 -1.8146329320620422
Ni 0.9115442780297969 7.495680984802131 2.5973438789050727 0.3178019775816914 -0.1394561212475147 -0.0021972647616349257
Ni 8.12757412740423 3.7574228490699957 3.8394071423399914 -1.3230264376599539 0.9396189062633108 -0.3867090849660501
Ni 7.685257967541882 3.6376614706266097 12.581905505079106 -0.908277415837552 1.3364486246031304 0.2615989480275624
Ni 7.94957733229929 -0.14623489873108553 6.87544758147511 0.7348017431114828 -1.1381240111541817 1.0928689959711244
Ni 6.814981102902337 1.1105951379290195 0.3788782467262938 -0.725586395160802 -2.075048401304465 0.3344462710065917
Ni 1.8042854410865985 6.35229791513895 9.268902414359063 0.7251837604057447 1.0238816701681335 -0.19831715724978105
Ni 0.24507057979971625 4.808281937123269 1.41546775930607 -1.2444434977487278 0.1725585602284383 -0.0015748006862876104
Ni 6.564095117399674 1.811110610223431 6.948177668592292 -0.3780889473972069 0.8983740406809109 0.7945814342732768
Ni 3.2737850360626655 4.16427524929818 0.34728810957574957 -0.32808896132999626 -0.06560632514589992 -0.0803120067871907
Ni 6.161663257181967 5.58672185704615 4.835150503624584 -0.2250455743835608 -0.3445244811782002 -0.5617785845418003
Ni 5.255190396219406 2.8523783016486517 9.185336128242781 0.5325292007583796 -0.10759732486570502 -0.09875555820435895
P 0.003613271660916446 5.424816189177715 12.344371539199095 0.5265351879584739 -0.7690691489347851 1.0313921196125657
P 3.8114637246991134 6.0259734707662655 12.524589452260221 0.23108175327531172 1.2485870876034562 0.9431300047403628
P 2.504339875465807 8.522774020324631 1.3767270144903148 -1.1890771051632811 0.136471584697894 0.21402711178587008
P 6.4147097929146994 7.550996494667398 5.892220043594418 0.5486572166684938 0.9258218524792183 -1.1752916213434146
P 4.653770955816329 1.159284357758131 12.620870440881077 0.24155617044407432 0.23934322195315555 -0.5100631584453796
P 3.8980122933296215 6.0967382707704045 8.190386475369069 0.2920513509801486 0.09931503025225477 -0.3974125874264833
P 4.977057973924144 1.1453085809560877 3.7406781327889957 -0.7385622385951797 -1.6666826573005877 1.1900991186698924
P 0.4108200382866695 5.711807771412177 3.696724947543707 0.05986453756611625 -1.0542011470872812 -0.8270359552575562
Ni 1.4789644321764157 0.9508138604541678 2.6374993773233637 -0.20251088361615446 1.328745856642234 -0.28662683753046764
Ni 2.1373084951684125 6.446548528941089 4.918505254697419 -0.12816846414883734 0.6604012167127207 -1.274713609487179
Ni 5.862476770092423 5.773306613316642 9.223070725608299 -0.9541970611878017 -1.5023423712168837 -0.49650855968939644
Ni 8.43957927652825 2.177915991542785 10.32631547277552 0.5675221718937968 1.470529597581661 -1.4356083602244438
Ni 2.2200331610904698 5.199757366885557 7.0137761319584175 2.1690474186604454 0.3889410596203624 0.6370887672390253
Ni 0.2681486914413314 -0.2129353331141376 9.13639559755009 1.4353846742494119 0.9524489681484435 0.44234312939058656
Ni 1.3844787794371145 1.12444435530336 11.304528545331443 0.11641980825334143 -0.9614041204592024 -0.5181744746986043
Ni 4.002333421593259 6.9977057966278915 1.5472206435243006 0.8598231769909063 0.02508316822087293 -0.6069281844952451
Ni 5.652198280964133 7.8375812787413865 7.921362715884763 -0.3731406022529961 0.4918782600062367 0.44076627182177
Ni 5.264980671948134 2.8063739496786653 5.105589920707336 -0.2668661099637727 -0.2741713853759343 -0.5901463370512159
Ni 0.9830503546819087 7.378170556180032 6.842833216956086 -0.7138896755491642 0.37451717088554853 1.0710945804085104
Ni 5.053942826253627 4.2438268895685445 7.111235027252823 -0.018876010968896524 0.7650991085434435 0.17167770028538176
Ni 7.933341565716838 7.08043950250907 9.136024959226102 0.18093778543106903 -0.15238259950119562 -0.1449019748534343
Ni 4.548120953561812 0.424695471542463 10.47525603127171 -0.40153792244876657 -0.7477187082834671 -0.2455951164001383
Ni 8.443104860585686 7.070396107924937 5.039859473938036 -1.4980028633012652 1.000575134231709 -0.5301599291952547
Ni 7.134200139405418 5.919898590433032 7.1580593035151425 0.10927496967844405 1.4337970180473179 -1.7139369623018612
Ni 2.3767318125048447 5.348356214926949 2.485820615209231 -0.1714432156770725 -0.25250495614609414 0.7930891659984665
Ni 2.211101681478297 5.102532606532401 11.329151585986946 -0.4153912833920911 0.13526213777082513 0.6509740098615499
Ni 1.4842708881808138 3.3612014407688497 3.8134479957263117 -0.6900820316066051 0.6715754881619852 -0.48211295308935675
Ni 3.744007549733493 2.6145821769541135 2.8044864062140684 -1.1913715576244126 0.6424029803630872 -0.787403685577915
Ni 1.0169682813062733 3.422320604390206 8.10183193980947 -0.5120778748825632 -0.6806915915306406 0.3423814666932684
Ni 3.5385835186535197 2.2355547709023127 7.042857680452708 1.185849599364919 0.9547503625881105 0.1817137443651451
Ni 4.309230993813555 6.8898771642250605 5.9469027563211725 -0.42176993322492523 -0.2201031427766209 0.41214552276128374
Ni 0.6878586255282142 7.220558868894371 11.496164830759104 -0.3936094116303092 0.9881070836716854 -0.9165905636889375
P 0.2413931244290362 5.664347986023607 7.979697572096657 -1.2007663685757515 -0.4453335794774782 0.04014211943652441
P 8.628921220330838 1.6461403962127625 8.06838409105943 -1.1637707651880087 -0.32785627649389987 0.6294165954057483
P 1.6027214725515624 3.2289739586967334 10.252580142204014 0.29998834643903816 -0.3505372630311834 -0.050165822221113605
P 4.211201677098574 6.277944251363524 3.697333336792593 -1.1591600058888747 -0.6239910535148028 0.5176962495106051
P 6.765722365648561 4.058417327983865 10.366908505215298 0.6046057070096554 -0.6850095021797041 -0.4413074890372206
P 6.106094628461293 7.7912424482839 10.195938470335602 -0.23233388051485793 0.2849391654153996 -0.042355582148075444
P 2.5678727081726387 8.49585302206041 5.868390711349796 0.8317246189824773 0.33442390240908854 -0.32293852747730833
P 6.928052911595714 4.21981675814149 1.763095771344793 0.574186985508482 0.8014277677711488 -0.5671218511315845
Ni 5.4301588050186 2.993220864763684 0.42843982261064306 -0.8273128630680268 0.9766739021340792 -0.5101230651490376
Ni 1.3923345039138129 0.861751279191934 7.1143438691947525 0.5267804712000606 0.6222763848165412 0.1323789026857591
Ni 6.752677704636047 0.7633205882919523 9.160171594035894 0.5786005411951455 -0.7029889694762602 0.402480488867694
Ni 2.727364706955598 1.611752391714073 9.1617327949762 -0.4941685987023102 -0.551564877233592 0.3037619545488575
Ni 6.169708820800221 2.3677008933423345 2.5486935309001835 1.5225723251105134 -0.1801749391231155 0.6451160084188761
Ni 4.017375913571655 6.863390083998678 10.432335209358113 -0.40972637179682986 0.42070472518520446 0.14041745671951947
Ni 8.064719291631521 7.071028905063451 0.2231857427621565 0.4387780377471476 0.4624877226592615 0.25842517828527106
Ni 7.550219058182938 4.018777107235508 8.112536155405396 0.6067479501636389 -2.4494519294302846 1.6415802058060054
Ni 3.027220151020143 8.462830051389089 12.442120617181306 0.339297428451306 -1.0093593081822423 -0.6055762984530408
Ni 9.025685026179282 4.935175843313622 10.12630456921758 -0.37945805983059167 -1.158285059483089 0.003002020051117411
Ni 8.809955441700648 2.2726638030966133 5.890525955255025 0.25722498732958277 1.4057095157824822 0.06364894430921296
Ni 3.4609483497169413 2.602649430913559 11.255706438103243 0.639757315210124 0.42972338374404695 1.0101033854371184
Ni 1.015648447274515 3.1635698544517235 12.43792698014478 0.06998748493273108 1.1393671395326634 0.8957078067026574
Ni 3.1744449252750475 8.303202453219303 8.09361552096382 -0.11791850428605498 -0.17652397263408953 0.4358603498797203
Ni 5.530466191432232 7.999514066487187 3.508198408053889 1.548106979046508 0.08861846977035706 0.34507983946103793
Ni 3.212069235139281 8.531027503002683 3.677989632264124 -0.2071758931919916 -0.04694988638697721 0.037885976412496046
Ni 3.4888456635662983 4.280872642048995 9.376562903522231 -0.6423235332754035 0.4514849437908547 -0.5520544152755008
Ni 7.082021495355356 6.111147965610286 11.219546601616713 0.5244955318206257 -0.45777309079241163 1.9281527930597697
Ni 0.6645084111170378 -0.11386190112060797 0.12678000270542059 -0.6060079866738208 0.38105085823900825 0.5485183770977844
Ni 4.51715909357022 0.5175376597134514 1.5256413571050522 0.7407065386316921 -0.6707902732565286 0.44549633030758756
Ni 5.961907280471258 5.798745058284916 0.3669138608288134 -0.09166059903079053 -0.34770673556092374 0.35863829487176296
Ni 7.65584194056009 8.694786362491053 11.369769930312264 1.0654810908764747 0.7276484198961533 0.3108098625345744
Ni 0.24337920344805883 5.031831086242114 5.821897297591328 -0.9768731626290789 -1.949155877673998 -0.1294463024199964
Ni 8.121788553566386 8.876507620754104 2.3910474917698616 -1.1131660556572633 0.878467531564971 0.04352234876266698
P 8.701647691464371 1.65997153366886 3.7781342994135674 -0.09448521296377922 -0.7423690139357796 -1.4743865094339061
P 1.6769937766948937 3.138601487357775 1.5438207148986547 1.0076433539324001 -0.2330422194357922 0.1308056446613683
P 4.774653289190796 0.936105846963272 8.259398427299521 0.020636188193112845 -0.23012813111279076 -0.5027771663069276
P 8.442915021444131 1.5887095359130323 12.383269579303565 0.751783365271144 -1.1022787193207984 0.4891112387840609
P 6.315559521268637 7.905471371744846 1.3142590889680108 0.1502812368874767 0.12948281208488668 0.44201454240657423
P 1.937715237721892 3.242443497787966 6.069553305699831 -0.8912613408955297 0.9135052398953943 -0.2822104536303269
P 6.992146221768087 3.781451060415294 5.946625229576138 0.3431998488295057 0.8222434189649194 -0.11677487759991502
P 2.169355150254599 8.341983877851106 10.337799836843642 0.6491765516414949 0.45620446075371107 -0.9460736607497191
