# total energy = -340856.0417537937 ev
CRYSTAL
PRIMVEC
9.35160514428322 0.00000000000000 0.00000000000000
0.00000000000000 9.35160514428322 0.00000000000000
0.00000000000000 0.00000000000000 13.68701940339467
PRIMCOORD
 96 1
Ni 6.4944748204843155 8.624218771820239 6.074203389817976 0.7657562825114683 -1.4727098930624314 -0.5130898610868454
Ni 7.879615899973622 0.8543028134273646 12.33539867449778 1.408140236711162 -1.3661273826144857 1.3610983048310108
Ni 8.191155280211722 7.8129015474906245 13.556705239424339 2.6076997294630058 0.0395196553611771 1.7944574855554318
Ni 7.011730814952999 7.124483120516149 4.273347916943652 1.4776713508327648 0.8311299228212718 -0.4921022030915848
Ni 9.352727530879745 0.12446238576769258 5.469333140095862 -1.257688278573776 3.3264040527919936 0.6185066333614638
Ni 8.722924966165353 1.0944557791554814 3.165041475121704 0.34974099238213313 -1.332542090459873 0.23681248511150182
Ni 3.3805772749574405 4.635020318239517 12.682447035365707 2.22122075822989 1.277906919613496 0.6351038755985126
Ni 2.767242887243687 9.110118833589807 4.9025127021739765 0.29122602686537585 1.143187027499386 0.9068316845299608
Ni 5.8663181383094525 0.8472142965809794 0.6005572893401172 0.9665347568175483 -1.2141001095701802 -1.9962422896388394
Ni 0.4146819761556742 2.5938360694567186 10.127942882801088 -1.5814097069636959 -0.48772592840076 0.9894348013441733
Ni 8.384948597636052 3.1026849707263255 12.381592799387079 0.2411255106645589 0.9808326614974592 0.7183410264522982
Ni 5.086628043233763 1.0052975738607093 8.851614277545929 1.2108872590598372 0.5509349569590769 2.04995803399474
Ni 3.751789248858844 2.0508444570972 12.674056775056238 0.36541160903985453 1.1389675901013996 -0.1352549386819735
Ni 2.2637618074382293 6.792875195222188 5.576324856770657 0.3084421336333462 0.5974919787830097 1.1135200965625727
Ni 1.737668545924909 4.580827765304422 9.584924150786089 0.45477055652066195 0.3983135019741979 -0.23708630759817878
Ni 7.427278749762994 1.4395300161365063 10.211912817454206 1.0336477484159619 -1.4905371510518393 -3.0516564831976156
Ni 8.976634018991781 4.9464194243975435 8.230936074160057 1.0918726934961258 -3.001875040899114 0.40545422678403725
Ni 6.158097576467852 3.338130338327173 8.775939216827831 0.2995044648240842 0.2778226089752764 -0.2175592933088447
Ni 9.055664435705241 7.521795424916578 5.9786542974350505 -0.5279364391813746 -3.2110944468836955 0.4550623767294679
Ni 5.369504753110159 6.020245562176869 11.638811620260352 -1.6693316648876606 -0.27991265873508564 0.8792311492038729
Ni 6.722616584315997 4.23865252597825 1.3769415919287393 -0.9790028073775721 -1.212270512560609 0.8665080452102495
Ni 3.039701908773285 6.544618128307953 8.309294110449697 -0.10826684012890386 -0.12652012991213696 -0.30691129881111656
Ni 5.035970397116522 5.647434463762627 0.6695366006360369 -0.10070085485618786 1.4540136022045087 -2.101368527256233
Ni 4.553895141930293 4.4784370384560415 6.928040493299496 -0.9472324569445105 -1.692550269095969 4.970786503933485
P 8.069780794526716 2.6290635667658657 1.450509735964133 -0.11044867827157108 -1.3763778566979006 -0.9580989673453693
P 9.283376025691364 8.57854553134828 10.646338837960503 0.7122428839743604 -0.6016440532781703 0.3605249703715146
P 3.2413692778924124 5.834223428788616 10.631501580930854 0.728169582506946 -0.6472055439580531 -0.009217661943526061
P 4.221931855633479 2.8012453242535247 3.765299513090998 0.36845245274870736 -0.6499617665469516 -0.6098494719070982
P 1.07391030222737 6.373193850852691 7.257213260563378 -0.2473576076171998 -0.9955375718078014 1.1102571095405847
P 3.9644073478290496 2.6524145252954483 8.340650978309347 -0.7068991031639439 1.7808977445931267 -1.459404434202777
P 5.038691714269949 8.074998990305453 13.291190720018918 -0.6773879810787043 0.23420538650595793 1.0762743248372368
P 7.497593470301215 3.498809621248798 10.507511451232741 0.3387132738130618 1.150913449609366 -0.015600168431102165
Ni 6.371295474969029 1.602687474472765 6.959658270948082 0.7616376323574043 -0.5940541567460542 1.122508158993796
Ni 0.7845613462963784 2.7621649655450233 7.964326481769528 -1.076188964212282 -0.70090097659898 0.39313170066294223
Ni 7.3422165476063705 5.533054978870624 12.826612318420535 0.6108707140827608 -0.2555527418334824 -0.25801328755883307
Ni 8.498290054335511 4.936534777555025 5.43054361631338 -0.025053600534518144 0.2550914859263477 -0.2569002570003124
Ni 6.1225895309985585 2.7962328637922287 5.081881168364073 -0.47656579801888255 1.8454488890016345 -0.9303665344271074
Ni 3.712961383494475 2.1198125464667137 5.830191016566767 0.6253401113435295 0.41072447404404094 0.6955222287855699
Ni 8.897575547462308 7.961461149893891 2.119174766982646 -1.6635114586614577 -1.257722217135505 1.0065953722838599
Ni 3.8434723875949404 0.03270162870728851 11.261570666397386 1.7033008227442539 0.6196831701680683 1.6744620441356906
Ni 1.3790905908354667 1.7971260526654336 6.052222441470445 2.1437688465993143 -0.05245873202034836 -1.0016369998373202
Ni 8.54991091580259 2.362411892151314 5.854951262020823 -0.6842556547328151 0.7368642820674665 0.4607787103879548
Ni 4.020283189725028 4.952348342181987 2.5239000889346968 0.3683555221595269 -1.7241491269481726 -0.34920748847616634
Ni 1.2256962084723297 4.933121441606567 4.22033740692331 1.5773908156122898 -2.519694210686299 0.476452926590102
Ni 1.6683170407365273 5.37938004834734 1.7761101899888088 1.710155897992874 0.33266655339834966 0.4363239197797002
Ni 6.136691751848622 1.91578857280235 2.6231580279947675 2.5274142050383763 -0.13106841140445166 1.6567265745291402
Ni 0.6749006814580508 3.2345893640221894 2.0309077696766082 1.1107456191412288 -0.6795034847598105 -0.7427392527910047
Ni 7.0878996404329575 6.739215683791372 10.282346303380221 1.1429180901087155 0.9301893854192947 -0.4910367379415479
Ni 5.848363056060033 2.0071911633782995 11.710888183244297 0.01927967416521841 0.7627516913571896 0.8705973847882748
Ni 5.806542676987427 5.251291110029478 5.46109344063234 5.056439720427931 1.9880880359628212 -0.1857876573242026
Ni 2.3718102555162446 1.3292278311719754 2.6734444153800805 0.09004620335581912 0.08434169677187409 0.5753876906848026
Ni 5.491281357824709 5.696867049580559 9.203412318765148 -0.1680187633765558 -3.573466754876594 -1.9125104585368222
Ni 0.9703319215010332 8.96368204559832 8.400559232427174 -0.2199015682887761 -0.06391145394198025 -0.41694268703961096
Ni 2.858383632870166 0.515961732289872 9.288791540342737 -0.05579422415148456 0.009653463929364019 -1.5005701098078092
Ni 4.703689156238208 7.541134544756056 9.799838068866832 -1.7572646785552188 2.054591161891378 0.3615549542979257
Ni 1.686833219306241 3.568254642490562 11.857448412426248 -1.3445193174264072 0.44796870310748016 -1.3063320077234084
P 6.128387526308266 8.921300570205421 10.361498290963077 -0.2933608138201916 1.8485002742334486 0.27607631570813096
P 9.10851035747163 6.142723537291787 3.6500821243606887 -1.8197789950393564 2.4935828583112283 -1.0269705935061024
P 7.21784019660779 0.900495067995597 4.83350253058044 3.029097109839861 0.31198948466497234 0.2772453963155677
P 0.639072811086189 5.291933186829465 12.849264712031353 0.47583689027265796 0.4697783427834039 -1.1594070889026742
P 7.334679153703751 3.9505389171124405 6.96023245951585 -0.891124043986717 -0.6085994015500809 0.1458039178424134
P 5.406976635700484 6.645924068937098 7.202082741612858 -0.7431591139372427 -0.5045689681000278 0.2611546614012921
P 6.684144079954482 8.593713835206902 2.4138569434380357 0.009506911049170725 0.11497973337270521 -0.2695742529235551
P 2.3234811591282245 1.6972041496263481 10.85851460599821 -0.19132401376139954 0.6990829495536347 2.131319822202684
Ni 4.304974111037042 2.205809909157161 1.5712146467069212 -1.9406933487289415 1.3871392089794627 -1.1229514171788015
Ni 1.6114686318853715 2.1294727547811148 13.590252253254205 -4.755966978153307 -4.945159547394 -1.2863375668793524
Ni 2.109927899624195 4.302365013147674 6.98929070278336 0.28360759108816963 0.9568933770730423 -0.5054295163281102
Ni 3.157831387405922 9.346938887175375 0.002528674083459868 0.3719661223289207 0.42488482470482314 0.6253506528664907
Ni 4.680974106871625 8.600559210314493 7.570906315510874 -1.2733097871611168 -1.2049377263446217 -1.1274809296180388
Ni 8.098125510306918 3.2323917367677026 3.570382132705012 0.008505723478165996 1.9892905409113548 0.5279045575021747
Ni 3.1734953263474726 7.169557858246461 12.83786323480297 0.10170538486130226 -1.3148976379052324 -0.7333374998611305
Ni 7.520907022409444 6.250192185838832 7.210089586103458 -2.1887227856021854 1.1060448712314501 -0.2843318708487038
Ni 6.8170771498375515 8.819470939677334 8.391579820981397 2.745743800854342 -0.36820665528648844 -0.07854205937096151
Ni 4.547620214748334 8.615736865778455 1.810299659105411 0.12442750904916637 -0.13806129778251708 0.8055235351070771
Ni 0.8407747811450679 8.191940815060134 3.959244326521808 1.4308240514619228 -1.329535442423065 -1.5102945361844249
Ni 4.248499766399417 3.3743210509861585 10.324721232649383 -0.9834513300672288 0.48661958271045874 0.9154955308525458
Ni 6.787909492787583 8.135550634870553 12.133953873585702 -1.7956839017633657 -0.43414053897513616 -0.9287377405744327
Ni 4.633982290046973 7.799781245201074 4.182862718851384 -0.3764688952952807 -1.7207665836291848 -0.08288773793416693
Ni 3.8646257188700375 4.728349339515145 4.92509589390529 -3.3151307938710195 -1.839215763607729 -1.6578398621979769
Ni 5.310206223660384 0.587583807254378 4.518386161300465 -3.286341380443153 0.33283136111098804 -0.9684854527860159
Ni 2.409431763791981 7.801053063527075 10.572578986015676 -2.4759363488740584 -0.49366209137953687 -0.5374600624010938
Ni 1.0966908128313206 9.29513099360153 12.646956757946555 -1.0493430476640315 -0.5475824955470763 -2.345555707565251
Ni 9.24213544614973 6.287420926690362 10.954775355547374 0.9955157174309307 -0.2547762686787741 1.2022509235410779
Ni 8.980337254705724 5.017370054098764 0.9093398163245036 -1.5354175565042976 -0.12173684959088067 0.48093615917243626
Ni 0.5886246409285241 0.32710606248413215 1.2481522183710436 -0.40169758795508237 1.5787193046157262 -1.402863561693255
Ni 7.172531668744021 6.465353921461038 1.5224067481255832 -0.818165906461436 1.014629555442246 1.137446525471183
Ni 1.1157587361159902 7.23201723030056 0.34442430041001726 0.034649985973701614 0.10073659319012974 -0.06721120773917458
Ni 9.001986221063747 7.074012506505673 8.788968808545599 0.23836337453838946 2.2031746993614574 0.575004853424087
P 5.5809258465970695 3.6323224906628386 13.29509220976603 -0.6644291069251912 0.2899787847218361 -0.8737991795550243
P 3.007663308884478 0.40850524082976725 7.1343864705693445 -1.7199451161691541 0.40503513696874766 -1.9103373621449034
P 2.2243915489642423 8.633149554918257 1.906506169343614 0.5968322337118237 -1.5256363087478175 0.676459555727164
P 5.934603560489275 5.560810543514517 3.4020317279244288 0.08643508896579308 -0.8177542728453142 -2.3084161224004762
P 2.9393965899153316 6.207633029944505 3.7441527279396376 -0.19049380455062032 1.6343998860074822 -2.0624422825046804
P 8.711544062468716 0.9493095127006715 7.847110654978437 -0.455286576925132 0.5701233569620697 -0.19852233128205166
P 1.0867032983300813 2.5594502166280133 3.9717408767352964 -0.7664448239380607 -0.08207809754867801 2.119586078705524
P 2.678898271613342 3.394202563935255 0.6744658318098228 3.094500574946335 4.883472611907164 3.4689395842957804
