# total energy = -381162.3490845411 ev
CRYSTAL
PRIMVEC
9.29551031893102 0.00000000000000 0.00000000000000
0.00000000000000 9.29551031893102 0.00000000000000
0.00000000000000 0.00000000000000 13.60491895634617
PRIMCOORD
 96 1
Ni 2.083477118428013 0.48415759068535863 11.999797515948051 1.2781997682635662 -1.6323370899411824 0.375023935318638
Ni 2.003387000498988 0.5374831454118484 6.838295237715795 -2.2366424921015997 -0.3021426737778797 -1.0918906912182549
Ni 3.8052380392037346 2.479196293260477 5.84078192851002 -1.8161005177465044 1.1472563124727533 0.21325578083748437
Ni 7.437207763853498 7.959104197363838 7.771850787356731 0.7973320004352203 -0.4047623429233352 -0.0849631324059569
Ni 8.469065195472501 2.1889532753617 8.63226647222272 0.43363763119678866 1.9346021482295392 0.4444529766447378
Ni 7.8113613544710905 9.220421304131166 3.390345944542996 2.4376796193857047 -0.5045831091674149 -1.8453604430528865
Ni 4.66468234322901 2.8243478913132423 1.5440223952523826 0.1251312199844103 -1.6094951523460024 -2.6372707582519035
Ni 7.940317970769763 4.88598056021326 4.36957312561623 -0.008961580068661986 -1.253459585204409 1.0125384772411725
Ni 0.5496230820431515 0.3578037173091708 4.579361641576835 -0.5066014251490244 -1.026892174859683 0.9289735107343228
Ni 2.860367994258341 5.357578986746587 4.56269572091354 0.46739801547668536 0.013209299601422413 0.2261370076755267
Ni 5.767241427235219 8.695708330958281 3.790140271151237 -1.1821328126349642 -0.07432519307613651 0.7214749440955898
Ni 4.9795026907243924 6.510008484249687 10.743981492257602 -0.4620118114641075 -0.6265631851173532 1.1108088682789967
Ni 0.7854622660046958 6.802807767518762 8.129225052083692 0.6418388803295011 0.10213244509639183 -1.742847217578308
Ni 6.0106629590605865 3.313663560740339 5.48091832608791 0.24517448392295194 -0.6042992315128303 -0.30722754449995476
Ni 5.509690719544934 1.0672082578126054 5.9509272203364345 0.16648252923768747 -1.6126259846655004 -2.8087859648174915
Ni 4.503526078775029 4.7563825536944035 6.627241602784653 -0.7223835719527881 -1.1992347624225734 0.29263859094218636
Ni 5.314317681170718 1.8191313926079566 10.421326888565542 0.6855887717219419 -0.2727284822818206 -0.26381986693828113
Ni 8.209041882005856 3.623864039548311 6.642111630831434 1.9845324574010792 -3.3735413725994285 -1.912682465338312
Ni 7.616592524275308 7.49206057094486 0.4381243638970442 -0.7119695757083158 -1.052295445424136 -0.021516019694904884
Ni 6.711581628085678 5.094088447886775 6.6111473560132605 -0.3882062383368669 2.3696693127840027 1.1220268484820033
Ni 2.7140938420147087 0.8560356403478646 9.614188421771768 -0.01719759482520909 -1.476161856166774 0.07320316365655134
Ni 4.363842443431546 1.9404192127957367 3.6134800248386414 -0.2612996716195887 -0.25725326946435695 0.8393420263184189
Ni 6.360880610301759 4.250232714865095 9.888585383027834 1.4017070794913085 0.5500512688025431 -0.48575003562131186
Ni 6.999259085103721 7.533509251985426 11.374066512647277 0.45018242292934724 0.26774234192113894 0.021053735346505675
P 7.604052880695194 2.3752167135072195 1.46987582669706 -0.740504449923215 0.648414990885122 -0.080116602946933
Ni 4.135210068712152 7.319275622933635 4.954788717124358 1.3222579349250454 -0.23486718845967294 0.08730669293746898
P 5.195920764728983 5.277033388806127 12.768869937949445 -2.751246990060759 -0.6347644899812229 0.5887360869672505
Ni 1.9656193415916499 4.453581301194638 7.341676873536834 -1.157698847962316 0.333317042498155 0.5436193971342703
P 7.974729950409183 1.367639155150823 11.81830732241216 0.8652844572157935 0.9401799209731033 -0.7711036628663107
P 7.268001587360689 6.448165453309366 9.39050962456449 -0.5223322056207197 -0.7563858970401618 0.9251168559923938
P 6.0743093190257715 5.848809531323797 3.903006358882692 -0.38393023666933235 1.1658942392889147 -0.1365865130092035
Ni 1.1904481351922491 3.9077024507556892 5.200684713828174 -0.025770424095884648 -1.6710455622549738 0.6625704564498976
Ni 3.8620614945078353 9.124621773562861 0.3260149307151969 0.20066431732571893 1.0395710558789322 -0.2741176493198634
Ni 0.03321936565029665 6.520809867377998 12.494050030968475 0.048751972592722494 -1.099142230574346 0.2587596788065543
Ni 3.1669804060374593 8.074991325987463 8.076451650677186 -0.19092986364677442 -0.7100685020308609 1.5030247419958889
Ni 1.487672081429548 8.33747794972003 0.3144290065059656 0.11399345820003594 0.3192240547401986 -0.006771257285562533
Ni 3.2402940968575864 2.7543898797610327 8.196487365609043 0.7099070367523322 0.3441732684863686 -0.03552184705569366
Ni 6.69655078770833 1.8468041271802298 3.6975997465422985 -0.47792873980468015 -0.08319215654846317 -0.8417683763717244
Ni 5.201042590980015 6.197428354769729 8.525726908894988 0.20876894871072432 0.5812132962276442 -1.6165268623818032
Ni 1.5305336800566063 3.504407434916707 9.668661972037283 0.4419942306916001 2.0196460132747602 -1.4613587297156703
Ni 0.19420366316118523 5.6501365867442885 5.982069039403962 -0.33025254464021836 0.9480336126895673 2.166875093599475
Ni 8.992300182485833 8.786209420577244 12.358667428304397 0.12588352476940254 1.2342485594935968 -1.0720224915394183
Ni 5.734642072131099 3.9048394335409564 3.116111654719586 1.2383024178479962 1.328767453908789 0.8479289966564816
Ni 3.0530267435848226 2.5334448921734056 11.306844169816806 -1.0708711515437945 0.10904279906297995 -0.032621899800079304
Ni 3.9866585164113455 0.7625562691847442 7.651379112985358 3.317434759413848 0.14837065012832512 -0.014799012686045478
Ni 5.6345666067615685 8.836767701846506 9.364892127349934 -2.7997557362944234 -1.6442024739202006 -0.21602305916997636
Ni 3.7937116062613034 9.073124645739417 2.6914341762213496 -0.9306002477044683 -0.10412787825986583 0.18305971687007827
Ni 2.910703183277105 6.108572570498193 9.57885618659904 0.8046966683304078 -0.33332527002827106 -1.4255831147779576
Ni 6.456522117192629 3.0363598933704843 13.039172226857815 0.36502260113155205 -0.9102515088447872 0.10563968691870193
Ni 4.160912155071687 5.0285922813445385 1.7278113685194547 -0.8104939917384751 -0.17001779608445558 0.12455092200090809
Ni 0.875311740341994 1.807521300071588 10.669657379452925 -3.585647356103186 -1.8471658716927413 1.0848021598025899
Ni 8.463971255752782 0.2768825807470384 0.8755134529184865 -1.9415263861531982 1.5304805242139965 0.0984529393622756
Ni 9.052219042765604 7.7468412165247855 9.928679708197665 -1.402981832438674 -0.12983556743861513 1.6953607419615708
Ni 2.3637274626065374 5.73994980859088 0.32852750718643825 -0.9591166099766064 0.40166236384177273 0.33570534022467347
Ni 2.428926172814776 7.351261474348883 12.001770023262877 0.9245540415103884 -0.11142055526653714 -0.5524081990704938
Ni 6.271755256227538 0.3771551109378435 12.639990474387403 0.9515331412023934 0.2572386141763376 1.5989487442887238
P 9.387164170358053 7.984434463305877 6.282547343845412 -1.6507557016576861 0.6719629534083912 1.4850103076963392
Ni 2.942038348961731 6.312441705412234 6.788066017516018 -0.35126000012982084 1.2131518867242979 -0.7015594361185853
P 5.978221627633904 2.852420332834326 8.235261728296756 -0.7010629560981411 1.8816891022805915 0.2753623203602419
Ni 6.640099152821727 1.000773244716187 7.784857065560804 0.9874370541878541 -0.773875569184493 0.584797928255109
P 1.8356774011866082 7.924878127933167 10.014975508894727 0.8860440583606483 1.1742786066978679 -0.3961116092268726
P 5.279794155406048 8.199188640942165 7.161725086978339 -0.0641402821233347 -0.16662985344882916 -0.7480560370182278
P 1.2187250779429564 2.4115528638071915 7.442666087582365 -1.4820895345051184 0.20986886664312246 0.48258655029166564
Ni 0.8236036044316195 0.22162355984956003 2.278973787091047 0.9057631340561305 -1.018685984899807 1.390919244847185
Ni 7.051239579469913 5.190157548257768 12.088392096376294 2.1338775556275316 0.9889959140345418 -0.6296731915012446
Ni 7.826187693618815 0.29531557794449154 5.6676186532239905 -0.45618851991411113 -0.22213482849466906 1.066121552673951
Ni 2.7034969601160217 3.088424047330613 13.768313924673077 0.2626926953123734 1.4114297060957113 -1.2061638854422387
Ni 8.505615142512532 3.7431719160129155 10.971591360828876 0.6835195478977389 -1.3869826287969402 -0.11787736663547439
Ni 4.216173964622296 3.8390179241334095 9.903565098097776 -0.7574091960983537 1.9276609410250156 -0.6036903942842377
Ni 7.604015698653445 0.18922034001567103 9.819949193059829 0.9532472956800229 1.8458733781335628 2.3743991141595044
Ni 5.046142205050434 7.3662830192157935 13.013485942866025 0.43876955310671534 -0.4379203177325426 0.5872078232481823
Ni 8.410410524612223 4.734380080488972 8.45454560816921 0.7770773639512424 1.6272910428768426 2.066864579942092
Ni 0.3003639696630679 2.597788415421399 2.110925831198744 0.46585329669738473 -0.3421559809460236 0.2207577456414843
Ni 1.7208499607528522 7.793002721357137 5.054377097746967 2.617876155775375 -1.3415432655172186 -0.15521544096430043
Ni 8.856344046827765 4.4029300648210015 0.5513241604532038 0.8516046457358559 -0.9419974337978164 -1.6121590723314108
Ni 8.993285506592203 7.033215584731707 4.3079160048846585 -0.73145673789865 0.9187960559806886 -2.2172237212553556
Ni 1.881178924777901 1.9654892044455257 4.191798347602185 0.8071309888035132 0.7708347254756401 -1.168554302619581
Ni 2.596896046419404 6.922664079099175 2.753730828071017 -0.8712442743436544 0.0865217351423284 0.017560891701898788
Ni 6.8076693194775455 7.132835570089803 5.562289365355216 -0.6222810128022315 0.6403597246808133 -0.7618574616776944
Ni 8.22226939335834 5.691213447367357 2.2789468301107783 0.6427014854401124 1.880056708883491 0.610614889318213
Ni 0.7827898067539304 5.666422321030692 10.242871679187475 -0.9894723394503282 -0.7632049768445244 1.038137151645883
Ni 0.15479999441685652 0.22270462771343486 8.4962582817062 1.7886316229022743 -0.6339005993190308 -1.270389013969896
Ni 2.8038791773299887 4.934707625926345 11.613444497432356 1.6855879788455228 -0.02041173088713259 0.6076632628890567
Ni 4.489173810659614 9.029844749142672 11.491762547602029 -1.7103870401670738 -0.025711802943807333 -1.2790991401493843
Ni 2.6500477751007137 1.4698154058792168 1.740055414867657 -0.42679438302271006 0.6897788985438894 0.16899938212227023
Ni 8.692306174138176 2.410446698065136 4.454699551100263 0.6298829935192055 0.38062431222455095 0.10601918174530772
Ni 3.349079455507004 0.23442719592609657 4.909144972223372 0.3251139378620724 -0.0511487549596732 0.53774854017579
Ni 1.0301191711672004 4.676943121496 3.057719117253645 0.042558956408133154 0.7563362747491491 -1.1412587001284218
P 2.98693566437459 3.6006438544755737 3.2969204873404134 0.46146905158676005 0.35985519799799964 -0.8944842187082014
Ni 4.723811085121597 7.2124516169865185 1.8646087478721116 1.6773931017395567 -0.23233182363232893 -0.1780046709446741
P 6.180148000866519 8.925223779169231 1.6086866136104678 0.34001528045393703 -0.6331565220641547 -0.5925917132679149
Ni 6.611115751277774 5.0377483591254215 0.8910258007364945 -1.882723199972061 -0.22390426169026598 -0.1265108739407563
P 4.5221635772021065 1.9308913145973559 12.55231986769664 0.9242858754506663 -1.0320986587612868 1.9466634502694473
P 0.6831614554364402 6.971567759510573 1.6631471501613695 -0.9045269476561841 -1.0272922385115792 0.6583615605748726
P 0.9128172658549965 4.386114486439664 12.183735217382122 -1.0840899642269137 -0.14637290297200597 1.232379367495342
Ni 0.8145776637968606 1.78317635823592 13.413443870457963 -0.961489223973841 -0.025534139715362475 -0.10963980921703054
