# total energy = -340896.7649531749 ev
CRYSTAL
PRIMVEC
9.05874388052444 0.00000000000000 0.00000000000000

0.00000000000000 9.05874388052444 0.00000000000000

0.00000000000000 0.00000000000000 13.25838734101776

PRIMCOORD
 96 1
Ni 6.309940501576063 1.9270212863792648 11.391421125589984 0.1763015722106383 -0.04117955956210328 0.06535487125672616
Ni 4.6470903034722335 0.3538164174563466 5.910681801449636 -1.0086789942857661 -0.5532882876826019 0.5189100673130482
Ni 2.728375885207247 1.7720714727536104 4.552983542943142 0.010784749320329814 -1.4235856247319547 1.8507474183964125
Ni 3.5017208480381217 4.251902602833873 4.861466382655658 -0.429947326829395 0.8337251943522738 -0.17088142963633152
Ni 5.1449407482099545 4.446593125747791 2.840715179491635 0.48542196285793177 0.6655544787788861 -0.37922691765639205
Ni 7.372494920695312 6.19930606288503 2.6396391480349104 -0.11863481362678922 0.3024686896587307 -0.7962192269870157
Ni 5.188386483734575 4.656293987228075 11.66886599123494 -1.0589047232105375 -0.4834658675728254 -1.0010680147077275
Ni 5.604798821223267 8.101026277679585 12.51065429325603 0.33471289440441715 -0.9240002258894473 0.19756510957510492
Ni 1.837212899808979 6.4806072357887095 0.33279741409150554 1.0904786413620768 0.5703840668226241 -0.3954711474293964
Ni 2.5414305882886485 1.6041585966726324 0.39178161294919184 0.8538445908099682 -0.33366902652093505 0.18666208950935595
Ni 0.4003801726155742 9.294180606944467 4.767769077348776 0.035527246372332365 -0.473969498046616 -0.005463079997100269
Ni 8.589002691616257 2.440416535570749 1.2609599328877636 -0.012200398720933826 -0.35561030667871657 0.8308599569893368
Ni 6.717511505063081 0.7651006000491907 4.761471438621354 0.5931247029532495 -0.28972141729539136 0.40249488704539715
Ni 0.735254756672842 7.128398008800727 2.2727265045885834 -0.045690560058579376 0.7385036174431023 1.3607815449215401
Ni 7.650154478569613 4.120387759558967 3.743969776186456 0.08532797194454336 -1.7204819625092307 0.15493056273402997
Ni 7.436621768439013 3.7028702553200663 12.634076054771615 1.0245586416305001 0.3110392049365611 -0.2841112701974655
Ni 7.818185118320696 8.828869170130941 6.907580256862598 0.5442976541482175 0.5838173095093945 0.15691391171264588
Ni 6.892136910340002 0.8675568047886747 0.46965601036598803 -1.0419770942172635 -0.7746235030941112 0.5086971313357884
Ni 1.9346940424237506 6.412893125478755 9.150979078223292 0.3063623682861821 0.3964232269300205 0.984253771363866
Ni 9.245625739886092 4.822829934243218 1.3119488844197555 -1.1013114703115228 0.16784135725842705 0.1924874379418814
Ni 6.470796616194639 2.0591249480046914 7.109067555290304 0.44586631205249666 -0.4153146645178848 -0.6461616760745711
Ni 3.3539546182888276 4.304769431966835 0.3649505195275124 0.1957907912835015 0.15335113406205203 0.37553352796520484
Ni 6.117143256127667 5.811229476172195 4.7690681012174645 -0.5443233651798303 -0.6350048881268031 0.30113120179422975
Ni 5.404691169484553 2.8026847610430403 9.181128389518756 -0.04738363149028614 0.03197860978912557 0.32643342800444425
P 0.39312411878838044 5.542112313752381 12.336425660959922 -0.8968534902713263 -1.1516264165159908 -0.7460096960121604
P 3.9881663342634366 6.353042004834225 12.77981222002319 -0.09296337700261409 -0.8820519064821197 -1.2499312603361763
P 2.3069540623671965 8.588912104177714 1.2805576193418848 0.05968224635198108 -0.21248650677162761 1.3473557584339375
P 6.2703356734456115 7.777810296962641 5.783838552380328 -0.16916393272459251 -0.0011235720814819358 0.4007272536220131
P 4.72943428510668 1.0587950404197666 12.716265131886155 -0.2476630546727606 -0.16473032243327115 0.25184135442016625
P 3.9264581711288002 6.0386582993751 8.229083398425352 0.1679038350652463 0.9924849010244069 -0.25627110805674574
P 4.565009025409559 0.9858449761620995 3.6997658238012403 1.0800147657162753 -0.09583169968934463 0.5555009790632047
P 0.2439646542343144 5.534176854136124 3.851866662484757 0.5536245879760981 1.0003727884129159 -1.5951172863577756
Ni 1.3470170936280357 1.2569278859982707 2.59848436883101 -0.2976694684978744 -0.5635133078447199 -0.30493077804597807
Ni 1.9924616519818212 6.542777394859909 4.812051840805522 -0.7261911186243365 0.024857682473628157 -0.02273935057904471
Ni 5.884895181194342 5.548154495903114 8.961198394478338 0.5211983491265927 -0.5250544896478894 2.148520759462003
Ni 8.538636075787046 2.582367051765663 10.320235535326477 0.12435371838843745 -1.4053863281151087 0.18017468201279935
Ni 2.2965183894471877 5.208197956543655 7.033706959293041 0.21790484957372153 0.16052322633045904 -0.7387360451688826
Ni 0.6516126570440928 9.124238572240156 9.244237940327633 -0.1175022426842428 -0.10454234008946511 0.006378649832834177
Ni 1.3429587763813655 1.1554246611122456 11.465614955378829 -0.12362249664936772 0.09392676935714792 -0.2626271321817606
Ni 3.8995537018819024 6.6270599476791485 1.6891314257735597 0.7143812704736019 1.1732902746426697 -0.06881968987687502
Ni 5.645526933591636 7.7820950828056645 8.17738877074712 -0.8523790620080351 0.32362629757295236 -1.0699254998010737
Ni 5.224023582056897 2.787665363732819 4.972823709106254 0.6794620899989137 -0.31079957812192927 -0.03401826592697367
Ni 0.9381869247452878 7.523431710793567 7.130479708138416 -0.41872471864069816 0.4549163380699069 -0.7792507174534773
Ni 5.173167794059562 4.590826445393956 6.92528013647927 -0.06274108778296292 0.12241999170083434 -0.39685877180554235
Ni 8.147352693749834 7.387296908153033 8.931379727333551 0.049547986131456605 -0.5746621253726877 0.9904673563737459
Ni 4.588226585907808 0.32425139513947737 10.544686749424514 0.07357288829114425 0.02103445207279603 -0.5985209342681562
Ni 8.285063717820993 7.1668614352055515 4.991464792209374 0.3011075476451459 0.4199855876309928 -0.5165726774291232
Ni 7.233035559060296 6.1751010993066755 7.076147174249847 0.1414006465683952 -0.5206545608079808 -0.7361196905919581
Ni 2.250699263032773 5.140456670002139 2.584908029416759 0.13296948508190645 -0.2147115394474044 0.775171148067465
Ni 2.430143920040115 5.188703539769471 11.397798481263322 0.39334407378406455 0.011193554722974269 0.09642382474738878
Ni 1.100818553159282 3.3512279363887214 3.918781791586773 -0.9205408065859372 0.7489278981002199 -0.199542802126766
Ni 3.752158880630629 2.6381598551635235 2.570694860309559 -1.3197117714644238 0.3141733796901686 -1.1162297821842517
Ni 1.2050122249699968 3.3796905095785372 8.192025889066695 0.06554281889781616 -0.43183631632199176 0.431015105972277
Ni 3.908875149307848 2.7037270431800384 7.1394958758964755 -1.2119843487787576 -0.9434069125508333 -0.036652104005394946
Ni 4.09715208157301 6.744796441551854 6.018353125025967 0.5587737362772054 0.7283996962398811 0.11805785807739667
Ni 0.921328602432669 7.411909515204824 11.336889299336624 -0.8705120241633201 -0.22731585847497626 0.18634481537925326
P 0.2180811054197817 5.673717744465827 8.012507856234134 -0.29576350972441323 -0.7553039768298927 0.5129178542853554
P 8.576891151083224 1.6128459320287858 8.194491679143802 -0.3136774138903566 0.6048895567986615 -0.8876386565412778
P 1.92833480423812 3.0858067414614094 10.428835380147861 -0.8002430034344282 0.23849372946866665 -0.2988832863003175
P 3.974098105057904 6.100022230243278 3.7829758213481455 0.3555126047585877 0.5287964731888248 0.5521762855653458
P 6.816958395094208 4.021910155120237 10.351008994073492 0.6238840956232933 -0.10048873884538179 -0.035723678653854604
P 6.382809037139042 7.721999376077071 10.231430857575234 -0.5739974952054953 -0.8295142415947199 1.1087784681125292
P 2.2477008188170413 8.633082539210669 5.668782540814073 1.148823399849557 -0.3456843058142563 0.37027485066942684
P 6.9671251919648585 4.018703359795859 1.5593585789418125 0.1620466049535209 0.2170522717654391 0.3999505233569886
Ni 5.3111234042147855 2.892438795150201 0.5112510445212011 -0.29001169484230055 0.08261777210223191 -0.10943926317045022
Ni 1.3912871748433864 1.1286651317670142 7.0167897551453695 0.493884234692672 0.02087118702205438 -0.0487080067286645
Ni 6.865902788138313 0.5741658323372135 9.252245869894724 0.21455213105140467 1.0087404436513208 -0.40008242094916263
Ni 2.821517889515869 1.4150210837413237 9.11271494418326 0.2548847692321804 0.4153619728160524 0.49287636225344794
Ni 6.174521339700009 2.0889553915164876 2.7402038870576426 1.636263678689098 0.09767260955282533 -0.7031152106414794
Ni 4.155155218471289 6.964398510064752 10.548266764995683 0.2500490384064339 -0.6497637916035326 -0.3306533796230628
Ni 8.300246172520591 6.876637399605509 0.29303315206922126 -0.9801042679718668 0.8516486115999139 0.09428852357194084
Ni 7.864774237962715 3.809962725164117 8.173066844054294 -0.7071150758294918 0.46262193424428066 -0.12713848022242621
Ni 2.9707606945133938 8.505435779561497 12.369412170830513 0.9105448717154899 -0.30781092780725056 0.7854241932540409
Ni 0.1905851001992059 4.7961700510803835 10.164436917401687 0.29210611547748405 0.8418943604266275 0.058424205575163896
Ni 8.693440949511034 2.381226703227573 5.783374744694994 -0.35660712337434713 0.49522840742539226 0.5699546925946894
Ni 3.7096371369791346 2.5964081047396332 11.615540789662957 -0.10116391053553545 0.7103130139414993 -0.5940325594794995
Ni 1.1521091608616179 3.4283721990508713 12.668601645223033 -0.8042086729503957 0.03213956084702207 -0.9145704479351152
Ni 3.1564921197555327 8.270171142924731 7.961542457436163 0.42578033993589903 0.2582619132345294 -0.14129883088320827
Ni 5.618468465699217 7.9189455262106785 3.6331297040099333 -0.4494126346428583 0.047273588274983104 -0.8213599879187016
Ni 3.097891105762878 8.404240551966513 3.496170555678669 -0.6429290280698863 -0.3125679828762617 0.09066172545263096
Ni 3.511902876130214 4.187648932676213 9.321826081438637 -0.1726061256369221 0.14201616866520703 0.011134676460580823
Ni 7.311919100542447 5.971342773794729 11.367873826815442 0.13573882029692752 0.6573732285196743 -0.22491496234296748
Ni 0.4134247637655854 0.012909615866584043 0.4060074642977874 -0.4430175297497918 -0.04480635768141316 -0.33600770195644064
Ni 4.557644266656116 0.20864551782127355 1.6172983046331126 0.13099436363340664 -0.12278817367353045 -1.0015087017895719
Ni 5.9521835305431505 5.535173315960082 0.3928840620762448 0.0940265281598058 1.4276757356409282 0.8557001559614683
Ni 8.00423359959773 8.786709776233614 11.2369079434181 0.2266831099869838 0.0991579358491002 0.7806992769745459
Ni 0.004829216348660412 4.943021347700405 5.922455450836906 0.18546884053220314 -1.0497870771799855 0.19714370576697016
Ni 7.986433167924279 8.803785508398732 2.6860697396594815 0.20146110219540142 0.5074732862310164 0.04676065319430656
P 8.314912278820499 1.7784941221462203 3.67090285413307 0.4121372952311676 0.21421943030233428 -1.0171438372236676
P 1.6869826917313497 3.26121119870979 1.5815271369017485 0.7683680091027025 -0.7124310887257665 0.27832705941552066
P 4.930257577609874 0.8504312495323578 8.187703962373869 -1.2016207461562467 0.4999476672779325 -0.16470538273260665
P 8.385815066967123 1.5669724531512461 12.41023540000935 0.8605171177341373 0.7756997668774254 -0.5936813467876678
P 6.489810919544551 7.893535749699719 1.4028968609668964 -0.24317853653884572 -0.6908384501566553 -0.04086948452085219
P 1.978547421421809 3.2520075149539482 6.036146309704337 -0.8701456419628371 -0.5267899842817572 0.5750051105344034
P 6.95640869798537 3.97254905985884 5.883383276845081 0.1943897971709168 0.04695708547582881 0.5366758759369015
P 2.421773640718858 8.45344764858239 10.256662176832265 0.9877761826948278 0.5726060141746073 -1.0199589380749594
