# total energy = -340865.6690374579 ev
CRYSTAL
PRIMVEC
9.28176394002865 0.00000000000000 0.00000000000000
0.00000000000000 9.28176394002865 0.00000000000000
0.00000000000000 0.00000000000000 13.58479974130917
PRIMCOORD
 96 1
Ni 0.4325933184466282 0.6286501630891361 5.5145187553915855 -1.6951967055798804 1.0258135970835234 0.007604037599503033
Ni 6.56247631993617 2.824218023199753 13.385511247087717 0.3252021267005044 1.1379190942322275 -0.7910513096328312
Ni 1.5016223436265181 8.05729513054988 4.7041177305148425 -0.568780212670614 -0.8416578189357892 -2.276822149644279
Ni 3.211165482641755 1.177066901799934 8.596624094127197 0.7479246536466861 1.769733500446191 -0.15577594145346074
Ni 5.799153330249424 4.555963141705629 4.2005560445157775 -0.15048718225069566 0.7171248946570101 1.9607638942265715
Ni 6.906467775581065 8.402056972606866 1.1957037557377495 1.273118239975601 1.487757017203541 -1.6560452321913997
Ni 3.0039036924971145 6.961833497847648 6.295413980685221 2.4836478585857034 0.180309922039083 0.086428918318206
Ni 9.094996345873245 4.490461733149842 0.1507256374375188 0.2788762470507713 -0.05975655123334225 -0.495199868180302
Ni 9.007311521354822 7.604642063744066 9.235042385651093 -0.3549240792449694 -0.15966087833016374 -1.8066614838207915
Ni 6.561761624108086 0.34429775385693134 7.391339701587508 -0.1931456403511706 1.2401785518247865 -2.4432370588688244
Ni 5.632527102901615 6.163184114372701 10.914245294499525 1.401462310470354 0.10164599237827655 -1.3238839005642424
Ni 1.763498033153651 6.388591753139498 8.474469582637875 -0.4392637191343145 -2.0285353453445905 0.42108370579117804
Ni 2.6873491312394817 3.585981676534314 8.804389884057096 1.8652294140626713 -0.27330055273520676 -0.020903068701254322
Ni 5.804156201046019 9.026654717533122 4.287512250560114 -1.041054068182362 -0.3549973556850661 0.8267006834053247
Ni 8.433466461986601 8.327515125914005 6.616666970880213 0.09855706904030768 -0.47645112681788915 0.7628041418616798
Ni 3.943700861136841 7.127939946411395 12.028444024190783 -2.509739670576749 -0.7454206562779099 -0.9259486078650698
Ni 6.7661089403563786 6.541332461541657 6.800469102512063 -0.03390873693230289 0.02569200544946543 0.7536954946921923
Ni 1.1854019258729247 7.794463419330633 11.121780896682196 0.30480299421886214 -0.7352653130114628 -0.5834007907972663
Ni 0.08512677035972016 8.576155019975564 13.065371140396458 -0.0852824634185886 0.2675929608274682 0.4260194525298986
Ni 7.200941020280073 4.038523362172114 9.232501966843992 -0.31067385117734236 -1.5050831671868143 1.6242000626563446
Ni 9.043463992139118 5.17724729688349 10.00652311771841 2.2091797679049567 1.271576606520094 -0.5545627835196514
Ni 7.4302191546353304 2.667643946265139 4.393772669373947 -0.25490122429241263 -0.2983662374545829 0.9089970676123958
Ni 8.587803633796948 5.372349976186683 2.4809783904389473 -0.9193964085688487 -0.3697971397020599 0.18019345106587675
Ni 4.968500424498673 7.48573338512593 2.3300104989609998 -0.4717691479611875 -0.913143999901234 0.21389110042863807
P 4.497608691430692 2.7054300075136313 7.325467022471678 -1.6797685439502685 0.18389738228002522 0.8133450880340249
P 6.900221148408322 4.995519639505885 13.366152271910615 0.15624722466292443 -1.1720486889260846 0.5471222680812061
P 6.574273441981573 8.868920420098368 12.61176112372213 -0.04477936109821966 1.251850074625444 -0.008406993116772617
P 3.6234428760427675 6.199345866921 10.046516382446365 -1.0907684046883537 0.127417959136058 -0.4850290982948873
P 7.415368332233565 0.6473909727837641 5.238665657455191 1.3931982706893489 0.5783205480608814 1.692338410195479
P 4.07676422985666 6.189442224731822 0.4749952009328691 0.10107752146931623 -0.003272500103684686 0.6085052991743778
P 8.893517094701293 0.652983235594429 1.176723476531893 -0.13949854444967588 -1.2533289731638155 1.5224643387777392
P 3.464019297559815 5.392064442925028 4.679664923253935 0.08035880086472612 -0.36355758655025133 -0.31877771123139936
Ni 4.795052100610053 6.45816785609177 8.230608868860484 0.07171938002217325 2.053574290591089 0.31574818037645624
Ni 0.6292441959852068 0.5083148773440302 8.197162960458908 0.5424999388178463 -0.5827011936270803 0.7417113257471226
Ni 5.819192658727806 1.7747660946509904 9.361611304099341 -1.0238886121466688 0.23080895922989927 -0.4247557553261265
Ni 2.389246716816042 3.409396116413321 3.3111727770480437 -0.05588241298991667 -1.5915272550136719 0.231516269709569
Ni 7.883141392597176 9.200492875509788 3.1986091123010616 0.9971105727218763 0.8017051898022516 0.0270829722597211
Ni 7.097254434623747 2.547862781830899 2.074929060682675 1.1800579323838063 0.12228963677055713 -0.8808401455622056
Ni 9.292252394424697 2.623685511955913 9.483127230225387 0.3779562784740846 -0.1415695680460917 0.04701827773106741
Ni 5.5304276988894765 6.842534985141465 4.887688746223065 -1.5227934399823837 -0.3886474396393435 -0.7016401687578497
Ni 1.4874398082328322 2.54627560018671 0.2523386770159989 1.7930739749443443 -0.2033755456092949 0.7102693051877574
Ni 2.685864048999305 4.651472493276983 13.470103387840972 -0.8341838791562474 -0.7307283443730577 -2.4584713593200758
Ni 5.264068917349811 4.816910654832651 2.0196793604661067 0.4538840401506506 1.3621141476900347 -1.3677109250515218
Ni 7.765216580963156 6.169551404477458 11.761597021864661 1.8760450166209366 -0.8031144114449523 -0.33079967539294
Ni 2.833286306628831 9.314714263307366 11.852900806167114 -0.19896019015041863 0.23960238915181317 -0.22628433188666833
Ni 5.079306123143846 1.247589744680318 12.16612599867755 0.03497111675854623 -0.6033859756699415 -0.9622649257976007
Ni 1.9962939560653263 6.99802309568795 0.3186364609230806 -0.7068209416278407 0.10910296287695405 -1.10102607786062
Ni 0.7634417962659606 6.323879294523805 5.9812513300106716 -2.3004834978169604 -0.9241179824142342 0.4897241897777115
Ni 8.16294016841044 6.730077132504095 0.4123191613390179 1.5479982213827854 -1.0539340094688237 0.937879554974701
Ni 3.7667069033997995 0.24874849070037208 3.15746026795497 -1.9991892880823052 0.7054546574079334 0.29655360972587635
Ni 4.666100553342722 4.999631460958374 6.520867100095623 0.4906798688227613 -1.5649474476426146 -0.2351880621342014
Ni 1.2955950280940247 5.443429724907134 3.6740359152599824 -0.11554974694356228 0.9351672982498603 1.9815263235849034
Ni 6.484268176462872 3.2810107567500584 7.211205723088894 -0.6093591625342408 0.8126238935972845 -1.5179132290719473
Ni 1.128811010758197 0.6798808594932266 2.809690206185226 -0.3256129889856779 0.7126090090645275 1.3498525567138624
Ni 5.949499343539298 6.961508636107609 13.229692705742792 -0.26994114934467056 -1.8224511425548808 -0.22787018831654948
Ni 2.214814525943305 9.25477263138824 0.9456131219628178 -1.0025096322502605 -0.16650284095266166 0.22539087353812148
P 1.353114119608863 8.101856879519177 7.057819932088658 -0.30326033232209065 0.6865876453001014 0.636256244035401
P 7.125220389559071 6.192087527472138 9.135615201494874 0.11592050001941971 0.8889483764916368 -0.17127146598589857
P 0.35853783618742424 3.4134800925738062 1.982511464700088 0.3979396635745469 0.5250262075131151 1.2120257435396546
P 2.142890136698754 1.4968793622219543 4.7491779102109986 0.2937562494863973 2.2896835789879795 -3.5273959286604604
P 6.004168933505796 3.2720816997809967 10.930737132776684 0.9960592486392265 -0.8454795066747245 1.0490702536186192
P 5.042309011835448 8.311875353572145 6.611626973027613 -0.41062780056517667 -1.5075771372532616 -0.22939228138803072
P 3.446365382429716 1.3386438495311426 -0.06553111020059058 -0.04343724524802842 1.1913784996029484 0.544085023916779
P 7.744889517800741 4.742322399319784 5.15487453293523 1.0604363293637156 0.7641606558895743 1.2715537237019583
Ni 5.678843105267121 0.5643711628522944 2.1379076857829618 -0.39581541814269255 3.1209752241980957 -0.7487335227012266
Ni 4.487036762233434 2.922743948071466 1.058557339033845 -0.8407448202032166 -1.3502431072840617 0.12480237589008182
Ni 7.377702933917087 1.3761328943315996 11.479998512011584 -1.1631171907644098 -0.44116247881892406 -2.402050557328186
Ni 7.8724116734119 8.360604614577937 10.98738652300462 -0.21751121367972862 0.756550190532168 0.35834570333200866
Ni 6.007417550906183 8.582095348936269 9.316510284641579 0.035173976797971684 -1.7076945809365751 0.7954365831847204
Ni 2.9641127702243844 8.289534147621488 8.879419023360017 -0.3137997984008338 -1.4472785974735203 0.05394508675788774
Ni 0.1516222558400254 3.2963071038238767 5.698904709979106 1.1829815337885048 1.6130910972273769 -0.8470571355744896
Ni 8.397833769986365 4.940989275999402 7.560226038469586 0.054667566746209074 0.6734390237332855 -1.8224889377713516
Ni 8.323551812685533 3.5776373706973223 11.539540099902261 -1.2574154845283636 0.8073757578244676 0.5899653313886614
Ni 3.2729170585410956 -0.029081622968257326 5.484061574998364 2.3145803422296587 -0.42683474934234233 1.6374088480371347
Ni 0.3824309530790647 7.6497885638454335 2.280819934284352 0.6264971077661081 -0.023673432357539874 -0.13910542277631527
Ni 2.0951911514970836 1.9175567520439658 6.755720790086343 0.14933764202728472 1.9435804404687498 0.9775267370526778
Ni 2.4006725683014003 4.579807993424464 11.062129783976305 0.3622998028837502 0.13159934420725725 -0.94063706311518
Ni 4.431299769406809 3.6417372328889424 12.269627877230258 0.3742610890106845 0.6164420375229512 0.42608295877798236
Ni 8.428194420033973 2.1305917993972923 7.248142502931285 -0.26424178496704814 -1.2206674783750524 0.5081363737363119
Ni 2.5558450988718477 5.267809468242256 1.8832745567058904 0.9952282680974989 0.9231782442087842 1.952929228673501
Ni 4.3280308631305315 8.545543762299925 0.09163143057169346 0.7944438802541479 1.5998964529139736 1.5593817806293788
Ni 8.075199653308008 7.023631482566993 4.7203376131067705 0.04577566357321794 -0.8534761517269559 -1.2704198672078313
Ni 8.814167294255858 1.780465097747668 13.026980836311493 0.2285908685326579 0.5791430439621768 1.3239517776877006
Ni 0.5806077526194247 0.8605606057151065 11.122459393630677 -0.10412479293607228 -0.5749002095254229 -0.9639736809585916
Ni 4.931744639054303 4.441305510999998 9.466975104510666 -1.6578123513941514 -1.3198842924865462 -0.5549381645811992
Ni 5.050903925300469 1.9751872247268172 5.272410438657603 -0.1911124119712257 -0.2376735475602165 0.0352595945332425
Ni 3.199173443552329 2.314584207191166 10.726557816456811 -0.2899792989424683 -0.9718052611878683 0.22868265691551587
Ni 2.2883539421240475 4.751734108016903 6.551215683850032 0.6980195412861269 -1.6434869359104147 -0.521198863347225
P 1.013420120696479 5.901326988373571 12.025441373536427 -1.0484146223124913 -0.03018218001033512 1.2857251301063342
P 0.9269215056173957 4.081906327113271 8.02911940774813 -1.726351276805814 -0.21161336013805493 -0.3739600128304979
P 2.7009376337370967 7.707437600056288 2.7692746211952213 -1.2426892340617826 -0.24915815116104834 -0.585721725620959
P 1.0917025182817854 2.8649742489285983 11.622801235697759 0.60627435296133 0.06465681674843703 -0.07783217778813047
P 7.121776855114662 7.056776661814934 2.7412492629702894 0.34545393497100507 -1.07678083216001 1.1103190731267716
P 4.237078857683719 0.07927461815702445 10.17710708923629 0.031162541645733427 1.3137265004152667 1.1214578633524104
P 5.3371628088585 2.797096708788529 3.246495589135555 -1.0990998073721845 -1.619581332937411 -1.2537182381824346
P 7.7897390014540715 0.7599954772923508 9.070883251174779 1.7243291041694626 -0.05152130780774353 1.1975869424065053
