# total energy = -340895.73843297083 ev
CRYSTAL
PRIMVEC
9.03126026284249 0.00000000000000 0.00000000000000

0.00000000000000 9.03126026284249 0.00000000000000

0.00000000000000 0.00000000000000 13.21816228845534

PRIMCOORD
 96 1
Ni 6.351983173757972 1.9791915928100712 11.217976377707368 0.23112829024253098 0.6950907976751062 1.1995270968520118
Ni 4.707878419893239 0.18043463996455897 5.952521513692982 -0.6120243680712298 0.8654091557191159 0.04757517867580193
Ni 2.8131200766128557 1.609334402951341 4.6888649082626 -0.23559301088210396 -0.5756386303533441 0.47600272642656083
Ni 3.4082710778704057 4.201721454454016 5.042252692426353 0.25394528813704653 0.9330834191376381 -0.8328008827657915
Ni 4.910052205749649 4.546941367094115 2.7229546863754464 0.8200983475974586 -0.27187384759100924 0.16722789204414426
Ni 7.127985156065044 6.26507535899445 2.666883205679114 1.062282381433519 -1.1279928362574507 -0.18233003779290533
Ni 5.201915434442653 4.4217229475060185 11.572236581584948 -0.14261986368747695 0.09020175509707691 0.10161539625065727
Ni 5.5325047059191945 8.065872473468879 12.366277602571087 -0.0784387010238778 -0.8712383608063834 0.2307786202125961
Ni 1.8023414599305836 6.463979828739001 0.48223677026280604 0.09889979709170708 -0.15726872394890334 -0.6962969021680653
Ni 2.7853941084819174 1.6142022520792159 0.17390052337083464 -0.6256167620436838 -0.10393967350845972 0.4381763996074067
Ni 0.46692968772693416 8.87394445995607 4.6528193434403855 0.14938263633260723 0.6120631917289653 -0.05209954890871672
Ni 8.550923384340676 2.424848147659994 1.5216751873576897 0.4098634115953264 0.6764888663032027 -0.5138712193375602
Ni 6.865708335058344 0.6304126527137177 4.617646198331998 -0.558518939953922 -0.23973788628841294 0.24453865011116596
Ni 0.5800760221031003 7.2267961714789175 2.512878548038721 0.37603746418481687 0.057934410422938926 0.75411869827254
Ni 7.690686840223421 3.732637811222447 3.9660958816409306 -0.12304476976902678 0.7151065786754007 -1.288008526823872
Ni 7.657984647844879 3.869542681221433 12.780098966000308 -0.5558653043811588 -0.9292550465304834 -0.547787669579347
Ni 7.887622495292878 8.823947404720606 6.799699759008764 0.6713055223300504 -0.38741845232824895 0.3463808176606486
Ni 6.817544625598314 0.8532960208245419 0.2653068087291526 0.36654495131334935 -0.8976587597814412 -0.15113484313702358
Ni 1.6750819755875717 6.596938038127819 9.258846825811323 0.3574082791194038 -0.15680875359334928 0.05997458078141929
Ni -0.03800534823733323 4.9655131732715025 1.332536219026812 0.14490583150817624 -0.5523313230859713 1.3076954637298381
Ni 6.60988886493556 1.8750069777095826 6.815945189456299 -0.34804920650200705 0.08089436165322197 0.8756747993111822
Ni 3.5446521347906965 4.580004809871758 0.7500985224395945 0.3783637983251484 -0.9186554166377663 -1.564286417019848
Ni 6.070514925299075 5.573163438337919 4.7861243532123385 -0.9456987939088036 0.2562610807544167 0.04152485871666397
Ni 5.355464916580179 2.9231750106987215 8.98500547640343 -0.05653290208972199 0.47474957074575014 0.3546343159186925
P 0.1389504503838911 5.561079612488017 12.418211863071724 0.8132784964621478 0.15920964972535806 -0.30046271497229543
P 4.082165634871815 6.061294008862044 12.483786938642385 -0.5676358146535256 1.0195041099257278 0.06214664873207361
P 2.2393009114221702 8.435395506708442 1.5126601836481448 0.07438278578694932 -0.11545435901627858 -0.5767074379374907
P 6.251943906987157 7.704224698929701 5.698296964082226 0.2625091185466576 -0.40609494569182963 0.3016125123060225
P 4.580492497910543 1.0569915739871607 12.31397306041137 0.48032115129625663 -0.5815393121084953 0.8280700529490255
P 4.080251007756584 6.109150655482838 8.149763847399916 -0.08247738986962569 0.9929610693298772 0.2537298296921308
P 4.649093948699664 0.9462322016230491 3.7685768071769274 1.027661706035856 -0.4699068979414681 -0.7649132177848826
P 0.31695026265851495 5.4207248011776255 3.8204984239135964 -0.46258439613812596 -0.09102167989521098 -0.9326995534356582
Ni 1.3872286263245799 1.0655622397058122 2.649514286490378 0.23043306394771929 0.07724545204672503 -0.7442101809095764
Ni 1.7481448688055807 6.559404121661311 4.991627061496455 0.4306276407258713 -0.6930218309612194 -0.553020378733196
Ni 6.064256262134665 5.758620361975967 9.392178026237213 -0.20005213766301674 -0.04847120812751007 -0.8619430515473864
Ni 8.62606346735351 2.2446293548088976 10.104875391731968 -0.029521920718516895 0.9139484980804001 0.04265151612193945
Ni 2.3947108331150626 5.128852541224643 7.161401721107807 -0.40240849797917794 0.1286942547453203 0.06175481261029364
Ni 0.6403768418468981 -0.011289978097878019 9.1372526508522 0.14268157016334782 0.5499767068108657 -0.40698994670227323
Ni 1.2583344839256398 1.0077802383697403 11.256613011017127 1.5995377840229743 0.8654721477465676 0.8562519146998803
Ni 3.920316424814962 6.913032137340466 1.6770544027666587 0.8898035254030805 -0.4991346844583339 -0.5288311830815021
Ni 5.758945487335158 7.949116344479705 8.094656905269181 -0.7426564632692113 0.17567525148054905 -0.19430263677374923
Ni 5.280252583487524 2.7675573700263465 4.8991397343188305 -0.2152080194678487 -0.26949274895334235 -0.6305275690817399
Ni 0.9669318494914887 7.425619359883672 7.116156011746509 -0.6859093882861542 0.27598375599432473 -0.15709080361014235
Ni 5.093450002112827 4.69145055799416 6.980550740058286 0.11460795185558327 -0.7756540012411545 0.00810026050963121
Ni 8.075861047003999 7.388527975156063 8.991442958515394 0.16551476600777945 -0.5740134360450952 0.2925437172355349
Ni 4.615642161742989 0.26002081226431933 10.252852586463375 -0.44960983825532885 -0.4389215053035473 -0.2126960516792724
Ni 8.190585142498236 6.938446102917164 4.980775099507487 0.31578854669608836 -0.055303400557995076 -0.546408272733317
Ni 7.127407155426484 6.197313815383235 7.039225933006133 0.4960164505443263 -0.375139892071212 -0.0816705776976142
Ni 2.3858963233770183 5.218271046261913 2.662931126312958 -2.0667162272896857 -0.5435646326369348 0.2643243173785254
Ni 2.145520307815766 5.310868554811263 11.231762596063026 0.07410304976300142 -0.19982716613640425 1.4112116765476341
Ni 1.1934629435072268 3.253899751074926 3.736483321720868 -0.5799138606899302 0.6429555104324475 -0.2668074888116953
Ni 3.8856815428012337 2.4222561760464503 2.3535066125936974 -1.216833449340943 0.74040649089277 0.36785904213908255
Ni 1.1201652375298028 3.2448684910974217 8.282738313056692 -0.959037934219871 0.6012218781390871 -0.786815931395245
Ni 3.645702902678991 2.765001523452713 7.070950039929111 0.43092203203783846 -0.1301379291703823 -0.5552469540708697
Ni 3.9961067585461776 6.85613519948219 6.015070214045181 0.26521828994770447 -0.0264363398146577 -0.3810194907804406
Ni 0.7994679051066214 7.55915556991105 11.509556024837078 0.8781070629017587 -1.4238131673617285 0.2366101392927086
P 0.12147496232742044 5.595073275043344 8.116387923027052 0.11561016786785251 0.07244237423112686 -1.231905513182717
P 8.547021880030393 1.5872168472664332 7.975416276660194 0.09029894279657351 -0.21199722584003491 -0.43251123090182925
P 1.7033046630172723 3.179762137919594 10.46586298116679 0.43587809049153314 0.3446658918520709 -0.5149672806152163
P 3.8830805399277124 6.008587575633329 3.875195346841353 0.8477081388949272 1.651871560429684 0.8519581724205328
P 6.8919080202530845 3.9139674490507765 10.301733377965617 0.30070542711072085 0.08694956670836639 0.3526813059573797
P 6.452979754086402 7.813945476396399 10.354724295883624 -0.6761749346072096 -0.3071149301814904 -0.3555529710782199
P 2.3216027835971658 8.564994087385626 5.802813026423888 0.999291125312963 -0.8798734107735621 -0.6561650671441861
P 6.797242353168885 4.142792483100801 1.763844811150474 0.7731497467620619 -0.8869200332076983 -0.359114206066917
Ni 5.347815439379233 2.657908842639468 0.302081196231552 -0.6676013340055857 1.640892692820677 0.17957021565958106
Ni 1.7742903664404555 1.062545798873326 7.06336287842201 -1.5155105331677254 1.044259205383221 -0.19370382684748574
Ni 6.8598199535530116 0.7967233051994579 9.328268315006403 0.12443650791023086 -0.7011514020468893 -1.6542719423410606
Ni 2.820597959874229 1.7749315858988584 9.036331933107581 0.4935034543144855 -1.1596677987632287 1.7268176749192712
Ni 6.274458838111075 1.8725324124757463 2.391284373079597 0.32330259568494646 0.5680178805832927 1.2282159801462718
Ni 4.012263682645933 6.7809770539494 10.16963042889667 -0.0016359929415262146 0.781425356507293 1.5739211118961345
Ni 8.235831754985531 7.211280466837565 0.4218736348251634 -0.2961332343590061 0.18906041453820344 -0.5335843814957714
Ni 7.471570410649214 4.075717315247878 8.161355469581043 0.5929411261875337 -0.9404424306058707 -0.6833015183496619
Ni 3.021263525314395 8.31041189987976 12.542065659277219 0.3914892799635129 -0.2197035933453571 -0.5217115413175853
Ni -0.032263273143636056 4.766689984866748 10.077314695658618 -0.08396708704127474 0.04023262226780168 1.2013178702038472
Ni 8.83464041653397 2.192284171979283 5.633738808385032 -0.11907884314274331 -0.27432873688940496 0.8123477571177622
Ni 3.7142321033882935 2.645129609771299 11.173867703977235 -0.34559894518930157 -0.069543455416777 0.20082295439077025
Ni 1.1831402133529398 3.431102103093536 12.695700938384533 -0.5908436202285566 0.11966865420794227 -0.4467883096461337
Ni 3.2855181922561685 8.34034149544521 8.093770938665388 -0.2370246011223079 -0.15166680438109365 -0.09565557912279656
Ni 5.51858753429386 7.771832711121297 3.512872034055857 -0.494106120895491 0.638803435937287 0.3869371418164562
Ni 3.0824141866220764 8.191750175035333 3.6451068395204764 -0.43630926449168084 0.6028928380836068 0.4762554658673153
Ni 3.4816500651876274 4.404680959928468 9.443807933276608 -0.20717769296420446 -0.24709484087411634 -0.6060259843959499
Ni 7.180673526773804 5.959818771754806 11.56413373513313 0.7471723488616938 0.8524664795155189 -1.1155031884308726
Ni 0.38982530566899193 0.2613240230790732 0.3463695920352349 1.1244866228764054 -0.4662009098447906 0.5532587199962472
Ni 4.400580767898681 0.26189299245765596 1.5050459283611113 0.7173406102122419 -0.5242409926076584 -0.3087699492864101
Ni 6.164358747725322 5.711170122054161 0.38708341513982164 -1.4664328018044681 0.46628164248405507 0.6570652103609522
Ni 8.095585318794868 8.887229443382978 11.38653400767551 -1.7360901013601326 0.6030987834468259 -0.13039375393493027
Ni 0.2177039405137256 4.681299421779445 6.056892172749008 -1.1490067195049567 0.24757383739306393 -0.1869269131349684
Ni 7.858036087606575 8.85968410045159 2.33008403984204 0.4580535981473079 0.2874251650620469 0.7467396321996495
P 8.395341868708211 1.6671073730274355 3.538356443460379 0.7385666094705537 -0.8548882015831342 -0.0893391499864655
P 1.9418473328030914 3.174379506973002 1.5021649564282873 -0.39116994895088114 0.034149392188199255 1.1608175960969558
P 4.795860954594086 1.0994926834412957 8.059324809985188 0.1932176312396866 -1.0092775471017135 -0.010724071285723466
P 8.52102088255516 1.7994875817776923 12.385616239560916 -0.7935928451077623 0.45040328069090174 0.22293829823257091
P 6.268173081166733 7.807768094571787 1.3194977889972892 -0.8038142657254543 0.05313107549702462 -0.1490224247797111
P 1.7854981600725381 3.1539417656439097 5.955574982691377 0.07247682701348808 -0.2540069946129174 0.7897459605578463
P 6.816000280142162 3.866742990628407 5.940334731479339 1.1365574379980103 0.505724936081342 0.8046820130423884
P 2.44151082231849 8.44839148981607 10.248556416092075 0.26596956629143226 0.18291110710735595 0.028513019838028314
