# total energy = -381165.3486801481 ev
CRYSTAL
PRIMVEC
9.35118804732993 0.00000000000000 0.00000000000000
0.00000000000000 9.35118804732993 0.00000000000000
0.00000000000000 0.00000000000000 13.68640893984919
PRIMCOORD
 96 1
Ni 0.4658032377989765 0.8115998769806342 10.64244191159654 1.4963542719542486 0.022832424513483256 -0.15319712498269097
Ni 6.085790436329355 6.958115991877544 4.890632888641531 -0.16117680075405788 0.94441992719638 -1.6079902856657016
Ni -0.43182476174559276 7.136583411373039 6.860641080306303 2.597449255379591 -0.5046458440845502 0.44640290128225696
Ni 3.0188626654739035 3.6049483619308123 6.592948367132097 0.4408847996775052 0.647531302728588 -0.9583419365941109
Ni 7.914723803224156 5.479926977638598 10.682310700856117 0.15734997080879998 -1.1140944810088038 -0.42578213970811185
Ni 5.9592034068449165 4.257128253881259 1.171025872406184 -1.1204026826150189 0.5087662940108271 -0.3306883466260563
Ni 2.1613400402406926 7.3671650005750235 2.286766587316989 -0.04101552318041324 -0.6938615532536954 0.3943370338249531
Ni 3.7664246731620517 3.198470929883123 8.735788017394801 0.6596036605120899 0.45189323497286693 -0.054946274328892465
Ni 4.646455607471796 7.83266713012628 12.760043641058807 -1.1141052796420812 -0.4064158193663582 -1.5951530246917174
Ni 0.6019135169566772 2.909790410771496 0.8226052899229579 0.3392053829581319 -0.475912994926232 -0.6525706649247085
Ni 8.589963724332364 7.88681985877697 10.692041546898928 0.493268455485544 -0.20467369559542814 -0.06270329256649201
Ni 1.9031630957894952 6.8305844924235455 9.382840653064955 -0.14072470354729313 -0.9976710732110367 -0.2419341226087833
Ni 2.7072249802705053 5.762519873481084 5.262300524038868 -1.0853757729178726 0.18019705061030256 0.5032924153804493
Ni 1.2715090610982898 2.944632936579209 11.827931266199931 -0.7851868804322542 0.3598695961757028 -0.3995810558327118
Ni 4.707275733036307 7.094989327961146 1.2535959257152365 2.4212351006764368 -1.6083301855036238 1.3971999356495743
Ni 4.912412740187089 3.7122438909479096 3.2846832708470615 -0.6432234193818536 -0.47491103602427887 0.5458421158172019
Ni 0.6600189926977909 3.406506805257305 5.675849324314092 -0.006750945570588373 -0.482537185110969 0.17238732475789667
Ni 8.615604681327735 8.50949675316345 1.656028033913109 2.7469283080807467 0.42703555249923875 0.19329116479009936
Ni 4.8274759012414465 1.6932102269127416 2.106571068312835 1.7131427485353399 -0.8904861532924019 -0.042383607172533456
Ni 2.3511410993709023 1.317479500408735 13.18372071285908 -1.1283792730625921 0.05399445193858443 0.3074417173932899
Ni 5.782568820161636 4.982378327437039 5.811358322095132 -1.468216376067452 -2.6510377301290085 0.6153801719173402
Ni 7.78330220963811 1.7854222899803376 5.134442668130042 0.666550009922936 0.3452356483126119 -0.4597258436434082
Ni 9.352590495594379 1.0991853719988414 12.939418125772592 -1.0111287413778391 0.7500437568722179 -0.2876622207735175
Ni 1.8478788734128977 4.28138523507965 9.535362266842231 -0.5550389518251214 -0.062472921723240794 -0.45720256300092227
P 4.135431895625332 6.573164994185559 10.520578167078684 -1.6283300256643185 1.744930325359582 -0.544806475463836
Ni 2.3131191697052653 8.147007308608911 7.161700701850633 -0.5489598355105771 -1.1001416183731376 -0.7741941288661763
P 5.730024495815544 3.914893482139257 7.9416065979616794 -0.7890049686267637 0.6660797551547367 -1.1507542983236827
Ni 1.8018710293511826 8.388165091232402 4.505729582007416 0.004251833297818483 -0.3185159729295805 -0.32964782117668384
P 5.554278271974918 8.43818459486779 7.051702679554301 -2.0538473417468173 -0.23941187040756187 1.0532557524548765
P 3.8837727290828776 4.960346928939193 1.4355129983965778 0.2048503303826085 0.2464106703228982 0.6411971329804441
P 0.9169166946555651 6.17230762601614 3.7061151224523714 0.3201835904399905 -0.12918970632450008 0.18075009490029517
Ni 4.289399203039181 8.645191839582058 3.0287749245603703 -0.5313999722499428 -0.35095352463299556 0.020026322523255834
Ni 7.553590280903145 0.8513873109062003 10.288648136593423 -0.21174422928896433 -1.3700017779682276 0.46520640714200523
Ni 6.911967879998567 2.802588393632573 9.34431375925718 -0.4847200516949007 1.5668431220034307 0.43165968153481143
Ni 1.142079270517355 1.6367664572467837 3.7926818734345904 -1.8115378380764866 0.5730215044454712 0.8097637984406699
Ni 0.25618233608974145 3.768566095172241 3.235685852040117 -0.643998349874665 0.3147997004202578 1.1936901784552603
Ni 6.312659603967824 9.64107463976184 0.6874572479916697 -0.19907588979267649 -0.49788075744657473 -0.1812362905080943
Ni 6.597758618145378 6.61820966590208 12.30026256821425 1.7107981595625632 -0.11348412266378519 0.8045771120334079
Ni 8.219871764082262 3.035881827301611 11.728746022376884 -0.5890880709900306 -0.286549447325313 -1.517590812735522
Ni 3.4751819285884507 8.84071582565653 0.683778490704296 -0.5450556153601644 2.5024410800328067 0.27905185339668714
Ni 3.807644709061247 8.115409644973843 8.871776731110877 1.242748369434492 1.9296118941037992 1.6714610525258375
Ni 2.79392919371364 6.570995518611917 13.852835605946877 -1.1644737047923044 -0.3402330528916979 -1.3298776562538321
Ni 5.280662516437158 4.9326393594361715 9.982482766500782 0.8207336671886123 -1.1826508899219632 -0.8245507269418574
Ni 2.2294540923027926 8.154591121928842 11.446628166875522 0.24243034551891152 -0.12139540709106189 -0.5791857242746541
Ni 9.087933177985708 4.439747600767689 7.631226647519726 1.6371735920978772 2.1974442246355834 0.8230373756211246
Ni 4.3040057584099936 2.31792568024342 13.524443397531005 1.5649872997416143 0.5565422758435254 0.026974214595998705
Ni 3.921327099357643 0.8101195839491363 6.628793340273838 -2.156591195174963 -1.3947807846851206 0.8881307656863479
Ni 2.6735607041277873 4.217572729413565 13.43915027832952 0.12134809879289424 -1.4580219520329534 0.3017235839625901
Ni 0.512353450754102 9.29121864994864 6.309228653157612 -1.3468140269978548 1.154865235168263 -0.8367498401112106
Ni 9.196509819733791 2.838450198912385 9.402508071282558 1.0028613591627245 0.3328439595164784 0.8160959113062848
Ni 0.4550662039470128 8.70893888693342 8.590096511199372 0.4160636268687673 -0.6598036923380378 0.9693552569854789
Ni 6.003976894114732 1.3142159358604548 7.820988431661102 1.2521650347627014 -2.5023210095151747 1.549140305407029
Ni 6.72252216600542 8.159107745644656 2.5613155913989285 -2.514629651679198 -1.5499545737782081 1.19629290618543
Ni 4.2942244159529706 6.433523706508001 7.39345305976736 -0.07923548589356032 -1.0386572858154113 -0.4749663147422465
Ni 0.12289705077168381 6.358854471785887 1.0160738849151603 -0.22735982433903426 0.06516306696089422 0.1738464258019264
Ni 4.044500945288723 7.931555941295515 5.4490792792664875 -0.02227398090685196 0.5023603904844832 -0.37869778462579945
P 6.216847333590521 4.057181155969146 12.598052079378828 0.8785197249591451 0.03742189229188394 -1.153440072685962
Ni 6.82762951707324 6.537125516337216 7.154529275913452 -1.0939329184592643 -0.49813786776270336 0.3819031789369745
P 1.803058630203995 5.916618097524377 7.289504320870118 -0.26166759648196874 -0.5015859742123039 0.44355411897955227
Ni 1.2251458718995125 8.60427104169302 -0.15360635156409688 0.8544526567076123 -0.6477776144114392 1.496238315201675
P 6.689671443202817 4.7686849834333165 3.6905538108054 -0.05253252268107727 0.4323297110186425 -0.4240934391517793
P 8.222050590843722 6.613225482795395 8.886065346095897 0.8672102134835967 -1.0345993136959537 0.3972696340907158
P 2.5904473468065423 0.8440494338258694 9.910040984716778 0.044999190418509596 -0.4498993444712897 -0.12311624643691055
Ni 7.577865964477171 3.0633556171091962 6.848870740200514 -1.237949662494268 0.47627577758228945 1.3581199389289773
Ni 8.38160990857239 7.024509425381239 4.621188697989123 1.299319838071633 1.0060829514238157 -1.178215736968745
Ni 8.363898758846194 8.166439076893514 13.057901415894452 -1.958301548729008 0.8311587191766782 -0.4204560995095081
Ni 2.6317047874570076 3.6029285053622493 4.07848129157967 -0.14495365402697616 0.40218943998983636 -0.1839135802299413
Ni 8.120730470841957 4.8347230717999485 5.2153566260766295 0.7061169735822806 -0.5249704145745153 0.3885931893626404
Ni 6.002910858703546 1.9761304143288372 11.575102266061517 -0.8015275265738067 0.5029833687804628 0.422415280118408
Ni 1.776314233046169 0.2663003213081918 2.216732736395972 -0.2645696006201121 -0.634115029322682 -0.9882058140330786
Ni 7.286763487720831 8.447666699314658 8.613596046184552 -0.3647708901320621 1.4294071165097382 -1.5321676821084322
Ni 7.270464367355066 8.857763041047688 6.003091336628422 1.0185193774149555 0.6847426216715626 -0.25258414612346175
Ni 3.984326051683613 0.6227937842341984 11.689520594839145 -0.2467865656050782 -0.41468911511874385 0.5054950794587229
Ni 4.2093249817585985 6.0609069255471955 3.547160826575491 0.3808279435949248 0.2327524561095153 -0.8817510874122492
Ni 7.454523797165379 2.705149016575038 2.860541445012262 -0.878379856947171 -1.012279824263147 -0.030859665693333947
Ni 4.700720550376295 5.468228641679004 12.280554004770252 -2.3710029439937617 -1.139216215777096 0.9326237058924003
Ni 3.4538986251159987 3.198433525131853 11.229013869819955 0.8558785905208615 0.01147637607071572 -0.06121770915990102
Ni 1.717093160598437 2.1104041201991963 7.850893530301216 -0.5672964290362359 -0.8035715535870289 1.7562570632263108
Ni 9.22505899614038 4.883882266156135 12.666442926600324 -0.5733698889238253 -2.0760526741992633 1.2724338123140666
Ni 6.108616685791681 0.6196789035722151 3.7871384892964226 -1.4115551759299818 1.1906699035716977 1.2908675935392222
Ni 8.231252159656066 4.28621044799344 1.363329309396336 0.38327897623857865 1.3103894656222335 -0.27212864391429264
Ni 4.77472585076337 1.429796617283788 9.698216943157759 -0.4619300503835787 -0.9277758908817957 -0.31369618294343393
Ni 2.7742636457336025 2.3321020809746313 1.7441545630232738 -1.1099346932041594 1.0927039311481697 0.31648891519722266
Ni 8.472709180289712 1.1103880950041127 8.033141635031294 -0.2645906836660346 0.9020172938604529 -0.8871097806210012
Ni 3.4092467032878098 1.2601941238392094 4.095055336867268 0.8530493486021824 -0.15168763031670005 0.44930670519261334
Ni 5.472651753516644 2.0952645471227904 5.999245193079116 0.35527657748838165 3.234979481031409 -4.11519433430479
Ni 6.023268394582073 7.942085378777931 10.38875073194136 -1.2684866547408604 -0.13631320474315878 0.3866422362838567
Ni 8.230952921645907 9.369983704934784 3.8995313507927967 2.3155653318507476 -0.7723205659925474 -0.9421658410548805
P 1.8279140874227022 1.5505952615092422 5.822909844405994 1.4664572272845002 -0.05856715891093139 -0.6342052750436432
Ni 1.7511408354416695 4.7863961331595135 1.9246371634934225 0.819483339721279 0.8263651544427769 0.246520199317569
P 8.590094640961809 1.225529270600027 1.267336561094156 -0.6489122422365147 0.8319552469360445 0.61137285053016
Ni 6.980745866395704 2.425838387656467 -0.05327278187707006 1.2042116468118744 -0.8911366423922072 2.165105660403878
P 6.232014960230378 -0.3077298238144972 12.223838115538808 1.589433605709437 1.6983398791945523 -0.46871724850874114
P 7.075660422742535 6.960659514963883 0.7790194035059551 0.17079864011453813 -0.6914138630441512 0.3415152620382312
P 0.5001987768290171 6.7618906667167655 12.54902660700843 0.9356244403919369 2.40081899891393 -1.000585161534038
Ni 1.9124768788556472 5.508345237415743 11.667759445669223 1.5197258568006538 0.006872815860433324 -1.5175897842942572
