# total energy = -340890.3419585351 ev
CRYSTAL
PRIMVEC
9.08596940006978 0.00000000000000 0.00000000000000

0.00000000000000 9.08596940006978 0.00000000000000

0.00000000000000 0.00000000000000 13.29823464086312

PRIMCOORD
 96 1
Ni 6.595786919563508 1.9496128178551682 11.654054259001205 -1.616490866937545 0.6286838310047818 -1.251289574136284
Ni 4.756750350430447 0.17385730044559589 6.266992941543221 -0.9820986726940762 0.2093111943674395 -1.1765733162693155
Ni 2.8667687503536836 1.7646043070515902 4.878803087218363 0.2826639962279777 -1.7445377179068535 -0.5902725782164351
Ni 3.2863679074806864 4.478183611763965 5.179249749019413 0.22988001965772667 -0.578107660719127 -0.2058808285296519
Ni 5.032318719164447 4.730882595285678 2.5847384401167117 -1.0239438908646366 -0.4965913492111899 0.16813214902596849
Ni 6.99119922590183 6.080621535315789 2.3717533206491863 0.9335732142898632 0.289572807532669 0.37702528201938296
Ni 5.259722363619409 4.622468807302754 11.674772995234651 -1.0640104198682192 -0.700439206471213 -0.39585269913853116
Ni 5.598401876447392 7.835176760108821 12.430312245387686 0.11229807277548404 1.9837564984670029 -1.3588231356435887
Ni 1.9289967530769874 6.54624112792163 0.4300498392371235 -0.27521345348720344 -0.22259248485737795 -0.8742964309064168
Ni 2.519784661409678 1.6141497382274843 0.1498167337657419 1.1222515628982996 0.17733824100526877 1.5636333568168812
Ni 0.7639419547395773 8.918333355232882 4.505933979787552 -0.39218707736148584 0.10616110663981071 0.4112546355158982
Ni 8.515234318704017 2.642690570732927 1.570601595047518 0.30124818698806827 -0.4879799533930951 -0.21404330973578617
Ni 6.781031665573887 0.8740611791962183 4.897261234242107 -0.3969976113762518 -0.6934213803924832 -0.03184028443904839
Ni 0.9883535894407034 7.092098917114566 2.682852373083088 -1.4972004220046278 -1.1956539870498506 0.8643691444903759
Ni 7.334966881645538 3.8746480882334837 3.5584608928838564 1.3008043930369595 -0.060376444205528276 0.25303254651479
Ni 7.5278438420295055 4.039985475086087 12.84355485825783 0.9728049060969763 -0.3689337632605001 -0.42963108114055687
Ni 7.817422775720736 8.970886602776734 7.161484831739976 1.0803659784081072 -0.17174686296042035 -0.5559054135904749
Ni 7.0052824786149985 0.6924826218760088 0.37476444066691766 -1.244276118932928 -0.7259538058025499 1.0928502269180467
Ni 1.8113697920288037 6.447622015051479 9.296276976625178 0.255439870404702 0.9827805292524494 -0.17212841466955517
Ni 0.1787246543026569 4.9709520812129995 1.4019269316003686 -0.27930767816123514 0.18385727307070918 0.14717611559959168
Ni 6.299647915898789 1.8750896960787737 7.019167657193234 1.268991362291421 1.3961920632103502 0.4547818693745716
Ni 3.482842911783632 4.318125173186427 0.31570563896653187 -0.36357609849301253 0.9898670037855855 -0.07344767556718963
Ni 5.912131317049334 5.663739083067003 4.915998320529266 0.976009529077203 -0.4667524114728865 0.1527034731757241
Ni 5.493277209420706 3.086594696252012 9.259734115923829 -0.4591206059592416 -1.4319172845261017 0.5185305724864424
P 0.25500772836972296 5.561921708935539 12.496630736712474 -0.3134516710327957 1.2612040050365183 -0.5359114869670512
P 3.9108102468131047 6.413604145272056 12.63436040526252 0.0871043471186758 -1.9838904529417059 0.2502809519115819
P 2.1532203082096215 8.351332515031208 1.6689281397000162 1.64727674197015 2.085821323550253 -2.2332594345619796
P 6.641989074432194 7.759308914847556 5.635379955087427 -0.3005465329353534 0.27437244564314683 0.39547320431192534
P 4.780764567798773 0.9331290668660964 12.654281393374536 -0.20545145430171713 0.5113967896551386 -1.31441761294502
P 4.150343660540377 6.1260059529301625 8.200742565261667 0.36993572216245324 -0.46297340404642845 1.2697997171253295
P 4.636252223022675 1.0807124693306145 3.7926835574428406 0.856705714407847 -0.34727170490603415 -0.5376186994661452
P 9.306758551031573 5.225086647914507 3.6648603214303224 0.10663804627622925 0.6429786503608992 0.17728501916983017
Ni 1.3548361689153285 1.1783321255566062 2.5165845829544664 0.2621039126884389 0.7960140529547453 0.10138888206214797
Ni 1.9179482141742692 6.46697513007022 4.920785717854794 0.1248334862383334 0.06911922339516484 -0.7015972313350561
Ni 6.081757281502334 5.422842773915875 9.435230525265847 -0.6820545333164383 1.883108094115305 -1.0715627782941803
Ni 8.747508042806889 2.146914645381919 10.140488928845073 -0.3781833068832261 1.3207630955470737 1.707877900591975
Ni 2.4069187483754946 5.2618393945111315 7.165793398473256 -1.0825820122228194 -0.21988022813253746 0.5776893422347857
Ni 0.6992153252698527 9.337923426390393 9.09014176955795 0.9421938660793386 -0.7782505583237371 0.6897328757973025
Ni 1.4122322381986114 1.043151071449169 11.457626501739622 -0.2617866385583363 1.320053213964243 -0.04311791423539671
Ni 4.060928634765993 6.840081381304781 1.573407342426761 0.34440466777088424 0.909023549974957 0.5605097451317057
Ni 5.878576831714022 7.844380847204588 7.857075763779323 -1.1120129158894267 -0.517340151722767 1.4140406613559968
Ni 4.982382230834397 3.1001963925820855 4.563555381114247 1.504816286678673 -0.611922552386043 0.00031496013725752206
Ni 0.8977083233970528 7.595016414486575 6.76848212451103 -0.7100091095478354 -0.07004919140860194 0.8581830702843221
Ni 5.404461857632817 4.3649088301026255 7.1396894081216855 0.6507582943063179 1.0133887410566094 -0.3932355732306583
Ni 8.549470251751258 7.437838228238117 9.298352212057235 -1.27442461749185 -0.8221516305820615 -0.15765876029847042
Ni 4.605941428796138 0.1263404057913639 10.374418116589455 0.1987647863101609 0.1845905516923079 0.6847925010728916
Ni 8.212226322103069 6.959734513549763 4.262788893187064 -0.2668766514867339 0.07549581634547 1.6123390495527004
Ni 7.388156147053854 6.221345030813569 7.0198191212058365 0.9758187532226356 -0.7280348567012945 -0.08908435366318206
Ni 2.529879173515698 5.072923916825835 2.762202870450777 -0.696420058009491 -0.10488558236149678 -0.4168318724933595
Ni 2.3314415998024014 5.224268910660194 11.348407696859674 -0.9774537177228972 0.6654480351080089 1.8638052800216356
Ni 1.115847913357598 3.3048487694281614 4.0000426446006925 0.03846601728568214 -0.4229181878967555 -1.4599371667777954
Ni 3.6871500217889968 2.712888771030955 2.342257537886115 -0.46099751126698024 -0.6749688301142505 0.8224809888970221
Ni 1.017574067328156 3.273892871367666 8.415269573752047 0.7851891944250994 0.4540583609449858 -1.1176022370517462
Ni 3.599970144509735 3.0019043746136584 7.479990766504056 -0.26159740536566556 -1.0253911648341245 -1.122064643698474
Ni 4.05684903446392 6.881722379488299 6.262644396544175 0.35994698638085754 0.20336089032127558 -1.3259729218827874
Ni 0.8239811325481895 7.822274683429659 11.580102644705882 0.6053621255597058 -2.3237224137402435 0.08770907058221024
P 0.317214818499214 5.753399430017681 7.872834469266885 -0.7696288780929971 -0.6613610095228287 0.45970861725222767
P 8.568996000190353 1.6769156154807559 8.099702041521798 -1.3493576193553147 0.7223380634268335 -1.577485175098309
P 1.7307227268145537 3.3421648461333127 10.52544601008853 0.22067649878158768 -1.1569200608147625 -0.5889052655552632
P 4.057439622480924 6.110014646623596 3.968406207425219 -0.631853486982015 1.5425042881477498 -0.520037238938956
P 7.137310701308584 3.825174984347545 10.581033062845881 -0.5621315970058448 0.49511913554103765 -0.4663250941274807
P 6.4764517962507595 7.83405918586126 10.132723150719947 -0.004060286112302685 -1.8157683312180664 0.7238254466056373
P 2.613288373455627 8.559455732223368 5.718055008692374 -0.6982162306779652 0.2969145926097209 1.403903315811679
P 6.6070898656120125 3.9699235643304447 1.4629782864104304 1.0717414699638899 -0.08895991227017581 0.09567203418302879
Ni 5.1568873609048 2.6981422425448436 0.4674822163517773 0.6282359448340857 0.10983726993981728 -0.2277442042616465
Ni 1.3446053672669234 0.9993657844654523 6.9333806590371525 1.1231751031538333 -0.08275301212851555 -0.18088379226468204
Ni 6.809170913091748 0.7181250449773672 9.449619066553959 0.6000774801219988 0.9158374875729969 -1.034241673246219
Ni 2.914533691975057 1.7358835574862181 9.354124618592232 -0.030548562210818357 -0.8446199868879067 0.2924534715145738
Ni 6.399675354040257 1.6961596988655894 2.619220602937194 0.08898459486052417 0.4198737446434769 -0.3794845421931529
Ni 3.953050918983119 6.755500091300336 10.414791622028787 1.054118614675804 0.5265727260646286 -0.2983690656680604
Ni 8.045689587277474 7.356673262762802 0.13759519620155897 1.0086147167067339 -0.6824389132390505 -0.12199987344428022
Ni 7.708482001507255 3.9750934809716014 8.391332587124406 0.19404758334014968 -0.7836115655253344 -1.429620775182441
Ni 3.2153337979893606 8.501605364465467 12.456243602318903 -0.6660589292191303 -0.19787826994014954 0.6353000507697187
Ni -0.08656112275683168 5.048846097671063 10.096498298950829 0.5169516580350968 -0.3564263748221087 0.8754511133361503
Ni 8.870859164635265 2.2740546164886113 5.728626534196742 -1.9299335391092762 -0.9626613899050711 0.11692734401737927
Ni 3.6768283604456684 2.714506073600597 11.491563506390563 0.3306315252461918 -0.13106506897034204 0.23330344351697885
Ni 1.0591605496947198 3.4199407449879744 12.660251783927968 -0.8482149033280166 -0.07366956177000861 -0.010093379680260035
Ni 2.9747009819535117 8.466996906669042 8.159862971321608 1.0094978906426355 -0.208126430030719 -0.21213375141789917
Ni 5.620453524405367 7.880279512668931 3.6560832749006957 -0.20627163621016736 0.43062198429891646 -0.13420592859216887
Ni 3.136022370290489 8.478490658076886 3.6137417484693164 0.6986489473400097 -0.14478293277706678 -0.22000158420175017
Ni 3.4144619053840772 4.397482030732761 9.418381503439202 0.5872170792195629 -0.04618806852028819 -0.11106060082395712
Ni 7.168657296057251 6.085600646597606 11.464647230366372 1.4085665256153033 0.86848445221033 -0.5465422272080199
Ni 0.44823995016084234 9.259420649976342 0.45145820055503877 0.35075992056495076 -0.426616205573633 -0.27203839819333153
Ni 4.69227631091261 0.3240983489866313 1.4427520097234723 -1.073355865638861 -0.4530962541420326 0.7671819592144014
Ni 6.026151148209047 5.91925471713135 0.2072409695544509 -0.748336287262808 -1.6532481290622367 1.4816455049891644
Ni 7.95343973902147 8.914880686825782 11.424061113240919 -0.2098598677820579 0.1631778903444867 0.027311543330759417
Ni 0.1981023014390281 4.579583031298782 5.86519955883041 -0.4885304265799264 1.4764485341692573 0.605230742188164
Ni 8.170367260651734 8.498961347343188 2.4607721981537036 -0.45471553491301037 1.3761042913215398 -0.02689733861147626
P 8.439602708649554 1.4533916799990338 3.6020526487173856 0.5931498997642302 0.07880868276878686 -0.648079204812258
P 1.7765614429035455 3.405194216501863 1.5177412417348253 0.06517360848385549 -1.5483959710418365 0.036097002832873315
P 4.93832436476591 0.9239885815567753 8.35438994376539 -1.7325787457727644 0.9722654886537384 -0.19165311496604412
P 8.441483504334474 1.7355473766150005 12.618854289726848 2.6059601210640797 0.841887161337776 -0.26233993995864496
P 6.317092977324133 7.904320987945734 1.3209109760247284 -0.23130492502971134 -0.7677699705073874 1.0889876586388472
P 1.8651314735151392 3.0435181148887 6.1668701007220825 -0.6335028496599799 1.306575234082466 1.0685980392389016
P 6.90867136500266 3.5595375802687017 5.653957128311521 -0.37657276786299665 0.6590467595673554 1.2569971660440222
P 2.484385724267416 8.575565156133335 10.356864932127149 -0.6295765180223802 -0.2951225337063046 -0.9357879625529948
