# total energy = -340875.1663020006 ev
CRYSTAL
PRIMVEC
9.21223699054353 0.00000000000000 0.00000000000000
0.00000000000000 9.21223699054353 0.00000000000000
0.00000000000000 0.00000000000000 13.48304002284507
PRIMCOORD
 96 1
Ni 8.628190381968947 1.545315907001768 9.943567011122386 0.06776656602201231 2.19686598353461 0.2049122939687955
Ni 9.17853863230095 7.781346283945479 4.418270851821326 -0.7884691507279519 -1.2960835905225225 0.7226080292587684
Ni 1.0553446579364965 4.03990677517696 6.191182443579835 -0.4003616427524782 0.6559262116605027 0.1499577921097869
Ni 8.090776112378244 4.076083229857226 7.886486465995733 0.2856004531484823 -0.16269503717079725 -1.0150712709653549
Ni 0.23474069577024104 1.9551683309195285 7.555450256914358 2.3214693560400086 0.3637493908460832 1.4989749974065476
Ni 4.769534369673126 3.416616032316727 10.331514577912891 -0.2569539930563833 -1.2891593525988638 2.044822255430072
Ni 7.878387988453227 0.9619970604638359 3.9314391331240293 -0.7828746873593098 0.3222538427054579 0.10568493833434056
Ni 4.1154102695898604 1.8860489167443215 6.8617614413839805 0.18868657613855247 -1.3311732351368042 0.20642487395857997
Ni 3.005575229826582 7.687473588964091 13.02974010242023 0.9038162947424048 -1.49708472236237 -0.45432909810786914
Ni 3.6854935934964903 7.305875095910699 1.7914917525541874 -1.5844109556838648 -0.8586530679422051 -0.07951650746908885
Ni 5.329435709769185 3.482925714208389 8.122480025997325 0.7386961930698827 0.34961706520975916 -0.6313302674886935
Ni 3.653591616782011 0.3148180658512735 4.862402009598336 1.1982996522028138 1.9180527285112898 -0.11798586718888067
Ni 2.391478299487588 1.1723124310649256 13.130336809184438 -0.1173808866150301 1.1029729171743454 -1.2999361314993936
Ni 1.0210935607882332 1.8229174566160138 2.1308862242613342 -2.8276486060499497 0.5695952523727417 0.09331073303970382
Ni 1.4925482134930934 8.570807357725661 11.480013376345148 -0.13780238769417555 -0.011076569529135763 -0.5122830489148339
Ni 6.939403096003474 2.3134875010859752 11.864657434949162 0.3267321901917857 0.3748267317061673 -0.5612764480944011
Ni 1.7997302560990212 3.454008502280364 3.810307428873756 -0.5507724632392837 -0.9109097112540764 -0.06940615850796433
Ni 5.3257323904971035 5.217663638306066 4.909094232808657 0.28655844618637744 0.18725395745708395 1.03678320872115
Ni 4.467759910183399 3.408260533362054 2.4700393353592056 -1.215129836386275 0.9495492780031454 -1.6895587905678127
Ni 5.354750937032076 5.601528341660283 10.451094941453166 -0.5522235938635134 2.152263257223571 -1.075464941562064
Ni 5.944297255778783 7.5617081295052175 1.1138276232770115 1.2416677347758036 -1.0712735291885358 -1.4360318209151075
Ni 8.108583366490022 2.359889538830946 0.7357343864003046 1.063280226570414 -0.41954027256345805 -0.794623857475438
Ni 2.103973595103471 8.545169702167938 6.147605798921301 -1.8711745759025131 -0.813430962879612 -0.3720982770314108
Ni 8.610576584834067 5.080373670366161 11.893793898117673 0.7534160157785605 0.8810327211889859 0.32836046982382805
P 2.922139999360788 2.1623699654162305 11.085337191653329 -0.5357009136181419 0.01862944217572921 -1.068422690003302
P 5.136826258672928 8.316503555472352 12.387246451543442 -0.6516373544771616 -0.03935227654537739 0.4747380007815244
P 6.4635357817779 1.9888851183220684 9.584337671940812 -0.5214433752578632 0.7260407090894012 0.9865646788852298
P 0.7625567356356149 6.44294643209356 10.703902676418451 -0.8638047873464736 0.44590719259276107 0.8210815374463344
P 9.203282700870139 0.6747585897288806 12.450724291782771 -0.31153234252289574 0.7560210575015754 -0.2622874894541547
P 3.456127316789266 4.903959331907516 3.8239793097983767 -0.04218408956721767 0.49033971187452324 -0.5147119700713007
P 4.001878660860652 5.367509885270469 8.561123454196276 -0.491690826585779 -1.3220026243811296 -0.4343984206222132
P 0.5248045595916333 3.722849214512146 9.14984712017931 1.0632773983569366 -0.6898593740728377 0.6895428712736834
Ni 7.373124425975874 4.353362351176639 10.016982091408469 -0.0892645879947882 -1.0639772526374385 0.4417947130862843
Ni 8.680736981789735 6.90816440035265 2.0694986405962235 0.6533630789190167 0.35805671133668016 -1.3073313955222
Ni 4.097151615865316 3.1171906932607825 13.303419081521907 -0.1605985596530847 1.4805198760251534 0.7888419606863383
Ni 1.371038807526016 5.8210006758346315 3.8620682248788523 0.1947746913141613 0.291236311278021 -0.5297284980847909
Ni 8.613340255932636 6.393283262452279 8.991367164702977 0.2032385058107984 -0.25058022831955556 0.5578108581433039
Ni 8.272026875259384 2.4337348305847057 5.873967353662404 -1.0627662630484729 0.7528727416805808 -1.5909623836491373
Ni 6.813416542856715 6.949435222091279 12.135464038555726 0.127865845306754 0.38313936533692083 -0.6068777908732839
Ni 3.7263959257553094 8.473231343472191 10.831020492268225 -0.6904124183628304 0.614546106051819 -0.2283980357955615
Ni 1.8613509093601113 0.7563928278621067 9.303176513951609 0.10931327911554722 1.4775001153622231 0.6423569576165001
Ni 3.0980937259696715 1.2105063656471469 2.5949729298174096 1.4273525479735547 0.13986441242952688 0.18585553444766054
Ni 7.026974620880125 0.12039933140915196 12.82216905722002 -0.005812492916719022 0.43846719137494816 -0.2554843504893922
Ni 1.5927589275271998 7.758361752642382 9.06273344348132 -1.260455814016584 1.5198495268627115 -1.2871544063536928
Ni 3.5415523904460295 4.25027741920002 6.641853368399758 -0.08566092980392989 -0.5440477429209404 -0.18612421472801494
Ni 3.453962441095387 6.521185960894045 6.745794117193233 -0.6243713196723569 0.8137770333651212 1.2036678584932623
Ni 2.0929741841311666 8.30401176210682 3.4423283069941117 0.07385853785236313 -0.1487426887557632 -0.1454334218768721
Ni 6.328134322422016 4.576934130813863 12.130542861552874 0.45935689033976373 -1.3588737863758662 1.0231458204433734
Ni 4.711027452516424 1.3932034497365384 12.080493699181492 0.6682091427929138 -1.9479608289246324 -1.0218970356379369
Ni 4.882623791026564 5.4103191505873 0.23731090989191003 -0.8276404216107746 0.792590371985177 0.8666689962681461
Ni 6.511807903632901 1.5717181782300957 7.455730555112097 0.9990679535585631 -0.9888269925568454 -0.807602529123293
Ni 5.147217662003547 8.121443649335362 6.385608547811553 0.07755501286734386 0.950158372342054 -0.03566660016367406
Ni 7.465108612373241 9.443924755659523 1.6092681774463509 0.4682781040887935 -0.6826484581466953 0.8707146270924294
Ni 1.5353298420989392 5.648952937711726 8.116547345372398 -0.04787265531156271 -1.8287305478056894 -0.7393667367743461
Ni 3.784948904096988 7.150298837535264 4.606291687670261 0.16927654704305686 -1.2140067785254252 -1.3610803071088817
Ni 8.295822083418061 6.488860221277784 6.673943274748941 0.5010568411817112 -0.8362284203901018 -1.7520674506249954
P 6.791933606183839 4.462656330888041 6.335990518131548 -0.24361408141436752 -0.3497633609796364 -1.3237226923960301
P 6.948486361680771 7.687897351865871 5.231783233948654 1.0813072592754538 -0.12216905203229281 2.69691212406362
P 0.20468853624440336 9.097047183841152 2.753250216079847 -0.9645470369635583 -0.7955854500577589 -1.6136917069258532
P 4.561872123326664 8.620046764465163 3.142465386680894 0.7169264054929588 0.8345608028796918 -0.9045529157981131
P 6.015581545647869 2.107114967918844 0.6493973012810137 -0.9417994588543973 -0.45456949625344945 -0.34890332697218623
P 2.165806129815451 2.997597432588713 0.8924373013602569 0.4281187582610885 0.549061651195764 -0.4052025157845473
P 8.63575362854203 3.324945061977198 3.1699169317029785 0.23079250416966707 -0.46035396414571045 -0.13957644887546283
P 1.3676394920747765 6.394195273914806 5.945791480619409 -0.5687357325859237 -0.15661154998087867 0.3553547390244847
Ni 6.748636092306262 3.8865598781543698 1.9120569042292535 0.21192394939993822 0.742265912699012 -0.29857089726622127
Ni 5.657686138383203 1.5977151110306334 2.9306327606466906 -0.09377301738810301 -2.6973450978359805 -0.7196016383322769
Ni 8.562654527984883 -0.08134497389157602 6.186517366765451 -0.37179103020363713 0.6159872093737198 0.7278741627537142
Ni 6.5998400403593145 3.1783691591461016 4.398167908250336 0.1833762196692326 1.0497526243976243 -0.3076697742436959
Ni 4.072941857041853 2.8405840652420213 4.6326515826084105 0.3374837722813349 -0.37112228627138666 0.5039866132339966
Ni 1.7600070901755915 4.284316634897394 11.116281095720304 0.1789770621602724 -0.523268344281744 -0.37088394500833544
Ni 9.135978097382992 4.563263171112943 0.8144980914858173 0.5308710963296662 0.7710573830094075 0.3917376485288931
Ni 4.364509157940867 1.1026771316179855 9.145720959229147 0.321362184129124 0.5122671080752339 0.5620498359253159
Ni 1.6529056228690533 8.770906357499042 1.0378257468426686 -1.0729506597806426 -0.35119366566825966 1.5008303054477314
Ni 7.9196864469028405 5.310642746298917 3.70716169613297 -0.1578932449067797 0.08290033633965724 0.6625043790986526
Ni 6.034687725175975 9.023699352885135 10.391837226981353 0.5090745692798653 0.8877137327535873 0.5067040121651596
Ni 6.125888871428748 5.718164474256884 8.120996855841092 1.0030521350172918 0.5250485761106184 -1.1327887149841975
Ni 7.005215317097393 8.196283862684606 7.82562397983935 0.02316975324824397 0.35289933550545677 0.15892451438477143
Ni 4.501817550354763 0.101534512490321 0.791484081024335 -0.12243773231264721 1.8273454945327046 0.08780034474443588
Ni 2.796135021740039 6.21851791441578 10.133798783850176 2.0000472652072263 -0.3792482578126307 1.6742465856907747
Ni 5.209372625010359 5.714626975250717 2.599907925175754 0.48189569487222816 0.09837349227459187 0.31382859475624014
Ni 2.822905782448176 4.9678277709954415 1.5211973493245574 -0.7251068844212222 0.46239850537956495 0.17869218393000194
Ni 6.7328094691484575 7.577976940038792 3.2473771052536664 -0.3681961137635272 0.3046271307626302 -0.43464267542253526
Ni 2.8157018131179066 3.154104126900667 8.83805158928617 -0.7751374666160521 0.507930685483409 0.1715666286288142
Ni 9.030322951284704 7.827103465100784 13.08879606890185 -0.28369629414723396 -1.233572873582811 0.5620315810928708
Ni 8.449159768203655 8.611995269331333 10.673093271011606 -0.029003072100569405 -1.6132746739930925 -0.30110600498324913
Ni 0.9364975884610406 1.031365205037914 4.479955990741383 1.3825960696934703 1.0464464428425269 1.6394783289716537
Ni 4.6348975259878475 7.486241484040296 8.884123828946713 -0.14288674419561842 0.9034607111751989 -1.1349767237744517
Ni 0.23683095234445858 2.867889135695882 12.162484450886433 0.14545090537836886 -1.0743143728973885 0.6909428369450036
P 5.926047814291233 1.1994516812528717 5.137968576060336 -0.4549376782261455 0.3451184060084572 1.2756638892155903
P 8.85332824189536 0.08910536233635735 8.365875618424583 0.9768487371490467 -1.0393810513553132 0.43479179940588986
P 6.813996913787415 7.181122982521301 9.682346661333058 -0.7963022736191253 -0.8945716362156851 1.3613872968263392
P 3.26822531879757 9.056209337241299 7.784554906090918 0.6268352078318172 -0.676143567148642 0.9224616777577339
P 1.3644244213634413 6.545110140370656 0.8081831030255875 0.21951615992489934 0.0018329394436807144 0.3707754444549292
P 7.067047851809374 5.707736221978284 0.44765760209878336 1.1998096610894369 -0.3772937051894212 0.7719724386245093
P 3.7858793400335062 5.152726579726694 11.909933737333315 -0.38521373136744624 -0.4918749175721271 -0.0217769866657754
P 2.3104106139295686 2.3347309195969745 5.8983042413564 -1.5051957815052786 -0.25594946305126887 -0.7655662779878493
