# total energy = -381167.7665077967 ev
CRYSTAL
PRIMVEC
9.22546046139815 0.00000000000000 0.00000000000000
0.00000000000000 9.22546046139815 0.00000000000000
0.00000000000000 0.00000000000000 13.50239390908546
PRIMCOORD
 96 1
Ni 6.222277962988518 6.8358541223324805 4.321157774747526 -0.9910003460590804 -0.03324950608174919 1.311142284627858
Ni 5.397254246589667 6.547881369563355 8.420281776396513 -1.1254330459500748 -2.1119367896903825 3.1796004900404724
Ni 4.236368411423788 5.869468673091045 10.652808185932566 -0.7117487179467614 0.6051978320676996 0.22522220917074115
Ni 3.1018397172049346 8.4594244831953 4.5762722044816435 0.5484304453696683 0.3921279419887763 0.25757311469762095
Ni 6.9565231470391975 3.5417558061299945 2.068512480725204 0.8911448699223232 -0.7098113917147324 -0.20994214308321907
Ni 1.7383074144008488 7.549471176471522 6.407020579231593 0.9299525868181403 1.995302808543706 -1.0079236041769803
Ni 7.966480446715636 4.943850534260845 12.38629990989787 -0.05916905416098842 -1.6550990662280463 -0.9689117416901573
Ni 4.95919247524611 7.883884897923645 0.8017820134979619 1.791375504195999 1.0571088076523794 -1.8260352603617134
Ni 1.877925535189186 5.224175380188848 10.657101715297895 0.4999996035617905 -1.0712694154234776 1.0764954397091073
Ni 5.597705054604005 2.0225254047039476 3.83416692799594 2.079966407431373 0.3785265491552578 0.39805047812079836
Ni 9.13125942625661 5.892596902826498 0.8561771743141501 -1.8692418776561743 -0.48547389914178973 -0.40700871575535064
Ni 6.675838508147619 2.470827437318488 11.552999110244672 0.49196104952803016 0.6103716629591552 -0.40921497937805
Ni 6.470193765812953 0.2961483559568238 9.910405849615396 -0.15600836917924102 0.5844318031649419 0.8261463535637513
Ni 6.049162194745282 4.375294622666789 6.931643002334951 -1.1941889724685497 -0.7787370110418523 -1.13412543151775
Ni 4.7311667654849545 1.849345058236479 10.14849376925787 0.5543000167765679 0.23278536622997975 0.4765192610516632
Ni 6.593178381131396 6.96080376075968 6.730578701190415 0.8729247473698709 1.0794115849146377 -1.8764165410277425
Ni 6.421252697306138 5.148176035729068 10.495667225272062 0.8528506023278152 -0.9138410259682583 -0.7380981544745675
Ni 1.5923237257954141 2.248337003920026 4.519129701497438 -3.429734117740913 -0.9116406758828299 1.2758662350343832
Ni 2.7774632968904953 4.200601300660185 4.125440550569352 -0.49610361094149397 0.2995242623184261 -0.5744698068562236
Ni 7.854003631025705 1.0205665793716008 7.158996176018039 -1.346841023581048 -0.05631872919638688 -0.12059733666979876
Ni 2.6059527587924394 0.8475052413459304 9.90681437780207 -1.0819317802333301 -0.6997627492294788 -0.45521664291914504
Ni 1.8256540754041513 7.476590037696059 10.970559802986921 1.3210567155280926 1.216713635933627 0.26785907000466125
Ni 4.434752716262721 7.7628284038715405 6.8632943323544735 -1.1737870117734301 2.9928072742698903 0.14798652731602902
Ni 2.5517439522804617 6.520657035319507 8.556818593342951 -0.42526689063459017 2.472881621208135 0.9637854762071852
P 9.17848455909099 8.824503635696745 10.618404598246306 0.11690986051588252 -2.2030577141676186 -1.9470136345200142
Ni 0.09560621588250134 6.602828212923692 7.318243309334548 0.30307649844605866 -3.459370452550107 3.1581338355262645
P 1.039377293544154 2.1720055428784835 12.492091034287728 0.4127736432635859 0.22695590403239624 -0.13229662738459796
Ni 0.3410209963370585 1.8472047513762373 8.732767500537827 -0.8157678385429047 -0.35456181080954424 -2.471582185670421
P 4.937540319207375 1.8597144759559245 12.509239320459352 -0.5483882792778233 -0.8992153056352836 0.9450652740898627
P 7.91324031356713 -0.3357892376282528 0.9357347789290822 1.4215793929352034 4.737805219642614 -1.2824248620885077
P 4.2066993301197515 3.958322254265093 9.620145182616357 0.5816300720500887 0.9323439698684524 1.331238798267417
Ni 6.6896397972119335 4.275696549980726 4.495459937224501 -0.327624620099068 -0.2592641292467987 0.17595858704892278
Ni 0.7966498897636844 1.0386669330776084 6.551564173436668 1.2859701562376047 -1.0501904832659912 -0.4614351130250311
Ni 2.859053270476596 7.86988064872603 1.4888546498397068 1.1690752081200575 0.3671830991179805 0.6392500365564023
Ni 3.885394988186607 6.421068188094049 3.461217535052805 0.28477590036465794 -0.22179184333295351 -0.9944019155414616
Ni 8.026824184529598 1.470021794561703 4.649279732067389 0.30304358832559425 -0.8928477115460429 0.546282031568098
Ni 0.2571698623567971 6.601758059493571 9.655575564067899 -1.0615416466127525 -1.5100937330275284 -0.9147064592923472
Ni 3.3296624668327914 2.5687003488715123 8.36875665637438 -1.982955342721946 -0.6743481658111161 -0.14045962281136454
Ni 1.7239064703972413 2.754159783403556 2.227057556489711 0.21093638867568837 -0.07098455873867775 0.6344415594241654
Ni 7.439088540338811 5.373231147175579 8.27243085456473 1.883977384094136 0.0674336081626258 0.9075135410883338
Ni 3.446558278152272 4.7848404952818715 7.716078382258292 1.5579643314565619 -1.289080162621496 -0.738260905304677
Ni 1.7025126272554312 3.1381050028411805 6.630120815576012 0.6040858299504436 1.3815138923728854 0.332717204130627
Ni 8.523255445117758 3.4461062305826524 6.559544196859551 -0.35809270678093813 -0.18762008254725107 -0.025565250063614035
Ni 4.7508169965725155 8.579318569211239 2.8701367388468295 0.762944524094286 0.5105593813555077 1.907674984821392
Ni 1.3114453522311404 0.7357000391880067 0.9136204273140616 -0.29714393501170755 -0.12072152095248886 -2.517834788880057
Ni 7.1486802659701 2.3636737123973477 9.08777245005917 0.6313369523569128 1.6552718443604848 0.1841552639271022
Ni 3.0466806882506945 3.4202657154294784 0.5920909841421675 0.821628668199056 0.724716590961339 -1.3285406826099635
Ni 3.4424898500256926 1.7093855954057757 3.7280787437746183 1.1752332573016535 -1.539852966567832 -1.3048963037181462
Ni 9.193070012306686 9.321128630957599 12.64584256072214 -0.9267042550841719 -0.04949810673012766 1.4355376548875083
Ni 0.41432189357002625 8.618785089677244 8.425615015171967 -0.9313522953791444 0.9503270367094344 0.6567931876464881
Ni 8.159726169997867 5.770451804423064 5.696228361129647 0.10637785063630711 -1.5240869619828268 -0.9483354602007024
Ni 3.4381538835415824 6.16771858897357 5.835936891431908 -0.36022980772859897 -1.373755588583705 -0.8758200666397948
Ni 0.705089960902312 8.971649732338344 4.480526684144014 0.5205100648103165 0.18741773672845788 -0.9984352050705707
Ni 1.3670933305974187 7.358439563734367 -0.17161386325682615 0.4675293988482271 -0.28989625231035876 -1.2811488235895614
Ni 2.0305515554298528 5.584466518636564 1.769502386888868 -0.3615603536145644 -1.2596991383562177 0.7196839136334379
Ni 7.642685230419279 8.421867633074424 3.7483590738214665 0.3402921882644075 1.6185953148750574 -0.48940948675077
P 2.454221608230408 8.826431756963082 7.991202836043546 2.0288814158300994 0.7945282124378381 0.19216630715703678
Ni 4.133412271077691 8.197947253282265 9.618754905703263 0.0886925175414021 0.3479710449659039 -1.1626569632985397
P 6.508285692648888 2.3654634517546187 5.85388225739976 -0.4069099853939573 0.24104966312130094 0.8459237933009948
Ni 8.391801856964394 6.226982947896808 3.4744090211711645 0.8707279968288681 -1.1226840224500279 -0.5786529916996357
P 6.755186694806829 5.29627235481293 0.5315147647209716 -0.9455391284024878 -0.11278272572138642 0.34095373310780636
P 6.59598292115516 8.678981220121534 7.982872245117692 -0.7581923541212814 -0.05036148317168746 -0.06012833275046418
P 3.4644464462643763 6.807412027288842 12.575495655974732 -0.25015702473920787 0.015224530259238296 -0.08750492499120414
Ni 4.136844142422561 3.0597070386242327 5.915088575780243 0.6656285265499311 0.9080791837838168 -0.16956759592091442
Ni 1.0462502616944984 4.392472430312348 12.947769745201619 0.5730852678038711 -0.9023381675349814 -0.04726716051707988
Ni 9.067539169861403 1.0712973872356861 2.476716971368394 -2.216350574621783 0.24387581971618646 1.2768082872326785
Ni 0.7455150067251226 7.682622249376113 2.039037134093862 -2.6325365860010272 1.1503832881375091 1.696367328849214
Ni 4.118098006474239 5.770636313635152 0.8829577639029212 0.617067329811776 -1.1605401740658527 -0.7978181960430195
Ni 4.488103554938482 3.5745061912759306 2.4021300449271603 -0.5637367367094356 -0.08944893609145241 0.1499372232844966
Ni 7.278528623978284 7.234477049591849 1.6212999750080537 -1.9069987846899739 -2.477466926585972 1.0799039511700241
Ni 8.712377387509784 3.5261094249447815 3.8619410996918146 1.8491319942801767 0.6688940846750803 -0.6307525406083524
Ni 5.897394142340833 5.483392372253782 2.543324796932805 -0.25201644654544986 0.5972569799540682 -0.5870530428378727
Ni 3.1663718141333352 2.90384288171139 11.684093827980522 -0.3019992062214799 0.23356389626721713 0.24856345499984292
Ni 5.320784403639058 1.6813678715499423 7.730687821671561 1.7532606996021485 -0.9102993313635871 -0.646305400741287
Ni 8.62418198413087 8.14092468128592 6.0912671969441705 -1.9257488116039672 2.004032732217536 -1.1938642421392793
Ni 5.429238918505431 1.1974924628444918 1.6911477823367613 1.8062629628307925 0.6566435494425014 -0.8550149569689856
Ni 6.622376963944603 0.06955167004330337 12.446317988952494 0.10289040630833893 0.35215011604425805 0.7148286424236657
Ni 4.264340007976599 8.660078251342936 11.829433579435763 2.3206322048506935 -0.10165756234250234 0.18310959627140722
Ni 8.524648489669037 7.069138344638195 11.78575379111169 0.8124246331022847 0.6027581122779554 1.1952801486501996
Ni 5.560627928434564 0.27605530276024665 5.486805792677443 0.48803883165548845 -0.4739885242100095 0.08406530318203587
Ni 5.35856266481444 4.177556100070171 12.441038257848545 -0.5388394592471236 0.7071238175802402 1.2184362750516886
Ni 2.3090036328551458 0.21203706398751582 12.22234041130459 -1.6708678990265289 1.5384488871314537 0.6648615664769195
Ni 3.477205258280385 1.0300226764912022 0.6095732319876742 1.540383385150005 0.2865856998798871 -0.5634929961297457
Ni 7.60501767477115 2.136395264945156 13.833743312176148 0.6713044938887857 -0.9694413889413821 -0.1368698485775772
Ni 8.66621318264492 1.5690294377690792 10.892111098736649 -0.6174601943748205 0.7452316801955553 0.0827560974523091
Ni 1.2701521905654476 2.860464765949083 10.289175585653904 1.1913831275886386 1.9017989856565893 2.0164707008705727
Ni 1.2328997806445208 4.507652305959393 8.583958053349237 -1.4763929983409734 -0.33541377712618364 -0.9402079459975614
Ni 1.6558502475179258 6.4146657184345335 4.066623626485431 -1.2856806500216438 0.8213795283027274 0.07647412109833926
P 4.702696994059501 4.805127283151142 4.790770621358436 0.48511574447142264 1.0437295581319959 -0.4738687108026935
Ni 3.4608485166286256 1.0839085918820226 6.512717603923284 -2.2907359315118936 -2.9330424955064327 -0.42224121643438894
P 8.412457663257845 4.15823798556437 9.74631165929729 0.43613725769019074 -0.6173540078142593 0.6357973021211115
Ni 6.216530501031922 6.85924066496486 12.414074081593746 -0.644146188306439 -0.8282983669097477 -0.19429646612616214
P 2.0234018234613735 0.24339809476641586 2.786137997496896 0.8181319678997071 0.13385085924559528 1.7241390996458434
P 0.9345391592347405 4.8193621688638695 5.284080908624098 -0.7230602863048387 -1.0146820059467365 0.399419333443867
P 9.334413294228064 3.975527738292465 1.7427946784388724 -0.8372380926015388 -0.22469513302267755 -0.043598453416241044
Ni 7.237761313567046 7.373135722477318 9.884238753156826 -0.6383709763855586 -0.290302486609842 -0.6352645695460931
