# total energy = -340863.4206259803 ev
CRYSTAL
PRIMVEC
9.36049334994094 0.00000000000000 0.00000000000000

0.00000000000000 9.36049334994094 0.00000000000000

0.00000000000000 0.00000000000000 13.70002819080735

PRIMCOORD
 96 1
Ni 0.10711774225656985 8.117522840719895 0.3308691043587575 0.8743671362433522 -0.4185257152560147 -0.20096950727096358
Ni 2.490331187225492 6.393619492480883 -0.3383659235217208 -0.7684639112506185 -1.5208669123836323 1.1561528436314346
Ni 5.656639765726496 6.179385880066423 12.122511034652732 -1.4413408918328467 -0.7181037136305116 0.3020735111028411
Ni 3.3192964826082236 7.1726652765687176 11.27732868445687 0.7489045010614522 0.530586475209712 0.6929398127703744
Ni 8.683888854297443 2.4534134012612925 5.057913590420543 -0.051167781123066705 0.24847937992646885 0.21978124066082794
Ni 8.239312220329479 7.001789469576715 5.33170895837983 -0.28176976654848246 0.07652631449251338 1.4224378842807568
Ni 2.834179551730791 7.739826932085148 6.682791342946101 2.006053105081674 -2.694439237043095 -0.3097924770136536
Ni 4.654084120266159 4.866389471040501 10.019214720325799 -0.5448509555485263 0.5576547921814138 1.8816844742949013
Ni 2.042731113889771 7.313578144191704 2.0596071474381623 0.12539167273464855 1.0671204262521106 0.09456208894830166
Ni 1.6007379760998295 9.053235202820611 8.884303570307504 -0.1901855292815821 -2.4052071006792963 2.0667239405991698
Ni 1.6374030287422658 4.995760850302975 2.915421146036186 0.8694475874545478 -0.05949044205614915 0.2521771404930302
Ni 0.2965731925955146 7.212728188314856 10.707626591032051 -0.05709443102014683 0.32115366766274367 0.11363761752251396
Ni 3.04226331998235 9.194082546989808 3.748656698507373 -1.1636455524640539 -0.47912121745088454 -0.3202275563040485
Ni 0.07347519293255139 3.3905672793453974 -0.09469449541790723 0.13270106191186823 0.009085250130719836 0.3950623420267519
Ni 5.931613619804669 -0.3642823215945095 3.698555593640542 -0.14861696181117628 0.21381319600285112 1.8883845120228961
Ni 6.448163087514704 5.168031370811374 2.22983052804028 0.1499721902874901 -0.3700053990581241 0.6536698115261581
Ni 7.736279305087068 5.1334911501704275 13.771953530004314 -1.5909022198351632 1.1722960290502005 -0.23551304957378794
Ni 0.23755247356912867 5.610324044390071 1.2903168695703808 1.108095840223208 1.1220129645249324 -2.138806874608349
Ni 7.4681760531634875 7.24025739940023 1.468300099199964 -1.515465538862403 0.606496239164149 -1.1156656821506656
Ni 1.6534281934407216 9.192238529790277 11.385641761720445 -0.7988636065883984 0.31510360481392186 -1.284738854933665
Ni 5.359855962029512 7.493393222379399 9.349337562598175 1.411963210001678 -1.97568092054772 -1.3817002973520784
Ni 4.408811111741839 9.01038286404168 1.8826170661581736 -0.982401548646476 -0.38347052342409443 -1.041454388944574
Ni 5.936808693640911 1.8534432163826615 11.786065884376407 0.9952827754845182 0.24133145602777792 -0.1852929770759712
Ni 7.50179894545137 6.8322054106737236 7.721486917369211 0.2813401352102316 0.5093810447766904 0.20579212547058753
P 6.336932344458776 0.6717604889994288 1.9897095350825673 0.8081931115194403 2.199626834109199 -0.5810700857815606
P 3.5623042517300743 4.987823151900936 12.077506718441454 0.9086252860952739 -0.5357770182717161 -0.035317958575003694
P 9.24984300616545 3.991398629616702 9.85692342182968 0.4757242759541936 0.5010892370815435 0.40110546289703825
P 3.9684466998032595 8.910918261187831 9.605405092109796 -1.8839946104853167 1.6558333732909094 0.9016288001727827
P 2.8849976703919564 1.9700936851163968 13.208977887135752 0.10811283104954283 -0.14189944058168466 -0.24683695922703944
P 1.1423358933820889 2.9557349190054087 6.621209592925849 -0.8689143406588972 0.6847945579554207 -0.9752582527334752
P 2.9611265632030195 6.073808875023269 5.174939414939564 0.16835017857404552 -0.2882049806508649 -0.26424487029084165
P 6.96285917753181 9.133323584339296 7.669042881004703 -0.3806734202949315 -0.027765085928410246 -0.6713993675954372
Ni 7.455810841383896 2.6274062525550397 1.3459621946772204 -0.35530614517473647 0.6095080294072792 0.15855916062555275
Ni 4.357833864692897 4.465928842460284 3.5147828988439063 0.37701602604800233 -0.30615359470948567 0.014154694233827236
Ni 0.175495210484227 1.993157940850623 2.6310081704148325 0.5874837026173881 0.4907004376480516 0.7270202993938512
Ni 4.0957868519982314 0.17759757730155942 11.848085705487716 0.7822115998540141 0.420300033547618 -2.089988824664381
Ni 2.617484129552491 8.64527681902809 13.250996205952864 -0.09353596167663246 0.6259620611982446 3.449214337952711
Ni 8.91174198460691 6.69318336271726 3.1376214743822204 0.32068752665960254 0.10384762801528567 0.5517559101984755
Ni 7.974840839844568 2.650142891020313 8.827558387226325 -0.2961455756541803 -0.3140108859703753 0.5011946523111562
Ni 8.46147417065258 4.3644985359927215 6.91815814130665 1.204193134869113 0.24192949462309304 -0.18639238078773704
Ni 7.30123165339891 0.6317172342894266 13.647338217437685 2.8336953264646616 1.8633311685986942 -0.02984099462083248
Ni 1.2737291392186674 -0.20204905815746246 6.640951809552902 -0.15720830302461314 1.0697002711641448 -2.9454290420962437
Ni 2.848145407881548 6.8664741770061095 9.119492519293479 -1.1480991200890225 0.5372335482125844 -0.7969962143623563
Ni 5.177298259276018 8.443436499873417 6.409257132752637 1.4354684922124696 -0.19984927762359128 -0.39225726847778897
Ni 5.004484830150498 4.169697307873819 0.2244768003405815 0.25683135143558994 0.7143596732070471 -1.0345592044866376
Ni 1.6962430902460583 5.280460257022327 10.925032474659307 -0.015766518805637363 2.0625032176496028 0.8877006201274646
Ni 5.116015108995183 6.076251963800311 6.307630255923703 -0.5558249380615266 -0.9721035091545773 -0.036662645528356214
Ni 0.4650143352545335 0.998352783924352 0.43829012660144295 0.8724388088723878 1.903431636164006 -2.0101447586525443
Ni 6.807989814251466 4.182848801098895 10.902551377663817 0.13839939784822614 0.7986260366562956 -0.31637604376844225
Ni 4.545090535132504 1.020349943411134 7.543153605286519 -0.20077101810691228 1.0417392671748444 0.6377024895636243
Ni 2.3864671524742858 3.7993868285305914 4.663927615124159 0.6092041250136153 0.7846117246550746 1.777413642699268
Ni 9.004757207509103 0.9917349150915201 7.335104470860535 -1.563522799380946 1.7542186926400434 0.899971724185334
Ni 2.221731829151785 3.753698260251875 9.28709870594134 0.2744601202609467 -0.16530522110013468 -1.3177078536605178
Ni 6.5175337040919565 8.527755824408283 11.229981436747918 -1.701850720561288 3.31309653704981 -1.2244886518933558
Ni 4.801202995012437 2.4731921238125993 1.8244191345015275 0.5446031012037782 1.1179246533881715 2.31900263966707
Ni 6.63946349110252 4.629400499173969 8.430819490821404 -0.8580079781590383 0.4344786390408452 -0.032390500515563574
P 0.265413046120813 6.3954447886936165 12.950513135264742 0.8927502667362301 -1.8521970063587458 -2.012754171250933
P 6.960032308525424 6.474550318405444 10.514442856172431 0.8022088689115474 -1.0888143662857763 -2.4053096876954316
P 5.317546531867702 3.0000287737677285 9.114149549661539 0.2963954868814573 -0.7197841866567282 -0.42245024712140145
P 3.4831800010314486 0.403871592374678 5.784261668772766 -0.6753802066200563 -0.18670219871867202 0.7008115022089673
P 9.305537941887302 0.2984995821369528 4.555328106762586 1.4590632488132742 1.289478169390863 -2.1278015246367805
P 5.473979097545617 3.549152758504998 5.404551381958634 -0.6516368402565293 -1.1665100184960426 -1.0043029767052574
P 1.4759906805762786 1.5835053077529506 10.069630337770825 0.4233082242463226 0.5688784288113751 -0.3909825155304234
P 0.3284550331112507 7.527521581310807 7.618188256419283 -0.36511670350725506 -0.3073509574516965 0.5384381100436468
Ni 4.243963462498555 3.536225917121489 7.079393576147402 -0.7545925525851649 -0.07259818308270079 1.1632074364853708
Ni 7.800557813255464 7.234481974973274 12.288322814716073 1.802044810984387 -0.991135586085364 2.4937219549922536
Ni 6.927420349524595 4.8400022401497615 4.799599542493251 0.43778533481657506 1.4814025357404228 -0.40775330723085906
Ni 2.3875155277349327 3.923076388300097 0.6521362145891996 0.5071408425922622 -0.2074170626685202 -0.2275400586706404
Ni 8.45142100074245 2.6281550920269297 11.401916851592643 1.4524040916255438 -1.7860198963110403 -1.0033053886786785
Ni 4.470712054586984 1.611118763278911 4.260284418788407 -0.11459766744293812 1.4091198270156118 0.44608254182836077
Ni 1.608198289338538 3.143908917798081 11.543013184886243 0.013015438423061456 -1.7856424583669634 1.4761158334201867
Ni 2.1115401008631047 1.585021707683529 7.966415459736461 0.7381441772211546 2.0231583973033933 -0.8539752028505614
Ni 6.981617606302666 2.5263503658234225 6.644554663462034 -1.417961336566642 -0.3849270533649629 0.16952028762274673
Ni 4.976824572157546 6.7412026938522365 0.5752098077405732 -0.2200769175243758 0.5583495042555933 1.1729999970957603
Ni 6.16074913770975 1.0453799027590724 9.271507868136581 0.2534698911625247 -0.8730502172041416 1.1808079231759534
Ni 8.779637341272036 9.233864643933988 2.115449042906373 -1.3415494361648057 -0.15410729550178623 2.5631096015574566
Ni 1.0369086562333116 7.9822356296294865 4.484238903597345 1.2601161712889783 -1.918028303031258 -0.07228476560734003
Ni 1.8629721986624677 4.979005567119426 6.927693675931834 0.7716716195546388 0.2292380151983536 -0.477752619238132
Ni 3.9173009638731418 2.527894847234197 10.795416786519128 -0.48350314856866405 -0.025494287616362545 0.09459345640686935
Ni 7.640118956402934 0.18042538235728575 5.512343079739905 -3.8592728962779788 -0.38291696491346955 1.321788965708427
Ni 1.526949206638424 1.7167519312824582 4.748511841622205 1.3000837128208513 -1.4292335670463514 0.6159363015311262
Ni 0.6011467988988389 5.723782584874874 8.757701961041684 -0.6387869808770547 0.13876500871776104 0.2456149138944802
Ni 6.551512295128985 2.532855908735471 3.6814034255368915 0.5692851773314904 -0.018805305631961162 -0.020767828674970686
Ni 2.667506606274773 2.361474635099942 2.6540930192345353 -0.7125676143036309 -0.3665192402817365 -0.2700547921043994
Ni 4.300603808053669 7.078479991991696 3.549951208591901 -0.028558271253666945 -0.8154307669184602 0.09055399623017309
Ni 9.274535987751037 4.7898393560265 4.63295187036941 0.7900925452639876 -0.4208098833045011 -0.22398345166763362
Ni 8.41594473076164 8.864321725049447 9.271932834536878 -0.04501770236127086 -0.06281513555400796 0.4100295048595455
Ni 4.942668131745942 1.1989107154834124 0.11340050542573075 -0.3278151388433193 -0.9341005475482429 -1.5416612234211644
P 3.473201715068509 5.611690676426272 1.7761817038703642 0.40620190358333913 -0.0771300095147833 -0.3090077763288291
P 8.943811034990619 0.48364358921648826 11.982277738850485 0.016307993131404172 -0.6291957376441937 0.01892203371548354
P 6.145070311267044 8.450934255085722 13.42500028983869 -2.931662070219138 -3.631412735263759 -0.53304984914854
P 4.0128528804863635 5.485436341465541 8.174820292911594 0.08997266980540633 0.10881911308794807 -2.531683007617059
P 8.931604951598803 4.028381939034692 2.4308780134040893 -1.0421084775888054 -0.36805727419281775 1.060946950451547
P 7.231336849191335 3.3241826601623083 12.933730706650339 -1.5119670387908415 -0.7479704192829569 0.18800831912460525
P 6.691329985024332 7.047244025520465 3.829651175787044 0.4685871506887801 -1.8920899858989413 -0.8231854711632146
P 2.000655696062926 0.2207232424877306 1.6881855775285168 0.5772936494582639 -0.454848718056765 0.538416512777092
