# total energy = -381165.8471212706 ev
CRYSTAL
PRIMVEC
9.28740596303798 0.00000000000000 0.00000000000000

0.00000000000000 9.28740596303798 0.00000000000000

0.00000000000000 0.00000000000000 13.59305741229681

PRIMCOORD
 96 1
Ni 4.00276057526997 5.709219282564672 1.7544290884824076 -0.8507579814648446 -0.7956427856582555 -0.29781782115028066
Ni 4.957673094477252 4.918777437778618 4.834792353260931 -0.6828670019154046 0.14879539637056954 -1.3022406112628542
Ni 8.774982744972075 8.496509160814524 0.9781458942782701 1.040520821386711 1.3034099489806068 -0.6873674608889194
Ni 2.935442580173586 2.2771419492146947 9.700427253401157 -0.6111455650107023 -0.31258006706111974 -0.7962963600818543
Ni 7.78327352284216 6.061351284410109 11.49547202618979 -1.7085643851360381 0.8018792534862705 -0.15105308205649468
Ni 6.13168481071831 9.132417855694044 7.08203721353614 -0.16657226073801634 -2.303130191411188 2.099244281824378
Ni 7.355142676974538 5.180143619921155 2.2028231969539176 -1.5020297250724712 1.0189202123978 1.6576053775896678
Ni 3.0428235693688106 3.196780900097857 5.155153067618222 -0.40740440853187254 0.532175931184019 0.2476193459190187
Ni 9.429039031348522 5.790177601438117 0.9620183136055919 -0.5234650336735823 -0.0766219595301132 -0.8133420027102314
Ni 5.516524181040497 1.794494029607583 3.7168180591360476 0.10564097247028259 0.7298174025230142 0.8887051501325791
Ni 4.571437737474847 8.550125356163427 -0.19907740698819193 -1.5874278881333177 -1.3110042163880968 0.4723522741581671
Ni 7.739158343921791 8.674539448124959 10.195296470680125 0.2609960243362408 -0.32997229439563813 -1.0813643377656343
Ni 6.405960487323861 0.24205302118150293 0.7373020933694898 2.641949137564179 0.43862608555031557 -0.6007544515843654
Ni 4.875674586121894 0.10770326218649535 2.2988716932399553 -1.6155619273653727 0.3141049883460784 1.0825408745722387
Ni 1.7358719223769778 1.5530957705553194 6.741381659394261 -1.0143989274886787 -1.454699829638256 -0.6692905487825506
Ni 0.5181787490798818 3.6467185754612754 10.419554821796066 -1.1646742508388843 3.420021775549155 0.7893947478660147
Ni 6.169270943158466 4.869154827047768 7.135213185836449 0.09199252844891254 1.8864759821462738 -0.6234884028467714
Ni 1.2073627915048588 2.5407835458489134 3.4852328733568916 -0.8038055239747061 0.09459654173066288 1.4985276254564837
Ni 2.4842975420186626 7.576155079662547 10.325082398323245 -1.5144928905364885 0.5858333114981589 0.6911950621651257
Ni 6.114883893104216 2.234856389293759 12.901578806804263 1.476224333973593 0.9474342885426715 0.666670080440568
Ni 6.904387709875332 6.459093737556162 4.540339786928117 1.0312741059774626 -3.897570763416913 0.2462818580545178
Ni 0.2794933413460686 6.85261042093195 9.449676576417776 -0.6406322616159096 0.36187479953118973 0.0767703121825194
Ni 0.5906669536006158 9.712026294865083 4.7488429823555265 0.4587449677873777 -0.3647138116418816 0.5131330556199549
Ni 3.834797836159467 8.69215765747484 8.672642959801689 0.31393478131680125 1.1987521663591998 -0.20070931163104141
P 8.057883546066897 8.559171289693625 12.374018848834387 -1.6073166566374446 -0.23983918775296756 0.835663291915251
Ni 7.329277251018068 1.9090820459274827 9.813114137694743 -0.6143447886742903 0.4753761485861555 0.5598230034773262
P 1.9158061279355558 5.542454618839586 1.9422167246294202 1.2637622526819978 -0.03836702981397263 1.303618208336671
Ni 5.168608661559238 2.3470575422489146 1.436582474953274 -0.1014924975195478 0.5136115379182703 -0.168293100083865
P 1.0395115012674179 1.7764114499532757 10.749960794578675 1.3889538935906982 -2.016477385738792 -1.09453224260616
P 8.401554720965711 1.6191849522810775 1.2366366954958072 0.03451860260215991 -1.416352083097993 0.33577681689255723
P 3.919136770849126 1.9199297362388494 12.669545039311032 -1.2186514763862886 -1.9213709942512456 1.6176890010107041
Ni 0.4425560450042794 2.386306120378911 8.616489445109405 0.32782696591786126 -0.21384919144710912 -0.8125015090868073
Ni 3.698514439216834 3.814003333927318 -0.10119929170271957 -0.23551279246347182 0.2979954843787255 2.1290407963605205
Ni 2.0814934525543767 4.393481749413119 8.651084104048454 0.3482978321777034 -1.7168777900977399 1.5851483480705217
Ni 2.610699138883133 6.515013209615015 12.744402461124942 0.9883652224290786 0.6736071738800334 0.6330302808989356
Ni 4.567750637257713 0.7138969012858637 5.606742043784175 -1.1611338417857937 -1.3700776255114855 0.45692874051424537
Ni 1.197165219619687 7.615951614751765 2.9749632793019756 2.000339342526349 -0.6773722973494204 0.4372785703834856
Ni 0.24019739744502086 6.651770264268161 4.974039361486405 0.6340579508325016 -0.8147285986451129 0.3282182878190089
Ni 0.23199940409070285 4.750192442460185 3.25083453227353 -0.6549805599177817 0.81869761059519 -1.67354158920395
Ni 0.5867458107500516 4.14234100137402 5.305805010520372 -0.16563020853972119 -0.7534571534291411 1.7038698078738461
Ni 2.8720467462134924 1.549213634810327 1.0866497308695942 1.298741339860344 -0.019132864174708983 0.994420684594539
Ni 4.750666100170699 4.806158351549479 11.448793523188995 1.5989677704521172 0.03367990875094845 1.709925527149623
Ni 2.3020507723440486 7.0286903529638005 8.02608904006353 2.748675115568524 2.4351373125798257 2.3011766672292433
Ni 8.021922709692229 3.651325128881171 0.8778576971128325 0.4564703128205881 -1.550254107296498 -1.4741080589615387
Ni 3.11218191803772 1.231621496208018 3.889286118940081 -0.5226859894157126 -0.99865374883928 -1.0865209422659095
Ni 1.3678584561202085 5.546281030148047 7.031090218697069 -3.948328967806387 -1.0591597766441372 -3.728558525778837
Ni 6.607738672002588 5.565385224472089 9.700441184510291 -0.37521753938668284 0.7900807181894458 -1.997029561426825
Ni 8.657227723175996 1.9749204676888514 12.121241659842495 -1.4632456623257382 0.2856169082087146 0.6598283749283862
Ni 5.018236269580353 7.1347339556822815 5.72016263315875 -1.0596904523366266 1.2140543439339093 -0.4494902819583291
Ni 2.4782700154672272 4.377256650976511 11.757111258071328 -0.24130625921679735 -1.9359290945710785 -0.8360679835528374
Ni 8.014641383318846 8.305894438254171 5.3445864321241165 -0.4198734875331608 1.0631190184022012 0.835570989311761
Ni 0.9735987802573411 0.4911375375126084 2.4616074802038512 0.41224965243931583 0.8915079096886969 -1.7991065542916695
Ni 1.5639898978971285 2.3844579265672996 12.88933150439536 0.5203136325287943 1.740629383991383 -0.9256282484111735
Ni 8.544812959880806 7.022811424909781 2.747523991600726 -3.5792021146984743 0.4966440568259963 0.8326065073667984
Ni 5.230407061672111 2.9708647469951215 6.080500987023984 -0.22406469852753025 0.09346859877380677 -0.44193663798078725
Ni 7.758206813809302 2.751078281910794 3.1940968397382807 1.0872161685607211 -0.7268405792828773 -0.7287429385119126
P 6.619923748790698 3.836339545570158 10.845343383848167 0.9896466602446634 -1.4335694754175439 0.3429134279373385
Ni 0.2629097490344449 6.9276340873148445 12.470733252136972 1.3553210360276013 0.409898635708636 0.2596297401163335
P 5.418216987593735 6.532315647157888 12.701611666312791 -0.16884974391828342 0.34609799631290716 0.4939099457242849
Ni 8.933240144720097 4.458540029063054 12.508386253900964 0.9548920303722974 -0.4123177866730899 0.19353361981820863
P 6.321760863725529 8.226561415446215 3.919204568913572 -1.1717740951084594 3.172709162237278 -0.25451915836264555
P 8.219493699412865 5.530678187919369 6.338347242258979 0.12558244858921597 0.16148507602309609 0.6347634615399584
P 5.821680482890304 3.8197522382960987 2.9015472629130006 -0.8572276483495881 0.7593979443936083 0.3938063581324637
Ni 3.292181135438918 0.10367717164713107 11.307684390042777 0.45114144440850695 1.802846480950076 0.855329659995927
Ni 7.189306753858301 3.975074817720155 4.997446411051247 0.5914730262824394 0.1562410540153374 1.0015053593554621
Ni 6.934738952972546 1.1593190398090538 5.596615056185276 1.681710755278304 2.2236635633434285 -1.399260674833345
Ni 7.235623048021645 3.0510614985693087 7.662148101376567 0.6189838301081986 -1.219458545668616 -0.05471127549995094
Ni 7.825206161331733 7.466025018265126 7.94269556331368 -0.08083908293525434 -0.3423750389353652 -0.8493479884911953
Ni 5.3714548979381425 6.887744678164742 7.919084190814889 -0.3213331306634014 0.4735758621526231 1.947208267029324
Ni 8.220626762955662 0.9453093413117735 7.792410472952026 0.11246365181907084 -2.1112240798940736 -1.0409234561417686
Ni 5.460558271951202 7.255553821487563 2.251390758353114 1.5579221653647168 -0.4996573897310233 -0.5335113621659909
Ni 1.1691822650750399 -0.06188291550827711 9.200664501854162 -0.30573424778387986 0.7993387464526039 -0.5435970285367671
Ni 3.641963423543964 5.35823891907421 7.166844233492657 1.641728044237779 -1.0671705627637555 -1.383824285673617
Ni 4.81469347774481 4.05238318600082 9.053778602120897 0.2754980746071578 -1.2184858973427015 -0.8438288584451789
Ni 2.8540198909957164 8.218100588499592 1.528212952163013 0.30198223694061543 0.03211359270509308 -0.5070804216679718
Ni 3.5742489457527182 5.724432053737633 9.868709479281105 -0.7156755638049932 0.357428590834378 -1.6046280540616882
Ni 0.7778611244985735 8.110868197801782 6.8762385107616995 -1.3898522370352515 1.2290996683028057 -0.6364511336550265
Ni 4.917913709012388 2.374650425737845 11.000399414717483 0.5676808089588481 -0.24681201952637496 -3.2078671981956495
Ni 7.33180342547414 6.925962354218914 0.23535401516986867 -1.3595319887851554 -0.7074914853323041 -0.12919613408240332
Ni 1.4369103203881979 9.592311630384332 13.48288591254889 0.6330922444851226 -2.2396077453775107 2.6622297421900862
Ni 4.843168664812148 7.452418968345475 10.752285432322626 0.9924859294656714 0.1342236692039817 0.018107765344304298
Ni 2.3553047588555014 5.412384496570158 4.282424804888067 0.8351323591124455 0.45595352108516957 -0.4500502682268572
Ni 1.2274978879047245 3.4925011973617512 1.3878105906201306 -0.4058239514186301 0.11514994040198234 -1.094006452009677
Ni 3.2575762603531713 7.712577787696507 3.979680442399441 0.7979472654217161 0.7361546575949515 0.7173619503684807
Ni 0.5857938516259805 9.234969393723249 11.629241322304265 0.1305297652921623 -1.7758586395073221 -2.8485107942109393
Ni 7.905458637342453 0.3221568986948061 3.0624478584338086 -0.7405551006554923 -0.5775415038030117 0.25790298723321387
Ni 3.2255532841600267 3.4597630908997927 2.6698534144826094 1.223847161654615 0.5682490227574923 0.16941975748914048
Ni 6.009397534751045 0.018701120899801412 11.814161007451151 0.7768045699058299 0.9460088689500546 -0.8681599789913758
P 2.8244859396342896 8.549846733980772 6.346571240350345 0.9528402900495915 0.2004390886887903 -0.4609512314100771
Ni 8.736003501618645 4.737347959839791 8.420831661042998 -0.1277115791170768 0.5147628779138941 -0.4242824152341338
P 1.4197750561549176 5.782701239536876 10.828718926949755 -0.9523826336868824 0.43271666204441606 0.2806546791074328
Ni 4.992528729527388 1.7544560219600642 7.936360623620716 0.1099542551336558 -0.6757936400083909 1.8688790950001168
P 8.973584636768535 2.226107652758393 5.533489485742357 -0.5947123591553435 -0.6545126191424275 0.0866366634536379
P 3.2162844528837047 2.8655827115758976 7.320949233978511 0.8741784172713138 1.631964279982796 1.1490468287142726
P 5.762584717949187 0.16477715882214775 9.407183907341066 0.4228096873433492 -0.212327355485944 0.462026723862443
Ni 5.840246007661214 4.7119376167816585 0.39082612183194937 0.07280001468086172 0.4434160507397912 -0.410028476418281
