# total energy = -340862.58629896416 ev
CRYSTAL
PRIMVEC
9.30696276271444 0.00000000000000 0.00000000000000

0.00000000000000 9.30696276271444 0.00000000000000

0.00000000000000 0.00000000000000 13.62168076544872

PRIMCOORD
 96 1
Ni 4.3140285877856 6.9669969736735 11.54284904149712 -1.4403134790095968 -0.7988132129664371 -0.6101004115756397
Ni 5.85371668662714 6.450255780062271 5.973366070852252 -0.6156054005542688 0.885607742154178 0.8013388076017683
Ni 4.556735566046354 9.370157168615128 6.399888358290986 -0.49305993901916373 -0.4929000164025317 0.7635973271869365
Ni 7.450931123095406 8.884920044388538 9.777928717918195 0.6307116600680879 0.5401247537174505 1.2062484747362452
Ni 7.144964718067324 4.129117849075397 9.586039618432627 1.3206594800896738 -2.782787998091833 1.5333339345023915
Ni 2.603325045829504 4.613545267530504 8.43615225424872 1.2662212557454515 0.024545807660164176 1.062180565748332
Ni 3.757723494926481 5.991050231040657 4.253941904667674 1.9154456299057463 0.820583000543361 0.7988175838418112
Ni 8.463277397593338 7.629112927635714 11.976522799220986 1.5191974951010094 2.3366038976886014 2.288407540489033
Ni 8.217694567799391 6.715364618000671 4.427250583438471 -0.3940382716376117 -0.3316327128171966 -1.016940720073926
Ni 5.231350771170628 7.53344665608336 1.625883604956433 0.21977147046881504 2.2450906228689527 0.7669736998583372
Ni 0.9395565177306432 0.535373733318186 2.4426124106348297 -0.5159427571546082 0.6776139810465814 -1.0446348435550847
Ni 6.692283350032013 8.40063223037679 7.699314418023131 -1.2520452213553854 0.5114443550636224 -1.0902521271735675
Ni 1.501501630101458 1.1636309562844407 12.802595795641533 -2.007814824967787 -0.5730587854413098 0.432322769040107
Ni 1.0429103406306233 4.096831994807947 3.0856379223158696 -0.2608618127512217 -0.4556066792687122 -0.34045031110882656
Ni 1.4382142824454596 7.302215163066699 0.9706250212520042 1.0141883541397694 2.2444074807589995 0.03206808417913832
Ni 1.5996993955600525 5.5233195040112655 4.813398335161546 -1.1410427274628736 0.5679404903781381 1.1929455869797518
Ni 7.980469390681193 0.7215967537959621 12.825888331667807 0.04325983912989969 0.22428838450256214 0.3651213314929454
Ni 1.970619094601548 7.639164447557549 7.228235976441994 -0.481791565194196 -0.7864109826473424 1.5154765946059965
Ni 5.522649402683143 1.0911204084038693 9.223566918910631 0.3040656018322053 -2.2694199436429363 1.829799869610468
Ni 8.793292994730699 1.6862541504425212 6.702262275643301 0.1681339487981814 -1.3895347057948328 -2.244826570574289
Ni 0.44538657052166847 5.024298767743716 9.19582007044492 -1.9687718521327127 0.8327808281611334 0.3363532582213175
Ni 1.8108650765846044 3.729597853071124 10.752914051284439 -0.5416949264180477 -0.9350549410417122 -0.3774500282616273
Ni 6.421097065326059 1.9745466329413763 7.441306792770249 0.5074138937479906 -1.4142592051247063 -0.4943516612473937
Ni 7.668816431326962 6.479125978948875 0.8473598819439 0.007831837339592964 -0.5110568898172166 -1.122262361531577
P 6.551831973050149 8.802097381625195 5.553900322677159 0.7208442524901263 -0.44424266040614463 -0.33723051861994824
P 5.544148486960401 4.685674229932561 7.628672708290988 -0.1796902861772131 -0.7039729306560844 0.42592792125735685
P 3.596322144477903 4.084053534759169 2.013148192226379 0.3128893707714224 1.0946587408816955 1.8911247937721947
P 6.016067347290559 6.291897806478916 3.773778005912745 -0.5758630876593244 1.9186672221668375 -1.981540978872923
P 8.061821553307823 1.3964446329925004 8.666249228489017 -1.9722508118202484 0.31836042118832264 1.4024750680055846
P 5.570933926159514 5.64764191430374 12.979895300099813 1.7203716621836114 -0.47333289290388164 0.17979955806156778
P 8.35410672288674 6.900926844113216 10.004470432334287 2.2152660833083524 -1.5349339319996598 -1.4414347370982334
P 2.238464179629781 1.6505340268684443 9.084789864552784 -0.0988288346444556 0.259118861918186 -0.8971957041020935
Ni 3.2603593980534566 8.612542468432588 13.287950187600542 -0.13310138267408048 -1.132584055172559 0.2506869291007489
Ni 5.488437007097342 3.286102457408823 5.907696140696261 -1.8356738118927418 -0.8362430756781212 0.6937101152774956
Ni 5.027891255419482 3.049659065173434 0.8504153578608801 1.1223194400217575 0.7957415160196489 -0.11533120317485297
Ni 8.442336731089515 3.4384202120761866 4.8501906208606185 2.0328859090038023 -0.42569960729663453 0.48883510230453875
Ni 6.057743927114611 7.8656586964629 13.071338071892418 0.9654543792691759 -0.3347373198844493 0.7554106776110862
Ni 4.957521309003747 0.8130423176774348 1.5755515496441328 -0.1637108800298213 -0.9287189715213554 2.29480393093368
Ni 6.926195248361163 1.6202770905111425 5.058642391506275 -0.5447442547673328 -0.18686006445277498 -0.5144080656776366
Ni 7.231109966582607 4.004683755228235 0.5918679287603444 -0.05978123382369059 0.17538086016858181 0.3799589107264101
Ni 2.8635105003987826 8.676034569272181 9.322923401249104 1.3051582991302813 1.30976211645088 0.3172684736757245
Ni 8.539557265444598 0.0026096723945208847 4.33665288387633 2.446894196005437 0.4781609104201442 2.09123015327065
Ni 7.831958183836081 4.412403185539115 2.7740007847985524 0.009981022472111844 -0.6972590089710186 -0.4879241604544952
Ni 1.9480217887032 5.9216016739510895 11.923874240845219 -1.0027752272068216 0.6828739438939401 -0.7226751350512779
Ni 8.110478355299819 6.924538608966637 6.658917888069255 2.1548778120282823 -0.3819396886018648 0.9233893317783259
Ni 3.6352345563234523 1.5945619520444478 13.417614794592215 0.6066327647420133 0.7388124069327727 -1.2327146393475739
Ni 1.9309248978731899 8.949491752923437 5.02734028321636 1.111047466652364 1.3816108229620656 1.8153721242209122
Ni 7.3628593332617704 1.7751263390847465 2.4916098474686197 0.835592843688632 0.6168305312106216 -0.6732469623271372
Ni 4.358022601369409 7.1120832181748765 8.100759093953178 -0.5180528615190756 -1.5810001302301029 -0.7765034937256433
Ni 2.1340586699231645 2.751296448826963 1.3334048505493914 -1.2810007280474711 -0.8044598697292532 -0.7030131378459763
Ni 1.7892263878639871 3.7654575810885595 6.570690671955348 0.2520051336915402 -2.803790054264797 -2.5262852336402557
Ni 0.750101189040966 5.359786859060743 0.6195151927231254 -0.7945829769351734 -3.1623548155861476 -0.6413513991701213
Ni 9.00742759691735 3.34050165550431 12.891858876725161 3.426252586950216 -0.6783498307713414 -0.22586627051264327
Ni 3.21498795396184 6.371677092377036 2.16349100936836 -0.5377616528019126 -0.39912185680810613 0.16951951629179837
Ni 3.3735879085803506 3.544463747251547 4.247280911326881 -1.0317083653014039 0.7501507147637274 0.37248342828497144
Ni 2.9823045747342483 1.3741172290179797 3.359433879416344 -0.15995244142865356 -0.39249612396147243 -0.08189117834885251
P -0.1631761882718128 6.024452920854978 2.555849297428325 1.6246155529272084 0.2873423755402535 -0.15113998534334616
P 5.836889697720957 0.7082496383145697 13.367200838006479 0.18488494300427516 0.6065227215267103 -0.950060413311609
P 4.5705098711244245 1.5662222500426073 4.9163231070722695 -0.7315505831640369 0.14556197703493642 -0.6627314075077941
P 0.4438565058224558 5.185178928270421 6.957491772473342 -2.029088389634583 1.6430457346079383 0.29470061567753764
P 2.0842478045327373 3.6923141597314286 12.957024369492482 -0.28071124337698106 0.433620404805608 -0.23820448036302203
P 9.04750337912422 2.9538718031035023 10.49670360056573 -1.4026211066651457 0.9544117483017693 1.4601415694791178
P 9.042338014719943 2.5061231254002023 1.296997873113989 0.14765614055980378 0.29855521353693737 0.7064447892353446
P 0.41931311398368615 8.824750529300887 6.638158707341798 -1.9943342739828493 0.22471570184796782 -1.766339130052661
Ni 1.1798250717140637 7.153722570147368 9.59584729592673 -0.2218664053246308 0.16361677765411822 1.018314203382685
Ni 6.525204752220176 6.974954426944953 10.955005443490668 -1.8897335698516229 -0.7817524008294084 -0.009076251269655337
Ni 7.007947610392087 3.3111288806216144 12.086436169566252 -2.81945192917177 -1.3992958989466546 -2.3640838482764255
Ni 0.37902792511177585 2.9111249225470313 8.404358738318182 1.1494250379892978 -0.6577452671471123 0.6204899823400798
Ni 6.566676578860637 4.582813676065782 4.660617093742231 -0.002173610612551095 0.23483684944236974 -0.10706022141531239
Ni 5.54271521467525 5.383091494138775 1.765751435365057 -0.20935258912833624 -2.057181034105741 0.172733909464038
Ni 5.382812285252058 2.7344508459949983 3.3191673044702155 0.37572970313641096 0.4214950822969838 -0.8545902107267411
Ni 4.920926330917955 -0.12189515437060959 11.528382298379993 -0.12863383382103008 1.9657466921531437 -1.1716699654304275
Ni 6.578719788841058 9.114560046750906 3.329152744955527 -0.9551864216842646 -0.63810589564963 -0.3599966086718703
Ni 0.3115515134587235 9.363176946447187 8.722997504018087 2.3285815416047573 -0.9252551813424711 -1.5749811777295328
Ni 1.2224788826416289 7.7626585381527615 3.4687879012918867 -0.46087538386681914 -2.6889854130173756 -1.86450693407435
Ni 4.977494051366949 4.89396405942392 9.980551537705475 -0.2021262465832261 0.11093950186506055 -1.1959396366110693
Ni 4.4332693963398135 8.735152397553195 3.8168496994740977 -1.8284898925497928 -0.8432542168886316 0.7015535225813143
Ni 9.344469951037103 0.7795837860857708 10.817331264235355 0.3277197509160356 0.6898205504151023 1.3304132170423282
Ni 4.107404704651654 2.1877319249131855 7.964187789800399 -1.850602408178116 1.4347866356540966 -1.2500572443910793
Ni 8.371892328970654 8.08738778036827 2.3719707009026885 0.5511481014111476 0.5542946174599293 -1.4763958265544508
Ni 3.8195868772602197 4.853013422705334 6.314589112702459 -0.03910750752442297 1.2128091586728984 0.6600901132302051
Ni 7.969338263064049 5.411840702507802 11.881674609706714 0.3778719462903944 -0.99961739830413 0.5367591796793272
Ni 3.5208892102496874 5.933737953560416 -0.07670147327020316 0.24575683878898322 -0.7765785699379529 0.6999694659236461
Ni 1.9420467185274426 1.263820411801621 6.889260566129863 0.2650560533382274 0.23772934049881636 0.3029757112021363
Ni 3.0414782447926068 1.338601858627496 10.994263143659458 0.49359807091082086 0.05324677513928249 0.07506721344848363
Ni 6.7868048651488255 6.059288882954449 8.644509093872891 -0.05924593014551087 2.3887160450028087 -0.8970442661258938
Ni 7.6932844367663185 3.800637900814982 7.200311364985073 0.5037536712875841 2.39530012597823 -0.5513239648673796
Ni 3.9551614056874156 3.695329615707979 11.702345256641998 0.049396291044940734 0.36871470527115857 1.9469673546631114
P 0.058825589646250724 8.720838288627473 0.3515174735034866 -1.2608525352343702 0.9455671534269456 -0.38109173877927266
P 2.0229707608611056 8.374516892505799 11.387834128984066 -0.05343703677321764 0.7663697477257512 0.530326536680106
P 5.340409762322539 2.484307604384664 10.722646877267959 0.6131271142171053 0.9052188315168862 0.11819695475842223
P 3.557595871890167 7.278277654512107 6.033355961556115 0.9715134409790623 -0.16454057501996824 -2.0161356861286572
P 3.0663743705249304 8.698455042875606 1.9653225020205143 -0.13790651737220763 0.12692199333624593 0.5604362115812929
P 5.370796996160308 8.16813499040701 9.54774984240446 -0.316825472601035 0.89452149970404 0.8317112492460387
P 3.1111501689915495 6.030539674585422 9.931989666734966 -0.7247153054097583 -0.04113353681551625 0.18847857389280445
P 0.8722318095727075 2.1355757048743302 4.858908453000232 1.2361414056409357 -0.27950925264907994 -0.5904407283631832
