# total energy = -381172.7761926833 ev
CRYSTAL
PRIMVEC
9.18057331867002 0.00000000000000 0.00000000000000

0.00000000000000 9.18057331867002 0.00000000000000

0.00000000000000 0.00000000000000 13.43669703844734

PRIMCOORD
 96 1
Ni 3.8990444993054947 4.058676305199276 9.828271763940224 0.2609068070565442 -0.9590497612944127 -0.6830510929017526
Ni 2.519599119837944 9.010227613033209 2.496484272766437 0.33710659144757427 0.2882422616467036 -0.39791009588819215
Ni 3.198364795519832 0.9606368130384981 10.864025862588575 -1.1367353583367714 0.258187094132536 0.4559699761454018
Ni 4.543860415486853 2.5877924171797315 6.5894371658703035 -0.9896623439739473 -0.7053363866625143 -2.087095819387302
Ni 8.670564767711257 5.956484386310519 0.31921036446330386 -0.006458611141150167 1.109512003844444 0.8215170823218562
Ni 8.511346087609127 1.6042317129912005 12.403213214827678 -1.18731924193191 0.27006764762020585 -1.1489879504518794
Ni 1.733585988643568 6.841776235525102 3.547677341277425 0.09251497661128583 -0.524969900353883 -0.7562365159464911
Ni 2.13561246735846 6.010199919798242 12.834141973926444 -0.0842041427527453 0.3869363704855078 0.16796914108554298
Ni 2.580291888917986 1.6504926210829165 4.247514268448122 -0.7269513938291287 -0.018429410349781166 0.42937499926569284
Ni 3.009511225296634 3.2744166634761274 11.98353157589227 0.2456159423357447 -0.05623516834364508 -0.28112956186132226
Ni 7.191014418640198 4.9895405195194895 9.63458186778277 0.9798808391071511 0.7299143331121944 -0.489685366119976
Ni 1.739681889213701 6.9444609461831375 8.903195900989692 0.5399450336064766 1.0645056143370828 -0.24362205183416752
Ni 7.535102300219385 4.300575227070406 6.425630035308907 -0.45118541027256487 1.0936359560441358 0.4708499785810278
Ni 5.119418087841281 2.717091609393212 0.8729797825660801 -0.31260063588641007 1.1008257889243558 -0.08977160953819378
Ni 0.2907138654125622 1.566315945890826 0.9394195904366396 0.6134027364759952 1.9855146188086903 -0.2217540481164826
Ni 2.3007709782872103 6.345694784911095 6.061669885094013 -0.6936414668230894 -2.4040272214385827 -0.9526597986076689
Ni 4.212579433448835 8.481187904818634 9.503910179883697 -0.3894164565948842 -0.3745922470978581 -1.8809013162719734
Ni 8.27648866534235 3.1565931876973847 8.373306071701634 1.8727154380270716 0.47555946824155515 -0.44134914090843347
Ni 6.109377651513821 6.947196756981179 2.1229845889936745 -2.01848516019744 -1.2100105128818388 1.431584069556399
Ni 6.858218642032794 2.1123580755751066 3.2247672058355623 1.0061611129599188 0.30226402984709233 -0.8698977876180889
Ni 7.836720850416893 3.7076570908935076 1.5032573431105976 0.1722924510512452 -0.07043485688279483 -0.6948974507173774
Ni 6.697200569593696 7.703483192323009 9.17497942457151 0.49609049831537144 1.2719543015744867 0.7094056716358814
Ni 4.816716230012334 0.6494163013857163 1.7504791612928174 0.25243733613295233 -1.0230046668798187 0.21178562404986107
Ni 5.107694495931553 0.9138296608444885 4.576082391120968 -0.879175356265273 -1.1907418944602137 1.6974369077643088
P 7.2487602237398 0.6805944458529275 8.763843981179381 0.300703884448824 0.26521571884454326 -0.7628455366225766
Ni 3.2643914775987404 8.332673773006828 5.796724970449985 0.5501253165735881 0.915147660594824 -1.5075789370254744
P 6.6863858544256 6.1012803859974705 7.585821294631668 0.26875124280162743 -0.48868237877675846 -0.6291558855451939
Ni 4.404838996309863 1.8291649356852147 9.014168833085554 -0.047168944376318765 -0.1726927718134574 -0.14844161257557661
P 2.1528444031568625 0.8825303328117264 6.321401152247413 -0.3076726024571733 1.2058795214326006 0.7283349044402166
P 2.1299296925799776 2.622247108203389 2.180869938805123 0.4927951153935513 -0.11011829151534584 0.22948355555025637
P 6.160495082800718 4.875875843376695 0.6059949445686117 -0.1276187622929544 0.7935511932365494 -0.2935834713539589
Ni 0.1099006411521996 1.2243028738430402 7.33606012991677 -0.3072409142363935 0.22789281402436878 -0.3402081131910335
Ni 8.967758281651529 1.0741821417303705 10.168502886740026 0.5769462934211741 0.7309106355871928 0.050287692510958555
Ni 8.239087010338253 6.434268954640978 2.9420321765457444 1.6136189447063887 -0.3333219275941614 -0.5724427491238657
Ni 3.544610111788749 8.237324340293878 0.37756208739066 -1.425399280901926 0.6904774672728108 -0.49920410424368866
Ni 5.478672276260617 7.812438234440987 5.805876165763703 1.0325095210464605 -0.46883011993752155 -0.33005482680711545
Ni 0.9905930232197384 4.43509816540498 4.195836822199209 0.010806089476568486 0.2997898572749869 -0.4479036541974996
Ni 1.574211238797926 4.660343527586019 8.53623921169936 -2.0216918400601958 0.5566731449944348 2.682218783717503
Ni 1.8437620469902014 8.093115897288385 11.042962577697528 -0.7770619373322747 0.7060110441320357 0.29840866065674415
Ni 3.1112227952010048 4.717575220589345 3.0673561805862324 -0.33857263447013947 -0.7677478590202004 -0.043415133760841364
Ni 2.9712465964166435 4.032511671728073 0.7572155093443868 0.4250136369732035 -0.583248324379802 -0.5816007614740499
Ni 1.8762796370796753 0.3761464430112707 8.821889991020916 1.0487347246560714 0.02357058823108844 -0.015185706601502879
Ni 9.049015534582622 6.221995742317767 7.716627936956016 -0.9429052903240664 -1.2203316923021887 0.4180287210149381
Ni 3.1209358415913666 6.0090890704473585 10.532032468074286 -1.6467059570683447 -0.30654517372094947 0.0629478044771303
Ni 4.820572070734405 0.3014000525565903 7.122308845316764 0.04914200894228956 0.4064950093437258 1.2650213219000797
Ni 7.029711748433519 2.664835787035989 10.162576826773126 0.6994562737326534 1.303594297077271 0.6238406439798676
Ni 2.7624711824627406 1.4568100693839812 0.32066181307796954 0.318548883050045 0.38636404292180554 0.4978630168347619
Ni 7.655312725016553 8.079289954127812 6.99157013923371 -0.7039137952833747 -0.3084418765230301 -1.3185424337466711
Ni 5.139734696217341 4.957022929430015 11.851744448355738 -0.7781199462831438 -0.038006304040444215 0.3148372385264126
Ni 6.618550599436576 9.037273581526598 3.2186529441191336 -0.13959958880391443 -1.0854819594784337 -0.538004622050654
Ni 3.3633580561319216 4.768105095194783 7.3656078045929325 1.8121340768995888 0.7082679584870125 0.7983061914230316
Ni 8.740612540828897 2.717936222122809 5.39901244305724 -0.2507545491138907 -1.6916958915154734 -0.6023567630744787
Ni 3.7611706517719776 6.163432866208011 1.3868017727308757 0.2731138906456974 0.2247424413208452 0.15911734712186792
Ni 8.167203122591053 7.912212703411173 11.189759024273382 0.054229964988158214 1.3334836284375358 0.10605646274114637
Ni 7.619848170946638 4.348938486412966 3.8728725213757738 1.9734466319005626 -0.9457196198444099 0.5210137439196124
Ni 0.43271162640406685 8.438176919621236 13.410360647547511 0.3311233772809459 -0.12788564280109588 -1.085470389514208
P 5.1201708948394 2.5561561621124453 11.027483213313038 -1.684618415843402 1.1808912269183793 1.1539332102722966
Ni 7.7384244537235 8.206413350505267 1.326149398172683 0.2579261271616655 -0.06584492351926724 -0.3547343318316665
P 4.351022476517515 8.158169438613628 3.218962329434214 1.1602401263269309 0.23428611914522232 0.24768542327026374
Ni 2.454279341891415 2.6063738972308594 7.626736354979425 -0.11213480772474237 -1.336559182039066 -0.23555135901089108
P 0.18130897521034336 3.994237862274934 10.611375571504066 -1.2131418594219687 0.4354296901002049 0.018825874457251448
P 3.4770410934210108 7.242645962023372 7.661228686352989 1.1602887201766792 0.061516728457558574 0.9665967204037351
P 8.143260187821616 8.023444527669803 4.360181016289751 1.4188272841113627 -0.48829902729541075 0.5995177509637868
Ni 7.5138768151016935 4.996462671672924 11.981247449293102 1.559157837544031 2.235058949664564 -0.7908649046536379
Ni 5.598331866668918 3.8264996102916546 8.040693906557186 1.3893619276623943 1.2631230764361019 1.8107780770923267
Ni 0.95555995608777 4.700196395620577 1.8147606164163312 -0.5149917060952486 0.6561887212932699 0.2885297109801353
Ni 0.27590927315443536 6.22958807631099 10.760308337451413 1.3690391569446423 -1.9190744849075854 -0.44352917927888785
Ni 6.7053161962563435 1.9208605002853456 7.023187115097385 0.7654809173628946 -0.18921776605167412 0.7677329466218649
Ni 4.190160473821931 7.6110164595784635 11.590871117902754 0.32384432712102934 0.8780942073859522 0.5572696409278531
Ni 4.836335114829161 0.8734792057453199 12.45489066107659 -0.22816560806978126 0.21179436580060942 2.364268453483406
Ni 7.460849824600055 0.5627333297242788 5.362881379376795 0.4080088748850909 0.525013866217941 -0.6481501672595095
Ni 0.5981235211516962 3.998672079105317 12.939767222163718 -0.044880662562774315 -0.7150021918870525 -1.1206734197779022
Ni 0.21359613291380763 2.5424495664027944 3.1211837170663568 -0.3447466244913353 -0.36189511124616386 0.16476220411247108
Ni 4.370650541907491 6.278024780238732 4.251545458117317 -0.38747450237716496 0.5117575154286671 -0.5284308623192899
Ni 0.9988371779064543 4.002821698168119 6.487734776539081 -0.5212577416096184 1.0007684811894377 0.17210218941731006
Ni 6.874036769566437 6.18691677232006 4.969978554256177 -0.3410007842956579 0.8611100141231298 -0.2312686724751372
Ni 5.128672105574254 4.869394358734356 5.9581938090306386 0.8503175514933161 0.3106669091988069 -0.22669339439962896
Ni 6.807615322842173 3.1498454664337587 12.694158430683565 -1.2615261642626274 -2.525089670670258 0.15237411486076338
Ni 5.563996523096182 7.138877943733896 13.355660038561034 0.8178218928584561 -0.8657984207377347 1.1459062262027622
Ni 1.2411308644229402 8.958063596407463 4.6379713888821685 -1.859376040605688 -0.07277636053177788 -1.1016781096223218
Ni 3.0195731334666123 3.9327555639041814 5.213559357127983 0.26749243069386186 -0.2536755794154277 0.0546138306901382
Ni 4.364976947702156 2.608375262177078 3.328431483648467 -0.18446251075487585 1.671377491673096 -1.5500954702314467
Ni 5.155121336813038 6.126224003240017 9.272678165952982 -1.9422864042476742 -1.1296018326157835 -0.32390012005962926
Ni 1.0473656875656747 8.184591128132968 6.72928575468791 -0.8321010284852897 -0.21816298833111458 1.487309131032845
Ni 9.176634681910057 6.103079778334437 5.380282237721117 -0.2044690357837898 1.0290704134579245 -0.1106829057695642
Ni 1.763211698191488 2.8061431689267797 9.845766264130654 -0.20697688980730802 -1.349543767224192 0.8575927449984907
Ni 0.19631829424966596 0.09769506915221218 2.4810324501013907 -0.5354088362990198 -1.6047717787284042 2.1206443447667094
Ni 5.695141010512368 4.581271251064099 2.724249702276545 -1.3584205008885317 0.42014756713015383 -0.5319617582906838
P 5.971751679455295 3.202725567765032 4.742629922766979 -0.8117072953202858 0.6025323694203946 2.014984089022717
Ni 6.117392291871842 0.6683980544260879 10.636703854761503 0.48176328305942184 -2.4843299722543923 -0.8006842047369049
P 1.5909933265120868 7.189931111008758 1.2541287198855817 0.48481698228408115 -0.9459091101473968 0.7707251964809695
Ni 6.998525341450475 9.022841720538272 12.842794664118237 -0.7283922400407132 0.790666929710219 0.022206875114342398
P 6.986884374699078 1.377783695727801 1.182657957930033 0.30880980138541014 -0.4611780027089025 -1.048970237705645
P 1.2976464727207382 0.959195463054295 12.217974954310082 1.2455285032827905 -0.4586773477742359 -0.9792005252106749
P 6.299387973953641 6.945278017193291 11.420372267573935 0.14472328318372496 -0.5928084572644113 -1.9259776397853219
Ni 8.957824901505619 8.417685880355368 8.814015813432055 0.8940826123944084 -0.770882290884124 1.0179737893241307
