# total energy = -340865.40350700537 ev
CRYSTAL
PRIMVEC
9.31350436773492 0.00000000000000 0.00000000000000

0.00000000000000 9.31350436773492 0.00000000000000

0.00000000000000 0.00000000000000 13.63125506563063

PRIMCOORD
 96 1
Ni 5.741505481467245 9.057485651859036 8.527509055931636 1.2324215335871873 1.2135956591299355 0.4983314718307483
Ni 6.478129185648314 4.303276850323042 8.143489047017761 -1.0082231376952702 4.214207517045909 1.4929681290908352
Ni 7.9315202022475155 6.632360821480489 0.1895139852297025 0.08028860974842301 -1.4918257879562757 0.12883412275729425
Ni 4.548594560940163 3.3509058125639326 7.207362623945756 -0.6909199541268681 -1.0185697710369168 -0.9170698173182013
Ni 2.31402403425282 8.333239595263775 10.961969743300411 0.23989883734630943 -1.402455527621559 0.6323707929380656
Ni 0.10189067144731837 8.566812976606476 3.828160521769184 0.8290295886488174 1.3343315782601277 -0.22688597002640923
Ni 8.275784585514458 2.0324022827858306 1.011366501165833 -0.057363368410817336 -0.47843241891397603 0.42197356459529906
Ni 8.85547573753537 8.346921133490675 1.2385945918387007 -0.5421448694712727 1.7327463816988806 0.9462096721069512
Ni 1.4578801258063945 8.890662157835731 13.342559257481957 0.3743451640840585 -0.7038001525236459 -0.3349568920944231
Ni 2.4694757391848765 8.878144807681235 6.845452874902991 0.9283081092361819 0.5337165361982614 -1.947818646919813
Ni 4.53715757731686 8.511136846231794 2.717159079965124 -0.3239394579379969 1.1882936900300372 0.3016287102559386
Ni 6.373808620856272 1.0762872161858672 6.383326091185795 -1.485167916320126 -1.0845661325323837 0.6225394086699407
Ni 0.4526540182096529 5.724284811500235 2.4625818830953246 -1.2969832195186568 2.5850969044618255 0.42593717722873736
Ni 0.5393748533983088 5.408454557713704 0.2192017124264806 2.1748753381961317 -0.1556335023383255 -2.45788797601278
Ni 6.269525310082547 7.8395586580321215 1.1775566768777506 0.42668639668993613 0.19397019313499494 0.5720920506526664
Ni 2.7885284655558222 1.9166726748842229 5.4359806204976415 0.5173188115665284 -0.5911539523801238 -0.34505567109132185
Ni 1.085246807591094 6.863736215742492 6.731154752655211 -0.8931377319826361 1.4523549835551632 -1.9355969080426405
Ni 1.9180883275802667 2.8414291715658924 7.408764366420399 -0.6332760783611545 0.3259724292076257 0.7094475806174103
Ni 0.4040086524418364 4.7300775111711895 6.154852784950682 -0.5827734416259125 0.8150168193094932 3.005286380573508
Ni 2.0966561508779913 3.3637118813603846 2.6467676123552453 1.2466024530732596 0.8265520736426023 -1.8132057126972125
Ni 5.888975512974895 2.1980988427550483 0.7308642329492677 1.0174734526489444 -0.5307638813278408 -0.20170458566477517
Ni 1.4569394618438913 1.0347582992670463 11.073704789087982 -0.6673023147079282 -0.5085117547978598 1.5888432804236055
Ni 7.048180860429715 3.971511190201437 2.391562685276806 0.8950519182862133 0.6844055500471181 0.4182454650114345
Ni 4.534838514676629 8.61478683869413 -0.21271951323933116 -0.498173091876013 -0.3401080972780594 -0.3242690733632738
P 5.04563767332492 8.183403933592999 10.75358846049409 -1.970915895058909 -0.8552165314568304 -1.382187264290826
P 4.529157276883295 5.590347302146217 7.923589753098295 2.2251692013546776 0.3837834266788229 0.6557925142961157
P 0.10424140000311796 3.863688747687602 1.5520275495465345 -0.2337420737162942 -2.1038781810519636 0.47794725174744135
P 6.088694305172068 3.350849931536457 4.566674867379837 -1.7664232051260351 -0.03172252791426149 -0.19750083199607277
P 4.210225626071878 0.9984542584171777 7.273119691677006 -0.2642929499199577 0.20006036519313286 -0.4154169944237039
P 1.7430689495272318 2.589750337321152 9.90690986675154 1.51392030586247 2.6786166681885417 -1.647624612227872
P 8.165112210599377 7.807240797142167 10.307723987122701 -1.8553993153461272 -0.060249945929993005 -1.8650376097668397
P 4.257435780784034 6.906094034568865 1.3475849478267719 -0.20968528987740662 -1.2906480213292482 -1.3517983675863234
Ni 6.680157726981137 8.562659153564137 3.5537092374777495 1.1895774418384675 -0.3116832662784632 0.5591442322427467
Ni 1.0760543785713863 0.616772870503148 8.411615530349433 -0.6752891895681467 0.0382749843207986 0.8459289355073172
Ni 2.759246807158699 5.825448098239915 2.717744899403158 0.6526794225884308 1.0292120812421113 1.096713309417879
Ni 3.4462295319324303 6.398126181312661 10.254520592213805 1.3232822624245015 1.2440568038332704 -0.8556039967032362
Ni 1.2190725548901606 1.3768898899853432 1.3999575781271991 0.8514722339230497 -0.8118301940513954 -1.0397638886160288
Ni 1.9510208797724513 2.836614089698427 13.206750665057973 -0.3245063861850605 0.21344655669205176 0.033509701721671316
Ni 0.5212731258981025 1.9026837910062078 3.45669511702812 0.3233547890791205 -2.3647464215610885 1.4453597831842528
Ni 3.3084269181780295 4.241304790852794 9.276668737276358 -0.19665828149011935 -0.7306095594070062 -0.2695670538347035
Ni 2.752084722137265 5.252695507130533 6.970492261982004 -0.53517306613913 -0.5815220857173147 -0.36550082631955116
Ni 8.804614689028153 6.734706923301733 8.471007749051232 -1.0619561084423519 0.07014252245335663 -0.5641823088872864
Ni 3.293944418557315 4.764854137270063 0.68980937341353 -0.78083580255241 -0.47153312069098147 -0.34576915221857873
Ni 5.657208951520564 5.257659605071267 5.700073424996048 -0.6243885460635376 -0.013388762602080167 0.7967918116610342
Ni 6.013692652795467 0.7598320262420707 11.028898449907729 -0.9513187111987422 0.5254321847022821 -0.4856140242640798
Ni 5.4606846913940705 5.07973441358951 10.712203902896245 -1.6553536054410138 -1.6410317895017028 -0.27507178570301655
Ni 0.48857620537177265 4.039564968161927 3.973565749311617 -0.014532389288220133 1.41321893678565 0.07152988971918649
Ni 3.603162084092586 4.302149916268954 4.831462459319854 -0.5459431601714404 0.2648411091139439 -0.08256043650173524
Ni 5.6953104987542265 4.934890790373205 0.6620225325013743 -0.41531080786314284 1.0234679796694826 0.30909905049105474
Ni 7.763262428519006 4.605965749148267 4.83910884657941 -0.7652243212673983 -0.08643560318642533 -0.43946117985710126
Ni 4.726091331211276 3.297166891141731 12.76696604747591 0.0754734477479668 1.42489560179263 -2.8615164624419878
Ni 8.705463119277589 6.656585246891087 4.508497129675171 0.8280975637528512 -0.4854710709283123 1.5130178486528587
Ni 7.444451853267121 3.1772555196840453 6.678306202270785 1.5306183353434415 -1.369290867944132 -0.8471432675303926
Ni 6.14742526504874 1.8119236888815362 2.9447327016578813 -0.7748142789486785 -1.3367903242132653 0.2055823234526266
Ni 3.6913889129717044 6.946775422570975 4.929675227808832 0.08628005144516754 -0.303794864669322 0.6721061638544747
Ni 7.76702508436902 4.98102057855417 9.987934562539538 1.169431563018212 -0.08395268886357155 0.9085751495836288
P 6.8272924723239345 5.321978667695483 12.19891025672584 0.756126215620872 -0.216394326466466 -0.0033766297817167655
P 7.873236290590646 0.687548985852149 8.2268169724882 -0.16906108859814112 0.07650214612279728 -3.867917459326854
P 8.166341593203835 0.6404152018775429 2.8887762347953636 -0.4504084228972244 1.135476546229006 -1.6324484187080661
P 1.6799233884800004 7.629222470614618 8.508697639382492 -0.034670040578359644 0.5110910854892617 2.2791109456784557
P 0.25699684535948514 2.7755268131632067 5.675972869196355 -0.3597274141708837 -1.5458382376169892 -0.09895301892714571
P 6.444255969493626 0.4670629411441915 13.148599936516584 -1.8099319270419474 0.7044452423068126 1.8964001832385207
P 7.522797053787668 6.3556845409450755 6.410288686942688 -0.23447740922042198 -0.9919729943849948 0.09058176414431496
P 7.405884630804498 6.549181912083318 2.8629452298448475 0.655922869226393 -0.4045880221289999 -1.76460517808069
Ni 3.5501496160275647 8.551939309793434 8.868195190739236 0.587155372743692 0.21238983329276326 1.3483631166525296
Ni 4.503731409381976 3.661604325327302 2.8032130682259067 0.7161285921820119 0.10329304106339629 -0.7135168655907776
Ni 1.1524344296257147 5.796846325677075 9.997926090252143 0.6660866971332722 0.22833324399589708 -0.34932010279463066
Ni 0.5905181010942768 0.7842129185295992 5.837680455154285 -0.12186180520451916 -1.4253368030951066 0.3579692938291964
Ni 3.572977015751276 1.193553552343049 12.57678242126696 -0.12685437332310412 0.2523733156642363 -0.4822877881043242
Ni 7.6967826328324085 1.8723776471053681 4.63192807451335 1.4081065552597491 0.046392214111294294 0.9147622522309472
Ni 8.413782782865022 0.5696018325102249 10.107807748628446 0.5898195498394164 0.6661018666419238 2.1863036346377314
Ni 6.365575482808226 7.324959589515501 12.294942733792816 -1.2203849141376273 0.7675835655281941 -1.0304418398841544
Ni 3.811076760319488 1.8397431270597193 9.283225444500141 -0.22364663715350516 -0.5137719747555345 0.18535931153753238
Ni 7.611219466262951 2.29411176146241 12.044427156270023 0.18541047649044198 -0.48178230922281545 -0.3190456201808054
Ni 2.4730241844295664 8.644459664283582 3.706079103744536 -1.160666415231072 0.3349581776460038 -0.0031028072950398176
Ni 9.152176052916147 6.802248458510364 11.683240135182606 1.4952399558441474 -1.9396739063254917 2.2985734252784416
Ni 3.3809977458594496 1.4643157574706476 3.028606398496664 0.3655987853499961 -0.3657872472117184 -0.5721897525727953
Ni 7.713891540744467 4.117863601159578 -0.11260585846573135 1.619024431992676 -0.8389676736981356 1.1946299166607102
Ni 0.397892473984651 4.094179359014577 11.640070178756922 -0.09506551094728144 -0.4759258504420384 -0.05745489968335911
Ni 6.211474236040158 6.757888236199456 9.383742374022024 0.06432231622715374 1.2763326331478406 -1.0360267901710996
Ni 8.036259874745623 8.891742524366922 12.287827216294279 2.6305786909437088 0.21243996980440835 0.5987266225210592
Ni 4.225015471343708 6.1496791331569165 12.66323223347236 -0.019316440940424798 1.0051211017311787 0.17546030725626557
Ni 6.451781281193649 2.259092984244476 8.879140421320756 0.353213781422082 -1.7766543959357404 -0.35143714913763346
Ni 5.63318942321071 7.572186568571366 6.7055966333888675 -0.8077601377470799 -0.43156943581385027 -0.012410200738894756
Ni 2.9424248152231463 4.540491811956226 11.553620366551524 -1.3520145973621878 -0.595087225996259 0.7006541506954965
Ni 9.028203993461913 2.8740636916115414 9.448449809787194 -0.9801464340637119 -0.9199473959763125 -0.2816065014977408
Ni 7.994833406377173 8.394615590440951 6.363438033507291 0.5965941495590886 1.1175413019068237 0.3739540992932269
Ni 5.337206247682537 6.147620848644905 3.1147963639243037 -0.15308219667138154 -0.7849876199372545 0.4941649991578845
P 0.16602812073223883 1.3807363673765685 12.788898419409557 0.2778046112531473 0.4037130757232144 0.8418442239149824
P 0.21291509683549517 4.612252364739253 8.415310197616018 0.08209712371207152 0.46607672556210056 -0.35762193779210666
P 4.989095387024369 8.790346400012762 4.908083730142786 -0.6641761103741206 0.026101325072742147 0.340901025493
P 1.6909226373880801 5.858315455900045 4.888508606218143 1.4306646430659231 0.1391496457506894 -1.581332059648225
P 2.032942466051426 6.748798255730119 12.636091749778004 -0.10904382750424446 -0.001515665313578035 -0.9638556673234883
P 5.32885203407496 2.92368604400972 10.497947661401339 -0.6671087106398833 0.11429761970401606 1.4728543890600958
P 1.4905239593566224 7.782122275291964 1.7736442537104113 0.820287066569497 0.06253077154436973 1.0012058258371725
P 3.808645935624307 2.577624154358985 0.9108495716439522 -1.971266079309476 -0.522536608322042 1.1670959729064998
