# total energy = -340869.7225379893 ev
CRYSTAL
PRIMVEC
9.25095714676179 0.00000000000000 0.00000000000000

0.00000000000000 9.25095714676179 0.00000000000000

0.00000000000000 0.00000000000000 13.53971088536420

PRIMCOORD
 96 1
Ni 5.6631675312660725 9.047879885881102 7.6152887278973465 -1.2406444357176118 -0.833475540235313 0.36061058810678537
Ni 1.4593754534719026 2.0826956778686423 0.4962611067781658 -0.01534768610066389 -0.9956959517625369 -3.509521362372885
Ni 5.423817523610618 7.759341853325724 3.476198767698469 -0.3050235948701005 0.08300343757642478 0.3511347874058662
Ni 2.5804434134192826 6.185652325544757 8.439653522748639 -0.3488076819345864 1.0482145904865432 -0.4851504543640999
Ni 6.6035643031211935 4.768896030472294 6.8729604936647615 -0.6715379500558305 0.421515651122274 0.05489150983155708
Ni 3.164030777966752 8.382911853558536 7.244543679128241 0.16631412198062323 -0.6535559116561132 0.8289645397388369
Ni 8.455864899605416 6.000004122644835 1.4661749067872023 -0.18426505003208912 -0.9255184623061866 -0.9955766525758531
Ni 1.2213483326519419 1.2041878076180894 3.7482120539466597 0.6389451037214738 -0.8778355544079269 -0.056152121711535545
Ni 7.285193308805465 3.259010352372447 4.58251515178656 0.46671153093262197 -0.34099512786870306 0.9603620523479331
Ni 3.1327810455870466 7.163996522569077 2.6822030141308058 -0.3046165892396689 -1.2228670571295326 0.9527999237299589
Ni 3.1392474644542503 3.760958022351858 0.2631018394745467 0.3554359858843814 0.37705279282320875 -0.3216128666873494
Ni 7.188428299719699 2.750846039361905 2.208150679562219 0.8827826140005571 0.4683315830345483 0.1804708730969795
Ni 3.959252283322548 4.660604329099637 7.380983267034861 2.1582649833329604 1.2384299445647964 -0.6026935775886072
Ni 1.687883339650443 0.7345509547738468 6.300596390018138 0.5317997787915227 0.739370593429088 -0.1732843826508693
Ni 2.835159260471626 0.39935178276489036 12.997810905039708 -0.4858227978407762 -0.8609621756913559 -0.5104732493996047
Ni 0.6764364435810372 6.5114802782225585 3.6999831152881764 1.7714880212434525 0.06044354999803784 -0.291424258919111
Ni 3.0733066437311765 2.4186256754720326 5.270345998970938 0.00684607638755595 0.2601357332184746 -0.6695615430557501
Ni 7.143718425062766 4.509776727939565 13.136701071426904 1.5349136202846856 2.304573094505302 -0.509949772795967
Ni 4.973425436387897 0.7379876852590631 12.09695919860896 0.425132679049571 0.4336237472397177 0.30908748052682894
Ni 0.43234624561434515 2.8132252416817263 2.2330366786962172 -2.4240864540823024 2.088764208228661 0.9070890519564057
Ni 5.59581131413859 3.886345492060126 0.9583612050428506 -1.6518137106085553 -0.8590449040639851 0.29916970719248476
Ni 3.566493657534276 5.975785117502719 5.084228772556614 -0.2630919876333211 0.08243033868177417 -0.024101263923577844
Ni 8.23128867010579 2.382213909146834 -0.11112249418147553 -0.13066603375971045 -0.017911590173098187 0.7651453884003468
Ni 4.3894957864354405 1.5138543386063272 0.8395095363784728 0.07721485591910572 1.3129279157733713 0.25687274619648665
P 6.608310044006567 8.888439643854984 11.190246085891715 -1.2091885312011756 1.377702489046595 -0.49919407694135964
P 7.592648861096619 9.367796477105191 7.6583584078974045 1.7673320900935499 -1.5416504247878868 -0.05206843856046516
P 2.525427972785147 2.485500842841154 2.246400611021772 2.11767960571143 -0.7018062620220689 1.2335224799608497
P 8.819742037978223 4.66287081353807 3.142905292809175 -1.5711276083113972 0.005868800075951183 0.01328051915899003
P 0.9640699705406353 6.4615898677063495 10.1857614599789 0.01967639538300482 0.11185815702458798 -0.9920634972162721
P 6.116029623978841 0.9249236213582899 2.083924204943842 0.33607506485926636 -1.9555571532146514 -0.3520369875051615
P 7.3284877870579885 6.782015261559477 12.952005717086815 0.9087972928967638 -0.27641518710478846 0.3422513688733073
P 6.038145817908757 2.5873076234328236 12.73790249588413 -0.5909508352303823 -0.6081538293722301 0.15973518321152488
Ni 2.063721965284043 9.089240914143287 1.709226222294972 -2.2374495613839267 0.40517757608388283 -0.22320466452008011
Ni 6.980994093340143 2.4129640898543947 7.339280878463378 -2.5842453550948075 -1.5475955866277282 -0.9614650556041247
Ni 1.2227637290563511 4.438868143365721 9.336564321543582 -1.1233054580841106 -0.07926273958706995 0.5925832286274827
Ni 1.0329803484259008 3.7474238724194984 4.4019225968278795 -0.18567118635099636 -0.36569571593917666 -1.3667765861627106
Ni 4.215374275822409 8.447529787446117 1.0647102054682787 1.6264469497089924 -1.271998524548861 -1.0892020886424982
Ni 1.2629776386639833 7.8534240849129375 11.836604893331208 0.8225794621480995 0.6912809370107127 -0.6259016402739542
Ni 4.236586719974767 1.4769892753934417 7.697663873538284 -0.6275157788386097 1.3262156340212128 0.15784182284355397
Ni 9.308127805154601 3.599491820766487 6.596709344064545 -0.042162235190346745 0.742655949048579 0.29265196067862503
Ni 1.7432503166464577 5.302315455796807 1.713437257872012 -0.2723638998535503 -1.7858823422919115 0.2994129335515424
Ni 4.167158288503574 8.856116800475856 10.190906842201988 0.8716638783795763 0.5690411796414845 -0.1035558078064797
Ni 8.156226405887635 7.581575465697417 11.090959265957306 0.7306668950075029 -1.3618434105271513 -0.6082664436906944
Ni 4.898788716186753 3.89310794154786 5.292862828045006 1.0979006448577608 0.3187586850680059 -0.4704676555409446
Ni 2.087866962771027 8.253037669757859 9.428093289028723 -0.7744052164357178 0.6853514589001553 1.080237680360359
Ni 6.09639909345494 4.778008223010484 3.112901664322763 -0.2409272786108238 1.115780096241343 0.3588095303423046
Ni -0.14986920202610526 1.4615586792983115 7.700046920033551 2.448010568998068 1.5866868962022351 -0.14452993622599625
Ni 3.8786671978401275 0.25134017288261135 3.1243423227105613 -0.5585523642950186 0.2943110935486028 -0.8835557447211558
Ni 7.152229305403006 6.968662567803688 8.689285043893378 -0.39352713632914804 2.2580685231858593 -0.8238886678778262
Ni 5.319133695425672 6.411597696664334 13.455899788396211 -1.3852988133366142 -0.9993260923159564 -0.45753989173568305
Ni 8.860973552843927 9.351607302544954 9.585411361543915 -0.42905849646653843 -0.49067549794738713 -0.45165309393760283
Ni 6.835032495505034 -0.020559326595813453 13.470035250526522 0.13893007354071557 0.8544259172347348 0.04494931101718065
Ni 1.6733685882875777 0.9846533496243668 10.998009351493621 0.1289487939582876 0.8015010442112455 -0.866310841597779
Ni 1.0957110871076015 6.46809329040112 6.272405949082472 0.8868868659769178 -1.0460672051262372 0.24802300911534056
Ni 2.3461259263128396 5.723372758716375 11.776407066646417 0.5752514222172544 -0.6240265347384285 0.5812024975943668
Ni 3.5827568397496465 4.628373995289425 9.836843118899754 -0.029566657913523274 -1.3760955495707914 -0.7872725593166893
P 8.397343346309377 5.818204317811806 7.464116991140908 1.6825278518629603 -0.5858716209352619 0.11435778351799014
P 2.5168800886173415 3.4750109448335924 11.613822424372856 3.551639631699174 -0.16049288731315586 -0.09313384114220734
P 0.5980419846905393 0.02789163502806766 13.27467076760339 -0.342264738609746 0.7923342901103129 1.0964065768107376
P 2.1911076416808895 4.343814561304893 5.941374333153166 1.3761677975696236 1.3314953943629135 1.4443002315714868
P 2.4985816958858265 7.922232702272397 5.153620200200241 -0.4604930608267359 0.3810549720040663 -0.06209496955853176
P 0.13127385357837099 4.320964697782729 0.13467820571446681 0.362695238549956 -0.6051934611923254 0.5602235813498545
P 5.316691442806298 3.488804121558915 8.80014851128189 0.26804881741796416 -0.03764403560501904 0.2364139641215025
P 5.694750298093875 1.7828074083147885 5.698403500970353 -0.9093858184103822 0.21732660847274832 -0.955173309058142
Ni 4.886790225098395 2.340075800505756 3.1901998848216104 0.4961231513255198 0.7860032056859625 0.9546701441694784
Ni 4.07579583824248 0.3016478015546295 5.289896971265571 0.8904930952709373 -0.45212643402959557 1.7265523370730262
Ni 8.105697679345909 3.7142684429201305 8.634746952634847 0.7520080796874404 2.328212845411429 1.2802707918599823
Ni 8.408934795294508 5.520971072885831 5.288258626800074 -1.1486336524362541 -0.20795236634669992 -0.39379375972697345
Ni 0.5823902907257009 8.289236664074553 7.7045965406328225 -1.194031106734447 -0.44823918316004746 -0.6625077215327623
Ni 6.630429081934297 5.2567637440627415 9.998345399217001 -1.3099554634086084 -0.3660919229363308 -0.09265741572642107
Ni 4.442022719665745 6.526013531499206 10.882921897188421 0.4993833101340303 0.9592047988150384 0.3949677254304166
Ni 7.619735662875121 6.889030330881098 3.39463585607261 0.10957578874831451 0.5500306999772527 1.544389935206237
Ni 4.886642209788129 4.503791358830722 11.690646070783167 0.9995456645259301 -1.9067537585587035 2.1239728949193095
Ni 0.5561527267898451 3.265162238705338 11.55522223794324 -2.221153138216749 -0.4399131797928553 0.633940965638663
Ni 8.451405938383683 0.7755706227267339 11.725727549507358 0.2014932409849175 0.3141253000610526 0.5559164693340684
Ni 6.410015783035877 1.5971962092424337 9.991088023535568 -0.32944547535789065 -1.490628168103749 -1.2350651418576213
Ni 7.556218592857637 0.8552898186441039 3.9129762216638735 -0.4819903114685634 -0.3609425175249074 0.7762371274381341
Ni 1.0542482983196082 6.9593191013432065 0.44110875198203525 0.3255877921746973 1.7592130605308411 -0.5191826042481447
Ni 6.629337469021093 7.571593683211418 1.4382962230987832 0.07026902072889188 0.3663109809256723 0.1832522924968586
Ni 7.24779169009287 3.4045926609750015 11.07396710833888 0.12213717035309289 0.5254470971006175 1.364788094977772
Ni 0.1519765700060037 8.496041805385481 5.223308583560088 0.27953933455606694 0.2335860077544042 -1.2310007419802604
Ni 2.4854453370998044 3.1251675080652883 7.682174071319048 -1.9622330225729305 -1.8099321841522635 0.808740499382478
Ni 7.045880304977578 8.213184547469 5.495254337822971 -0.7053345868903014 -0.07989497385443015 0.5285434766377543
Ni 3.474076598187544 4.236531214233417 3.253958404813964 -0.6847356796930272 0.21622643343003406 0.30203443033478955
Ni 8.55083522305422 0.6777981844354755 1.7918724209728327 -0.20896718076445947 0.255421872682573 -2.1903189264447116
Ni 9.127262346967617 5.550019077525344 11.875206361152639 -0.5589020343249536 0.18059711426219863 0.3501492835641453
Ni 5.1575009766162525 6.947570386090919 6.792087703423013 -0.40387736921522055 -0.7461734752835343 0.14847812224046686
Ni 4.083492634376262 2.2660033886749975 10.537509668771177 -0.8198234966695171 0.32464471153513763 -0.7731600311747071
P 3.712260985274661 7.7018749091153245 12.52226916641158 -0.7324463555054289 0.3942426743389339 -0.27712661134951627
P 0.18667598421057383 8.451609459435296 2.8664376708176955 0.5054796528397553 -1.0677326059148127 1.3915121412361777
P 9.085781056265843 1.8630502083922211 5.258106057907708 -0.058264282958531914 -0.35398074149509356 0.6324574391146012
P 4.796093843733493 7.096344274821064 8.924713570922497 0.0021412147127188932 0.4871273755848126 -1.2550282152431096
P 4.191127517809618 5.345489671609739 1.5571617681984984 -1.1279810091829088 1.421644441845184 0.43244926731564237
P 5.991678261442427 6.180841827961143 4.975829760084015 0.4614603098360117 -0.8454070015655764 -0.5235714773444595
P 8.66665720333661 2.2678165762257443 10.03432052037692 1.2182051328774892 -1.3616112399116873 -0.8699607796455404
P 2.1494875866257397 1.1647324764755655 8.706656490744358 0.27374098270673497 -0.9412554134254691 -0.17389527676199082
