# total energy = -340889.14583753067 ev
CRYSTAL
PRIMVEC
9.05748602708240 0.00000000000000 0.00000000000000
0.00000000000000 9.05748602708240 0.00000000000000
0.00000000000000 0.00000000000000 13.25654634535292
PRIMCOORD
 96 1
Ni 6.410698383558763 1.7331046586604737 11.598762056179647 0.46146159538759235 0.43992243576423584 -0.8209123588583216
Ni 4.660484133844384 0.4120567393387351 5.8276046073399685 0.35093912645529235 -0.6123609254750421 0.30382263258346387
Ni 3.0021671370854985 1.7775769149202296 4.535409309671071 -0.9288195016549615 -0.14102835083064102 0.6920301564719115
Ni 3.267252579846041 4.4050449136737875 4.311081648161704 1.4179147995994226 0.2363003213617737 1.9080079426807788
Ni 5.038136012612307 4.833862530855431 2.686770076841032 1.4204396229038054 0.2561610648414427 -0.09297777518031729
Ni 7.397774150347337 6.132724138220292 2.6683172606133336 -0.9294296244351347 -1.01386953734777 0.11041551104079049
Ni 4.911458013417004 4.513091664167193 11.741986270799659 1.5405255671548244 -0.49035925225854904 -1.7928783139937705
Ni 5.406005806500286 8.031372468501855 12.55156339019581 1.3759428260430109 -0.8330492513311717 -0.30669069815987826
Ni 1.782033198032205 6.61136698588766 0.4068514021345637 1.332215046137757 -0.08262471408076738 -1.3995293551136994
Ni 2.1563790944101475 1.5793538338113189 0.4931275792784895 0.9056080965355048 0.5340569502568158 0.6925775443349491
Ni 0.6897402393766088 0.2855490208802305 4.7606246048084335 -0.002939542244298163 -0.8578066607815099 1.3898296113274322
Ni -0.29705655684316723 2.135030599908265 1.255912820250297 0.7648846785397924 1.2261063900024367 0.6084003981653975
Ni 7.1104978668869165 0.8424576050731695 4.77374890202236 -0.7660645577805065 -0.4311310627248511 -0.19299677347813216
Ni 0.7241478171932196 7.273831511924018 2.4170263690307143 0.8065018398599466 1.150946616840147 0.6493812114531332
Ni 7.6850142038637586 3.828073997990959 4.0385274024456015 -0.40455973999422584 1.1841315882325478 -0.4571197734791289
Ni 7.527558867240624 3.9536469838942687 12.274063757123734 0.03719177855894885 -0.7976415612558392 2.165107717286407
Ni 8.257628468780611 8.375466361639964 7.178208009228144 -1.4216272154540033 1.0694233633536743 -0.26152130071209156
Ni 7.067103451461155 0.6529297105242112 0.5134788445717776 -0.8056261221232126 -0.8058258968388444 -0.6719015040428363
Ni 1.697191726670671 6.384132777120909 9.541491785078154 0.8492245755394536 -0.9116882412913139 -1.9658055704155373
Ni 9.195974960889455 5.098495099315976 1.3152592800191705 -0.3711364273387738 -2.2298049003544755 -0.25389155208097564
Ni 6.40952996786477 1.7455315294524056 7.0653943038529645 1.3013224703239588 0.05410526648483585 0.19713393557495726
Ni 3.679784837199774 4.647658733668453 0.7868265260614751 -0.3120625039947529 0.036713810481265804 -1.2031752351275602
Ni 5.997894401625032 5.655539545798914 4.8427750970793815 0.40947928878303025 0.630289742039321 0.6405702980297227
Ni 4.674921766528304 2.7017574989251494 10.016540622300743 1.0299384178851747 -0.41072164583056364 -1.1925347246945786
P 0.18339959952139193 5.651255354920938 12.197017158213757 0.16042655285159468 -0.22606913055206876 1.2694459333303363
P 4.026351424015869 6.202901539747906 12.641522341147313 -1.0800137372750107 1.462949214131242 0.8182517813070231
P 2.3091517107713075 8.609955616692675 1.2681503895848296 0.3044178429653015 -0.6700886192038137 1.27465575966605
P 6.390264695142876 7.74665039609342 6.029819322529057 0.4352605115121923 0.16543351914788285 -0.9472388847024139
P 4.571403759034873 1.0495995926462307 12.48579789009877 0.08351740109836583 0.7180666897449891 0.21188332596998993
P 3.9484389294442974 6.083523874268561 8.301952182269968 0.09577667808169311 0.7082337628149674 -0.03557789710460969
P 4.8549755307213145 1.1614051998296162 3.7500781745481873 1.5787105628649778 -0.2926434760381928 -1.6780968126748004
P 0.1866802209505739 5.656463409370909 3.689787018989519 -0.3343264575992758 -0.8188192237747188 0.6996038550541113
Ni 1.534039231353568 0.9508639377607736 2.770671381155771 -0.04643463731345551 0.6226067715727664 -0.9626338791012453
Ni 1.7636102715083062 6.631873134191547 4.7863686972660915 1.5276577100532207 1.347492798232434 0.23005588311395866
Ni 5.8928185065396095 5.481889424207869 9.378913534373448 -0.26100142365287954 0.2983711225505894 -1.1812923190115399
Ni 8.580763339314835 2.2721156505175113 10.024361761461702 0.33187953872068005 -2.066160611896532 1.0537378342976176
Ni 2.6379112801115006 5.2075472307553765 6.803126644987007 -0.11306349018659882 -0.6302342062110372 -0.2514834568601153
Ni 0.6672966948173322 8.909550081113027 9.191651822821678 -0.9810856580485298 0.21667200560788488 -0.35517527602382704
Ni 1.4550941833780018 1.26439787313505 11.550468446576511 0.2757477287241186 -0.579897405629698 -2.0630806874196277
Ni 4.15519416236516 7.063561974435174 1.5727300942995555 -0.26916647596217513 -1.1436801650857205 -0.5413036045169
Ni 5.653492553962925 7.80841339312708 8.151052654013597 -0.7412181881607881 0.15932714913982884 -0.4610661597213866
Ni 5.298076803324879 3.1503838379886835 4.587758861504983 -0.004852442996294868 -0.6057326215252471 0.17569967696058128
Ni 0.9550484962927505 6.98247935976362 7.115385286332489 0.48524867050486115 0.6761883043436483 -0.36563889455931226
Ni 5.149253250859696 4.577816459122838 7.26453400254507 -0.6447807365666444 0.12625890583095029 0.0149026281434453
Ni 8.075446195377612 7.042059502671292 9.415435129422448 0.9063426607086842 0.004546224609785719 -0.8171886301498312
Ni 4.4936814716693 0.07841246779876901 10.240641846660113 0.19544472079799244 0.19339632290939596 0.49396702421446537
Ni 8.210928070964869 7.453477689247031 4.7363387675967665 -0.2734779588533354 -0.4575717734148829 0.11120072594624719
Ni 7.258850430080101 5.933160549183388 7.111620089402311 0.3521308327705484 -0.14363313544333972 0.016980593718396563
Ni 2.2401517824236867 5.406141668790285 2.6196396136038005 0.0042880858523926145 1.0700913359549764 -0.6542807056372797
Ni 2.520897618478144 5.058316091420196 11.439246141491525 -1.5357317453106067 -0.18871280139079757 0.4024558062773456
Ni 1.103038760045937 3.5379808363845533 3.869069085375333 -0.7565309072584583 -0.07168235613665075 -2.062312441795035
Ni 3.6382381489180022 2.9364822486138595 2.4011449730784022 0.3742073529546136 -1.7834061128372771 0.332009379430325
Ni 0.9503114311147766 3.3703901729274746 8.14124249092705 0.2757369300908412 0.11692400158326959 -0.3104599353943234
Ni 4.015002394057931 2.558160115881939 6.839317641797007 -1.0397163232075448 0.6272154739893715 -0.18535571199310658
Ni 4.15706000448115 7.14264288470074 6.204527358484897 0.5773730965459476 -1.282550074812462 -0.9394484421237176
Ni 0.9139093948809767 7.475134138272913 11.281360574283392 -1.7950385548698828 0.4841065864806179 2.2565888533165395
P 0.14313273401141324 5.466763422587952 8.314983187378097 -0.9504599627428728 -1.0506016026614808 -0.475135236219943
P 8.593000002900768 1.3205180563907417 7.971506109036584 -0.18694928173247158 1.3301365663421738 -0.4597546399988146
P 1.8614854652237682 3.01097101347745 10.219232667002029 -0.8928327991477075 0.25197787999803056 1.4103323592664743
P 4.173001179841063 6.458277357516502 3.9720853081443668 -0.8810594606618632 -0.3996088237468537 -0.7452561056755875
P 6.649652979209449 3.7719447572492673 10.359884555598056 -0.43591048639136537 -1.0903277176065094 0.25561624808156624
P 6.152089043288185 7.642235697485995 10.273942599687528 -0.9193470433881523 0.7081368322257868 -0.18752572306123189
P 2.473536024184404 8.55626283968497 6.060986131854885 -0.9406715158975413 0.6903072602435337 -2.076219538794431
P 7.029071067747364 4.10432732098944 1.3870190243509761 0.20651383412796046 -0.5904913790954605 0.7338530060449684
Ni 5.213516114029344 2.8333084255884264 0.2524022451148127 0.8499743092212847 -0.005969330209557462 1.1389799313965738
Ni 1.7125985103565866 1.446770353744048 6.824974206967486 -0.54633833872733 -0.6858654224220961 -0.10483056075384527
Ni 6.829824490720459 0.5147423638687707 9.456557021610822 0.03373981545460641 0.9888125943791422 -1.8528683213941572
Ni 2.7219285202470385 1.3683325249844789 9.03470732840894 -0.500572702456441 0.31095770096634834 0.3834941775731782
Ni 6.520257734214161 2.2480499102156433 2.403557887348789 -0.3875017560706746 -0.5183940469085782 0.6179947267220518
Ni 4.096755262693482 6.605506792445692 10.522092355125364 -0.13536549611790882 1.4558048897769766 -0.71194206490449
Ni 8.298658880360385 7.0842039850290615 0.5188200440659483 -0.3717246957420759 -0.6637889022380311 -1.696509510854033
Ni 7.605715913934195 3.685409536005743 8.442431072883396 -0.8479361957453331 0.5058208382292578 -1.9961543579107233
Ni 3.122532068538837 8.545475373859029 12.450441993497964 -1.2927457843985415 -0.5377513683892674 -0.23641216434928963
Ni 8.862360579053288 4.507059378491227 10.420519895624723 1.4008429317188003 1.6832642158083526 -1.0638211866755485
Ni 8.753091067949887 2.6111192365236477 5.837507156783714 -0.3256073325587231 -0.7284619169363841 1.4743800816760027
Ni 3.39118616078336 2.8755163103481944 11.92533695989665 -1.535248120805969 -1.3409429129290584 0.6920144727426276
Ni 0.9264902429349076 3.404672757437286 12.599817146860545 -0.16523323021161865 0.914242118061419 -0.16724100467026679
Ni 2.9232583190539323 8.09045444967953 8.058163606341108 0.8205086956619997 0.3722024067094429 1.4317144244866762
Ni 5.855302399527816 8.055112139307724 3.270072175237826 0.23569868322203277 0.24717043130705818 1.4946164633275356
Ni 3.45132786782303 8.495840350579302 3.408324735792466 -1.1865563956239567 0.004024290668044683 1.0286407821196737
Ni 3.0707594785631214 4.2383962287607035 9.031353341343157 1.2040571235118813 0.12275629199433054 -0.256113756543275
Ni 7.000123342491523 6.1315919524702975 11.343719553895848 1.1997718658729661 -0.9048491068822933 2.0732396302305003
Ni 0.4478582642507383 -0.1760204656772325 0.008437048208953626 0.5361403151484057 0.7042932901099807 0.5321121678256191
Ni 4.708932626458116 0.26640874146513566 1.372675589521455 -0.2106545957692114 1.764939164381341 0.03920418100328732
Ni 6.015701419100934 5.589628220177277 0.23237795506612272 0.40429954435430365 1.3852615323407755 1.5075568255382876
Ni 7.696689303317695 8.600988705552725 11.378199591600458 1.4221656044559763 0.28119281099908994 1.5446961535927461
Ni 0.3316099601843773 5.01762080682242 5.883719356104059 -0.7581113643717008 -0.5698017119565929 0.16787041072414963
Ni 8.212024026770862 8.87638156738121 2.4662746376582443 -0.9094130721038919 1.163215921125803 0.8659891965923021
P 8.682216240000278 1.9242266707454234 3.64773764023475 -0.5524760761939518 -1.5041570558281192 -0.874212612943359
P 1.8947264388435856 3.6359828349040146 1.4266165416455585 -1.305754023732751 -1.045683082313941 -0.7940916391210517
P 4.685645829952245 1.0395910706162859 8.203946560756107 0.8280929357671608 -0.26433717289433184 0.2662495594256963
P 8.532351076645101 1.59008695472126 12.349984510523917 -0.7257838558835887 0.12713668045021329 -0.09258902438233085
P 6.4762021223104025 7.592392352028268 1.3023786291786414 -1.3389626492742361 1.3982502312909595 -0.36553373644001563
P 2.000526932809004 3.391104643409361 5.7236065530885405 0.21018048434627026 -0.681731859869697 2.8268135117431643
P 6.688980583421234 3.7598167834953338 6.122880462435545 1.8036152407953003 0.3241045227609515 -0.33189676511186067
P 2.4208576856086936 8.472082564801433 10.285211018020068 0.9985632460080027 0.6115106616596049 -0.292407962988619
