# total energy = -340872.2729600448 ev
CRYSTAL
PRIMVEC
9.29870446086414 0.00000000000000 0.00000000000000
0.00000000000000 9.29870446086414 0.00000000000000
0.00000000000000 0.00000000000000 13.60959390592694
PRIMCOORD
 96 1
Ni 7.7894783089123285 1.5972849742608173 10.696746182919414 0.8522957582656097 -0.905712483323853 0.3397836240591051
Ni 7.7523764777535416 0.2862290040093539 13.54298851869871 0.3402099129632464 0.5429784211161616 -0.38164349751768467
Ni 2.433777838266374 2.370807011046498 12.640577138130585 -0.10439681565053632 0.7400095125646675 -0.39372511127256704
Ni 9.06979834114067 8.4915212038139 11.513240323046977 -1.311869906822502 -0.4762138139961024 -0.06304267818378174
Ni 9.26365773362147 3.6658654899882923 11.41503298480126 -0.24170323754489983 0.8199726206528717 0.060979110786533695
Ni 7.75132572413927 2.9480147973498947 8.712195270608634 0.5320278356419288 1.1490488855968015 -0.3059885298865311
Ni 0.5900809128839042 2.533013613235441 0.7665721850042079 2.1230470406709303 -0.86742850014199 0.2963443219285477
Ni 5.915231419597759 3.8213398300822576 1.6306059521491374 -0.6879187054066991 1.9962677435601361 0.1661004633079204
Ni 2.038443414277443 5.634559321428126 13.197427270560315 1.2344380497965837 -0.47625238054352176 -0.11208492832341342
Ni 5.887967617854008 4.198495286673839 6.949263173474976 0.5884365534489607 -0.17294756813674086 -0.14784511664215827
Ni 6.700255953913119 6.661954589867243 3.8778090030800225 -0.035186060982829725 1.013627339429977 0.5470556765093288
Ni 1.8233178844883355 9.20435989469927 12.025886273781808 1.0163061718137205 -0.19913939604076025 1.3153725206591216
Ni 0.27975245628953055 8.529999243246246 7.260310419931147 1.2539529799010598 0.2762380380969759 -0.5429761071233165
Ni 3.624225891008581 9.420796541830079 10.438027396324415 0.015536405072702273 0.9686703151033124 0.3729441699714738
Ni 1.6992173735496956 1.437691308050726 6.805518219301736 -1.6598977731682703 0.5729564555354907 -0.9728784396473891
Ni 8.690811039752527 2.268409676530066 2.954098939737663 0.7554762407416988 -1.114448779024429 0.5252491221571987
Ni 4.218217839026668 8.20169918036601 6.620468419512624 -0.07626483330101058 0.05113332834070548 0.37342393782136973
Ni 5.1747941736048 8.41423967028992 4.35104146470467 1.0294604498074915 0.6107280178573095 -0.37924311560630813
Ni 4.252009331365271 0.9478727471183273 3.105940275963523 -0.6546807692891758 0.18810242150030831 -0.7438625677621705
Ni 5.722497170367637 1.9849572656996628 9.310446025311112 0.7123611547197796 -1.270217264278722 -1.3665451868781948
Ni 2.314205796444108 6.717384167696197 7.733651676399043 -0.26400935724126795 -0.7211954651819579 -1.4185123239741053
Ni 7.266984100187454 7.452344476708572 6.662141493828719 -1.0063984257817054 -0.024824772353163698 0.347145463740815
Ni 8.106945380990563 0.3274417924501711 5.511831299281225 0.6769652917189889 -1.3198871207000238 -0.08993410325798705
Ni 5.491861401387338 8.622884003006929 8.92967616226053 1.7478058471351643 0.6469643744815246 -0.4733123240785913
P 3.6753780647440424 7.625225991722148 9.089044799820485 -0.5229919506919057 -0.6677167765375275 0.03798727787705071
P 7.934649684363704 7.376206683844375 0.7269875997302838 -0.33441258955517894 0.7205750579891397 -0.007703796402160926
P 3.593093828171584 2.1559325462802694 9.355643308652065 -1.4710643870392082 0.09406406626596057 0.13245269334648802
P 1.1705302275938054 6.425442039610663 3.698651792364926 1.9002555524288696 0.2115323703884744 1.4129407434235988
P 4.088547404061934 2.843367176332103 4.286586564238442 1.8002668931483574 -0.6900064411736633 -1.2649094789125637
P 4.442102748502887 6.004722152197298 13.12510566604388 0.7271586247439283 0.11771975801168758 -0.9699761783989295
P 7.352615870398299 4.968530309252867 2.903239675195561 0.16268783808194562 -0.686734712400927 -0.32076465975444113
P 2.0276290208845436 8.630611226488872 5.731748451525501 0.5225124399523259 -1.0737209622877637 1.9883088937243758
Ni 1.2144480091885301 0.7009633153031917 4.365195952772316 -0.6914431736201898 -0.41042211231227377 0.5024388091309023
Ni 8.95609378189013 6.074090488148315 12.950290950354134 0.36041492715621154 -0.3451243195457282 1.3646734237767788
Ni 2.3839553792817174 8.593332719943614 2.352921882712961 -0.8179172807857398 -1.2398461081860326 1.4611530414627676
Ni 5.582719043555886 5.526080634135291 10.811611220497928 -1.819614187326718 -0.16827818768552955 1.085362403181434
Ni 7.674574216774701 0.5883281070760267 8.229544151144204 -1.8854894498632881 -1.192344205950327 -0.23934039373967816
Ni 0.8107865952741118 8.070606043604963 0.3996890073301993 -0.5223607448658101 0.28165303846496015 -0.010295982609369364
Ni 6.862471854806612 2.64464456137109 12.66922551698199 0.5484908662939586 1.096593496010563 0.3357500774196798
Ni 3.865685352086332 5.693457316054632 1.7141008800541453 -1.2448407331871463 -0.2923858515014319 -0.5059133979430642
Ni 6.065591472188633 7.819317851816726 12.96049813833985 -0.15111941651805585 -0.37548750521861785 -0.7345682869444381
Ni 2.670206700181994 0.09853372277546063 8.167293973527036 0.5496026113008986 -0.7974901232796394 1.2557046724848437
Ni 1.2248346621720803 1.5762141097480824 10.59332692077282 -0.37321362158277654 0.1478227480446551 -1.0473530138171963
Ni 0.09864902671189395 5.532617623434697 9.285540375041514 1.3258669924325424 -1.1870644456086266 0.46133663977395384
Ni 2.74702329847842 1.178090074393829 0.99926017807893 0.21083303032860465 -0.21739911358189656 0.07243363248037848
Ni 3.762367445819344 4.610446495695539 5.998020575827339 1.359811210588471 1.5664050060247474 -0.5631422976585462
Ni 3.319042407642317 7.906084063982802 0.12467238126853096 0.5259703165939394 -0.18375442894425775 -0.07869426867810962
Ni 0.9686832479036319 5.726105067733455 1.8215083565826962 0.5851290863422826 -0.16068880537404584 -3.212776462571809
Ni 3.928228438896859 4.41815858428387 8.979487462799725 0.043938353254163044 -0.3785288631481029 -0.5797454534328661
Ni 1.4298246040005171 7.7243687796457055 9.712133324249338 -0.32607115956901905 0.2091345595802592 1.0062367033928605
Ni 7.712671009320454 4.914895381402269 5.167318015145736 1.3298321477278776 -0.37276444986049995 1.7980236056401355
Ni 5.736454525898801 4.196877312081952 4.208290542047941 -1.1433178966502955 0.3133693957316345 0.22368571792155667
Ni 3.3796885587244248 7.052853531785311 11.11505026689041 -0.2598408276858751 -1.0710362163667488 1.506791408127173
Ni 5.710873789678795 0.720126085642046 11.694016438224415 0.18377114111480608 -1.2738507472662512 -0.07353432174372497
Ni 6.3377087621712755 2.0307440869091535 3.0758366498498746 -2.0989977130312107 -1.3989909661117261 4.508445591264732
Ni 6.002853112582533 6.412749307898447 1.4175893685522134 1.0041214568220707 0.649386867880088 0.4443051382129638
P 7.157891698394248 3.993086903140603 10.74741482401822 -0.4282830517530946 -0.5824062880944808 0.39847419592177824
P 5.288786992696422 6.525403113534714 5.595897167645669 -0.12373768207099337 -1.3365411843169368 -9.02457209611349e-05
P 5.856630983516887 0.5551996123719136 6.89244250944518 -0.45138467076756456 0.6471793187058079 -0.14457313075910588
P 0.11993655104066873 2.496562691395229 5.038489112942875 -0.7956666969176556 0.5440852810270952 0.1542052545322312
P 6.975116361738329 8.470385248369308 10.621063096707765 0.34388427649104 0.24648703208678835 0.3239523134538034
P 7.169766144105971 2.094244940288441 1.3684856994293544 2.3692569078369328 -0.9932022388064056 -4.336758120787338
P 0.18696254331526863 1.4735843076178734 8.30287280536352 1.4081060410391169 0.6946359695258747 1.2405757872632053
P 3.7873065714253253 0.567387424427007 12.780715124808463 0.5387196458398077 0.055698836224200854 -0.5648484817163756
Ni 8.369745369013028 3.9858897058180713 1.290543028011793 -1.053600794499121 1.9009862599473069 -1.0009060352085664
Ni 6.86634011589986 5.268757583093408 13.129828478085368 -1.2890205130281542 -0.8883043151497346 -0.5336782267611583
Ni 4.9978212285887516 6.355106638386337 7.768519958724662 0.332423327039292 -0.9381400077249392 0.7958667287436035
Ni 3.7451276475816515 0.7405962538407813 5.443088766146497 -0.4507647777953785 1.5377343775629324 -0.5206787291776969
Ni 4.188833932645272 2.334597855524614 7.198739977616663 0.3977329468803795 0.12297483576303983 0.42746852627159926
Ni 6.040550060832588 9.016619049813075 1.6424469225244758 1.046952693054984 0.15394634444388972 0.6139935759824587
Ni 4.434310434089087 3.723164107432013 13.3730323761369 -0.32455266604196364 1.8006512730709696 -0.7428372118214497
Ni 8.343151073996955 7.597367072887129 9.00237901366356 -1.0270760087357151 0.9059711363018783 -0.20973002707241298
Ni 5.216517460925472 1.7371002958907729 0.6165375870726213 -1.009952718791867 -1.3020835168596994 -0.5081176046832346
Ni 9.10709544509503 7.760987078167837 2.6687328555106484 -0.8748067948839321 1.3053465038816874 -0.8085083287670138
Ni 7.311748063896326 2.279419342718538 6.102365059076766 -0.9764080500672022 1.3754797703636634 0.4656334673770949
Ni 2.475064086473145 4.082484648694633 10.914091313484864 -0.03791477276790245 0.714333447954802 0.5367702354229208
Ni 8.959246042732945 7.135081976130462 4.9732447524602605 -0.23217010124348403 1.010748475220285 1.1879568755159091
Ni 2.0545487705599044 2.3529906931266393 2.9855638961975886 0.6343294593263333 1.5510688898883094 -1.0297931505565618
Ni 0.15513679711876113 4.393451926291666 3.489935859622874 -0.31922096941640504 -0.7338393791982136 1.0016871363489654
Ni 6.865670609172182 5.162705857688404 8.922518019497112 0.4361655398249649 0.588908865099689 -1.1946656549946522
Ni 2.391459433854435 2.9328951037498476 5.30672140416408 -2.785980536887202 0.12591232112480896 0.9517884517463091
Ni 4.760797249581863 2.794223522779674 11.158764406855466 -1.0063310628788797 1.2140294042332447 0.8752017163295057
Ni 7.82471110045635 6.365865239551929 10.88933537235854 -0.4707347931594022 -0.18797952276919885 1.0501208063703205
Ni 2.581961993992297 4.599557712666232 3.5303015360790884 1.0018144059554488 0.20093351182670557 -0.3598762810439221
Ni 1.1520908964690246 5.182716669882316 5.576231337390602 0.10035684125320782 0.4744958028637312 0.5538081647418139
Ni 9.25049076797715 3.5633193761990434 6.926657092840858 0.387828543282474 0.28015099999813686 0.1634278015717637
Ni 3.422406807432061 6.805563782954036 4.209202744964401 -0.7447573116622981 0.02420616493255831 0.01536594093310902
Ni 1.3054730280389981 3.367572346694375 8.987354166849933 0.3295814867151227 -0.7248101791164098 -0.14234578409048387
P 2.2124407738371485 4.4716354341571 7.422196216813079 -0.26338920715876574 0.5313637196953688 0.20671772260865046
P 7.370683253341036 8.82592121687964 3.7100845496104724 -0.2268029233942997 -0.14360948129425588 -0.3727037718258936
P 0.8014655738321148 0.769473380824143 2.2459096011278312 -0.2725685596651886 -1.427195196460084 -1.8122592896235432
P 4.374677841803047 7.886175537538952 2.260948395998284 -0.17060966403218358 -0.9626894149295292 0.7518581843731373
P 8.526242566607612 5.764657496802209 7.382796675759722 -0.7010866102472247 0.2567297928607191 -1.4699181892499071
P 0.9749040812483007 6.092966858386995 11.33819406961391 1.0420495993264118 0.24262009293221437 -1.7068594866297893
P 2.808934073379474 3.6863226400006566 1.16892527118829 -1.0658364173333645 -0.2936546909115265 0.47496014409465953
P -0.1074576895331268 1.7659076825900015 12.547079593739987 0.41949347848592267 -1.2452742211801393 -1.67280239704508
