# total energy = -381170.01322767866 ev
CRYSTAL
PRIMVEC
9.19708870477878 0.00000000000000 0.00000000000000
0.00000000000000 9.19708870477878 0.00000000000000
0.00000000000000 0.00000000000000 13.46086897541328
PRIMCOORD
 96 1
Ni 5.651905355061209 7.052438032722781 9.647230161437957 0.924647372555143 1.71600181525069 0.9615267620799955
Ni 5.927689258872347 4.906821602661703 9.439838568835741 1.3716855934285537 -1.672145994408004 -2.5626547734082252
Ni 4.742432838014192 3.805985259609272 -0.08837390626728577 -0.6699680344655493 0.0064136168358276645 0.7092056398099335
Ni 5.306913358267388 6.635561590114651 2.06709168615594 1.522921480919816 -0.1567665875015042 0.4794112378874776
Ni 0.9449364913382116 4.144502505910095 0.8444546177072441 -0.14719565598361745 0.8302333791489314 0.5758057520588278
Ni 6.33778744705812 7.668026775262327 5.892159065542019 -0.5694106471657613 -0.39886294671976474 0.5840541081105489
Ni 3.5724803728667602 6.4845637867140224 8.246020578043025 -0.7461238529925215 0.10693552291199002 1.2105535298695023
Ni 3.852991580304887 2.585136105217165 2.1210289329474694 -1.763305228322344 -1.6028318813932136 -1.414938490579918
Ni 1.9948761451459673 8.6472408164406 4.935441103491406 -0.04440860802236223 0.19694058861722855 -1.030037148246568
Ni 3.3949949538129585 8.766609831566484 12.388267038078219 0.9041479670502105 -1.042703945080959 0.6681749471208687
Ni 6.672313156833431 0.7686632485840929 12.281966166383443 -2.382966287003225 1.7795142339820387 -0.22442542430105866
Ni 1.392356465746408 2.5054801193935057 2.7502036150157885 0.33815431598579826 -0.4282311154692367 0.09212776847519617
Ni 3.88966037322475 8.025655572024018 1.0196288083535316 -0.3998584778638146 0.6953288818278412 1.3342194781622958
Ni 1.9685264858243203 0.7675237292856801 11.182738394156617 -1.5213973309658058 -1.0096231033665901 1.7614591762525407
Ni 9.085831585631071 7.856401547417989 3.877336274275009 -1.1312504239628 -0.7829281663050645 1.559821953490591
Ni 2.6445492986614374 4.953110550433378 6.364729398896455 1.2882532958448265 -1.4355173431725343 1.5818547649209143
Ni 5.442754359377588 5.876774175450135 7.174172539079914 -1.1026155338349268 -1.8352336390315298 -1.1322241007299791
Ni 5.846874439863861 3.1286656572558016 11.433783048889463 0.15590269683931215 -0.5674118715681776 0.3337983530099477
Ni 0.20528637898311275 5.358104354352653 12.415000216001507 0.7365683480936024 -1.794825410417812 -0.4481142275464089
Ni 5.50994828991998 4.181171298829958 2.3146230529792344 -0.18886423936699728 1.8876957134859877 -1.0019954116180034
Ni 7.694643150158259 8.719456357450573 10.526695336960108 -2.486372199495402 -0.6906661862448492 1.2438063783853612
Ni 6.492418100522291 2.366070647841141 0.7314095208185559 0.10580526596228874 -0.17446631877411242 1.1238464181892451
Ni 8.69206742709809 8.735799584192133 8.519047194641375 0.04690874873639663 -0.9563974112732303 -1.0919883931383836
Ni 7.850837308713069 3.021804682855028 4.988450364026198 -1.8530038185307571 -1.0733892899799578 1.6396410798017633
P 5.70528525827337 7.77447388066852 11.793848154465921 0.16126344693059325 -0.06070014609353417 -0.11010800710270068
Ni 0.19305792975656413 4.110988314437816 3.984053774090995 0.44993045481954125 1.1564608617901566 -1.7319783931846042
P 4.120709637266081 1.6332742060363006 11.690643942559486 0.15747004132643203 0.3942465309936759 -0.40057144477043916
Ni 6.8340163715605495 5.370373270769783 11.33845338438659 -0.10664781646824215 0.08469856589066058 2.1149609212286866
P 0.39255198223329874 8.055215015325857 0.2308846361523763 1.1757899011360717 0.8455388991577503 -0.7742249821041117
P 2.9593932384722366 0.17173631886463595 2.9211434659930755 2.1155273352551176 1.1649215909630002 1.1613415869212258
P 6.604061561082665 7.281657076099188 3.8860587932630195 0.9463991624099379 -2.480302082041922 -1.9056109032035118
Ni 5.579735799495079 0.4065940973649883 10.106501504433194 -1.3627782636365948 0.8932187217322166 1.330927180564269
Ni 8.645934829835479 4.135710089047445 10.330544426250711 -0.4768925852306819 1.088231497199113 0.7675748237774459
Ni 5.745531718724165 8.718214750466831 8.050474835774592 0.6447719948158959 0.2770785317204002 -1.158305114087747
Ni 4.306546012921648 8.695635897540253 6.206590975775992 -1.6021502819451567 -0.2031228061685405 1.1151889996245632
Ni 1.1827456156243636 2.9871040669316167 11.163772157698292 0.02629595758205149 0.5891736887253014 -0.37020414533249146
Ni 4.471937260244921 1.1038621852572552 0.2890304707643541 0.8797345712028526 0.7226558517775683 -0.026395202164077123
Ni 3.0901666436710147 1.8552735347294647 9.723687399787943 1.973481598903556 1.2732758485993878 -1.5929971546909791
Ni 5.906867049900545 0.3213545589499948 2.1582081642939817 -0.49808233193441953 -0.011122078055090523 -1.4408534106734667
Ni 4.638303398977651 6.217691861919527 12.977058223073092 0.2619411618583295 0.6946552527995843 -0.0719435802178374
Ni 8.90899915987983 6.531358574367963 6.740220781464254 0.40070899878956795 1.1046184231975686 1.2215611938339155
Ni 4.138837099228723 1.6555311608559815 7.475372597702698 -0.12757325376699963 0.32655658384586983 0.22234025963725576
Ni 8.545539408838934 6.546579756279771 10.131605877935591 -1.1108191526916418 -0.4586210406150037 -1.4369872428498414
Ni 9.108805913374693 1.7638268811046356 7.00335408967437 -2.9192302722136882 0.5492125749513316 -0.6199942736505839
Ni 4.13484556270321 5.564045566056081 10.575720418640403 -1.2547317670486133 -0.1641924476519301 1.2548664928542648
Ni 1.5267995093638025 6.6371526864715955 10.825608079606177 1.336401059194647 0.4238237304301605 1.067125311348117
Ni 5.1790370360306754 5.2623994486280266 4.651820360340662 0.10909165002304438 -0.2854168763827665 -0.11048133128171941
Ni 1.782285438262941 0.8003564164802168 6.9721382506853296 2.5880942965272524 -1.5702205231160955 0.26594848324550974
Ni 2.216893868016668 0.7920744380442157 0.9596591910387674 -0.8235325700899883 -0.9527729271467656 0.3547371600451439
Ni 2.748467204656303 4.722373987410174 12.414568872538268 -0.7069140155622793 0.9925463503899614 -0.8235346269725171
Ni 7.461230234303432 5.481271767139913 3.012852236647806 -0.25691439806769945 -0.6493017643654495 0.34856291291363195
Ni 8.725057384510567 9.062351418005186 1.936224470651724 -1.6587027244189048 2.2350170406830343 -0.4565937257723298
Ni 6.958673712728299 5.361369320865458 0.4278816790284732 -0.40919492477339203 -0.35087253488341513 -0.10462153006683272
Ni 1.382368427343857 5.753505594686422 2.6024165153042307 -0.2698766146553223 -1.4532808378035422 1.1250322109672302
Ni 3.5924564496718623 1.3653446160334317 5.074801830473298 -0.5539845424186782 0.7158059187352704 -1.6065527818882268
Ni 3.311531373239155 6.804420139903635 3.473805727178796 0.04380182767629876 -0.22571149010233385 0.06459742426541133
P 0.5066004815066263 8.538641592262588 10.474454033337484 1.6923350677613693 0.16550191049197305 -0.0918313202806999
Ni 1.9746885352991908 6.371053317133651 0.5394239716123945 0.5817082335861917 0.9967742724283802 -1.665603565303796
P 3.314685974686738 8.752372738152904 8.102649000649206 -0.3670195769569228 0.3308881213416882 1.3330614532984526
Ni 6.991010676838215 0.09068421496592372 4.104838221178344 3.371788908684696 2.5400779165489737 0.7835927964722569
P 3.169353577967483 4.574530785457129 1.8083463089972582 -0.085911098141523 0.735377670219611 -0.23436068113689962
P 2.1830209900824182 4.733962319258437 10.13752880310248 0.37648920701025484 -1.8037803056182549 -0.7437334983834739
P 8.986760545417187 1.0389767239957475 4.771339288013472 0.40225500312044915 -0.24094784743611408 -0.026854915409315037
Ni 1.5548690242851522 3.29360624722942 8.021291553403382 0.7851208030810092 -0.4790237726410718 0.3007735613444949
Ni 8.851434581278019 0.551791296879347 12.461157645403796 2.0997101657172035 -0.40242598148067465 0.04652822546852632
Ni 0.10468218407152466 4.295445126778113 6.402083374929568 0.24326852514949074 -0.17021319992471332 0.4612692768711282
Ni 2.1986744351663425 2.667900707044565 13.1685931149296 1.3481170620799945 -1.4338458690073823 -0.039378758907938634
Ni 1.371249147022785 5.869628037477038 4.90312161385015 -0.971998608145597 1.5414161972898937 -0.6625712277808461
Ni 4.945099886116046 8.60541245672163 4.104959622750089 -3.3832298035317865 -0.24091468020533344 -1.9628575435308064
Ni 5.647693088405253 2.2838578713398485 3.360680615617822 0.7531794742877223 -1.008108980714909 3.089805997684143
Ni 5.683598522957334 2.719735499343624 9.177364691890325 0.8326124209040692 -1.857146379944221 -0.6574809577421322
Ni 8.075264668841108 7.030273048790785 12.371965198236115 -0.8230453460409244 2.36495416669652 0.972776623962202
Ni 1.8917675829627267 7.256714571359117 6.879015887486886 0.2184959461905011 1.0616691733295522 0.24964460387916365
Ni 6.617498507773389 8.373986112040791 0.3023441764655814 -0.33664713531265245 -1.8651594800566844 1.0873434381672047
Ni 6.35310059985761 3.592879515755212 6.852282709563594 -0.37030878923115584 1.1620653524611277 0.4801429738471796
Ni 1.5287768834490223 8.073921893880913 2.3168984127405525 0.47462384380116324 -1.1134411636955213 -0.747592724228564
Ni 1.451567323237774 2.612138757841373 5.290000831731061 -0.26415873833493864 -0.8873823175560974 0.4926467627411451
Ni 3.1126443286211387 3.7524857942431216 4.087661738194363 0.5482646092157654 0.9390746037240665 0.0317279272309002
Ni 6.220745295390657 1.317593331147571 6.204720287920487 0.46645853438155155 -0.9300757426595659 -0.1909406622800518
Ni 0.05038533110914863 2.0044687087314745 0.833892680965541 -0.01064308153614296 -0.9016948775240278 0.2097025162685872
Ni 8.118674927828254 3.162133863284239 12.717007779018166 -0.005752329102744932 0.8872331935727429 -1.4982193501874455
Ni 8.68979574617228 6.784618807785134 1.5593608824396694 -0.7089500721557017 -1.4823780122798147 -0.4014242796890377
Ni 0.8235496349365273 1.292696811851341 9.214032565101311 -0.438669022973109 0.7014715043904693 0.37184013827401763
Ni 3.436768130999318 7.951637401615425 10.301657290137845 0.3048323047949008 0.5252092700581986 -1.7524608294086723
Ni 7.934567604861158 2.1405856225047293 2.889832896989719 0.5577776909125233 -1.1038504346832925 -0.40459804943132904
Ni 7.888545372663768 1.8420665152579516 10.558086840344627 0.17388782056282312 0.9807712121319044 -1.0985796732026565
Ni 3.9225123743057004 3.98911769116691 8.422963368859488 -0.8974924094069059 0.4841402679320307 0.03599801536116381
Ni 8.18524345633439 3.420801984897266 8.321334618259094 -0.47888827550447205 -0.47455468112612464 0.03515186531078462
P 7.18176749498491 1.2123050589262043 8.353425100390014 0.2222659547558946 0.8720269181459498 0.03269131958543402
Ni 0.9235716541290716 5.523799105605286 8.539319417704824 0.25682646633958345 -0.08495259088299563 -0.1343033734019816
P 7.053228982356869 6.830935346823114 7.853339836566968 2.505895100019678 0.9907807738491065 1.3094463849826738
Ni 7.530511903996265 5.569664987293612 5.399908801640826 -0.8338349804572607 -0.9965906956626643 -0.9656420697999499
P 8.0460455178237 3.849331138975039 1.6028529955168551 -0.026097725528316344 0.3275968521849261 -0.4607686830856258
P 3.7724802652257603 6.696998143087985 5.584847541432591 -0.6059946169373822 -0.3917996121150801 0.09175881517155164
P 4.883562165166259 2.9998880203197804 5.4808220294991346 -0.3457771226383787 0.5911449535190594 -0.8663512079174113
Ni 8.241336500733247 8.728607460775194 6.3377405419054 1.2175718701688643 1.4069511014990672 -1.4360858140814945
