# total energy = -340887.2192157696 ev
CRYSTAL
PRIMVEC
9.10867551062883 0.00000000000000 0.00000000000000

0.00000000000000 9.10867551062883 0.00000000000000

0.00000000000000 0.00000000000000 13.33146732883979

PRIMCOORD
 96 1
Ni 6.240043840774064 2.340282869046544 11.082995400927777 1.150343178928193 -0.1433073766728048 -0.15376353900912226
Ni 4.8511803375353875 0.8461895711905452 5.768578800619589 -0.21655219220056895 -0.985932701728186 1.1466053091523156
Ni 3.0027021808740946 1.903257730685424 4.76209384837915 -0.5949103340987625 0.6999077594477753 0.1923131171475462
Ni 3.482993527518324 5.045532145143117 4.821991587126289 1.8899104617491194 -1.0492764560921541 -0.7079455421505872
Ni 3.665312774885634 3.2476982238616317 2.8166319809655245 -0.5290170738400631 1.1153802896997629 -0.5227353545964094
Ni 5.558760462135077 4.641398433752588 2.5825718136968723 -0.8517303726804429 1.638652490636249 -1.757781213180321
Ni 5.563342125875374 2.8089060024674755 0.178721320573241 -1.0115092646457096 1.3325716581462275 0.12842634579591433
Ni 5.968286509378996 7.963122862817763 12.266989309041985 -0.20846118766231841 0.2761529345823373 -0.1401127809949071
Ni 2.1552401277262545 6.908074096665278 0.4535910863620653 1.4357801099156176 0.10739857859133761 0.14809579920038368
Ni 0.9643354675648043 0.44498612068521187 0.2448967584253715 -0.6622374985905111 -0.7245402132844748 0.05116829534369898
Ni 7.93337392886984 0.32056799041121614 6.7057412676475145 0.10660565037639705 -1.2661703479028583 -0.4770224259403268
Ni 8.75862903132416 2.445624700371631 1.1172500889153703 0.6383614633038619 1.2307544302974094 0.29005437515477783
Ni 6.822261265457872 0.990231431806674 4.532631740466564 1.1949687880573678 0.17787405890408076 -0.43821265216198085
Ni 0.9606646713673109 7.6958014563561425 2.3682018701009775 -0.05647016717258662 1.2645731786190673 -0.011006635523148787
Ni 7.631494207834299 3.900280166226918 3.418147956278685 2.2223242757067148 0.2598223157431138 1.185286270662281
Ni 7.4683031788658365 3.961344726296385 12.440591554024676 2.2306119696368034 -0.9759701911988353 -0.7168184191601847
Ni 8.473718772611026 7.092788925670157 8.972824088351837 1.8069170514750235 0.10633954119920397 0.034077915520315506
Ni 7.174603048364661 0.8240500246951923 13.421187828963587 -1.4907207278175552 0.10022340099913707 -0.9890707331365354
Ni 2.233009998530716 6.34539478077458 9.36927554288637 0.5134837540911544 1.4097859998447009 0.46743812468600143
Ni 0.562951665285996 5.365292196043867 1.0546088171293126 -1.036545381678731 -1.1824616567292925 0.23074853830560907
Ni 6.631826188284193 2.431050819686794 6.905366998328069 -0.5389746992734072 -0.21762742754261877 -0.3893475510301617
Ni 3.727160681041911 4.72317612174538 0.7030512911768764 0.4675777355876593 -1.084724769597435 -0.6903049462506885
Ni 6.0059053388967305 5.892065113397297 4.733231188550374 1.854461634023206 0.8682939334660787 0.062444382478150526
Ni 5.553623169193672 3.5856482995921444 8.96263876748822 1.9212216131575752 -1.3284882321054734 -0.16828281567121986
P 0.31749107985162994 5.606744964289902 12.196826093087466 -0.7248636580621645 -0.670246999158549 0.5381190361413313
P 4.300132800166275 6.318478644884771 12.610928338866422 0.25873345355430927 0.4121393521136967 -0.8576608792322648
P 2.6299114216313937 -0.21461314522982317 1.3463578693538065 1.0882088714912936 -0.4287754180084809 1.7725416593189471
P 6.310453901832682 8.083840138265353 5.725172318734888 1.6480902390103809 0.5040683743145254 -0.4974644958447626
P 5.070717632701601 1.0596031038664977 12.479559378373303 0.24962506349513783 -0.8515902475581527 0.256915426508964
P 4.252130080660594 6.197433457121772 8.302730717476177 0.25810918970674906 -0.03884165545754601 -0.05318583999436001
P 4.780670081047061 1.6430319823822326 3.494057835560744 1.0964860238984213 -2.734188234806259 0.3233121087666432
P 0.23392718060740333 6.0837116444029045 3.4782998270702636 0.4353600132045341 -1.8269554581831373 0.9026482425762327
Ni 0.9870525040822938 0.5259622452403372 4.834843017287686 -0.26925569324187176 -0.5245585238480772 -0.4150256725225561
Ni 1.9574998928593017 6.818125926813549 4.844961844820677 -0.14288700130593457 0.9915431059364278 -0.7627480918127638
Ni 6.338945838571539 5.9496957028304 8.804167854126561 0.021340927569621315 -1.0068725372046465 0.3315267833669516
Ni 8.819547852586778 2.189670920844182 10.033021988723783 0.4597955205390791 1.4704655771129451 0.9394124466794596
Ni 2.624564629155144 5.598674677860674 6.949307248592852 0.7447202877767755 -0.2428574057540011 0.6499993046531064
Ni 0.9041098165022584 0.14288596970431258 8.829244037579908 0.17942906209602646 -0.5592337066327594 0.3177001618965045
Ni 1.9282974794370595 1.35166367279063 11.466154565410196 -1.9546608666526268 -1.240386811180851 -0.5602881160392028
Ni 4.590672220293928 6.8983733573344335 1.4191616903149096 0.042305445636430364 0.4237262856203477 0.2227369808550422
Ni 5.766319849113439 8.2380226872355 8.06995031910516 0.7116093641554196 -0.18171888657146767 -0.6304332095957207
Ni 5.533492996497741 3.4564690646719205 4.444444277575074 -0.2573795106295761 -1.2822466846394305 2.503174615764721
Ni 0.49896504213921944 7.607000979608345 6.8958211064795005 1.0943409525309604 0.6857543507655286 -0.32066053007640904
Ni 5.373508221279944 4.646617704772845 6.722059459676819 -0.5613615516090397 1.034881877933379 0.5594625348141138
Ni 1.2622346974382994 7.399833265673387 11.806734315736778 -0.278339657821011 2.283166089584436 -2.0535244111897604
Ni 4.636725683258012 0.3741971387287876 10.497717461300153 0.2711500820511072 -0.40820710693882595 -1.0060744667833834
Ni 8.504815790522297 7.732500309655647 4.629858652852826 -1.0765723156936298 0.17572050289618768 -0.051394809532208256
Ni 7.638544322615589 6.434149714145236 6.825924774715023 -1.838023028851209 -0.09916847737206147 -0.9895427876769475
Ni 2.5709965089629407 5.7466451101889096 2.536418155303079 -0.34696111564415083 -0.33080301782704963 1.221682035682496
Ni 2.5902522488177815 5.4617621775020595 11.68063199137614 -0.0009803616353983118 -1.6058678400060602 -0.7084193964632122
Ni 1.1049734161734808 3.700618000844652 3.8305568992955723 0.16309844325680298 0.5101647170202503 -0.9167078059930922
Ni 1.855847075082564 1.5754365020308732 2.549216755146994 -1.1670916020311253 -0.324161601251132 -0.04581808677537915
Ni 1.3478289204354321 3.479851034495656 8.203385127185356 0.28581565448308194 -0.6133973371593565 -1.0283265933133645
Ni 3.823466706342399 2.9292589308979444 7.046200783458448 -0.2659212295520001 -0.4445565921021376 0.13161759903970235
Ni 4.4207498801841565 7.183420246178987 6.218596553611241 -0.7385439837627344 -0.08678090234098602 -0.646217469013171
Ni 8.393352929309577 7.678185278078345 -0.016762695390190888 0.5913280160641429 -0.9538404491793315 -0.020802024347015786
P 0.7747210820471905 5.691136842130537 7.924130445045482 -1.6063938877128592 -0.23478671293072467 1.0257086960745432
P 8.644834349201867 1.8557924230299958 7.949806890209536 1.0443419949050143 0.5732562461640965 -0.7102276533165445
P 2.1165464745080125 3.31423709786334 10.60624823989259 -2.063898812445549 0.9448948099502695 -1.113370972579218
P 4.3580275411867895 6.62262642610189 3.7167066542531693 -1.6301089719416122 0.7405736125982536 -1.659859206620851
P 7.398630920516889 4.1568169009817595 10.185134135769143 -1.567259897825875 -0.6913562703333384 -0.6684459413940682
P 6.932968106610065 8.043661770952344 9.927344047275405 -1.6211499629761115 0.7662244803971385 1.5596437760415138
P 2.370714953651569 8.419695218647421 6.243206372882673 0.3085565477240234 1.0872148830091406 -0.9438627691413293
P 7.126026482307013 3.996986973246239 1.2395905303242338 0.4341014582070847 0.9108055815760443 0.5497496784017242
Ni 3.1299685939544335 1.7676386622375884 0.3960269902595878 0.3014677591980421 1.640692660994729 0.30907822455544837
Ni 1.8131547133514199 1.3425732147134628 6.999780240874614 0.07574109958705665 0.09202929522411893 -0.8186163637352932
Ni 6.805583280749161 1.0958738494208857 9.052039505946725 1.415552212904517 -0.34698245580038956 1.0301068251422387
Ni 2.9594724072926972 1.6697932707897645 9.177488738279173 0.19434120332116853 -0.02342660645405643 -0.21809922497271467
Ni 6.573776599781403 2.1318672665779475 2.2523914381064634 -0.5535356278067176 -1.2558494255928243 0.6163181103505773
Ni 4.7763161341924665 6.969949328847838 10.3443519605159 -0.6859443552891477 0.160691119366891 0.40760135503402706
Ni 7.520313715559849 6.11750483024087 11.030176013855757 0.3468312749345059 0.44345101774278467 1.1853083821494685
Ni 8.025790549762561 4.155778511982965 8.023597180719495 0.5173306386410704 -0.12030063136498638 0.14179968177902674
Ni 3.283768578556603 8.792567955968975 12.604889287057645 1.027325662852676 -1.357040075601237 -1.0168301626379905
Ni 0.4565996818559413 4.7098774556204654 9.976150151953837 -0.3495784986623399 0.711909926114974 1.7966616922956025
Ni 8.988686846609738 2.694965581538335 5.77644505271923 -0.16179103729928912 -0.03954588061342222 0.11121923788900845
Ni 3.8548005498147986 2.585952954015754 11.379393521090732 2.178070705204978 0.9348821629092737 0.7194417157156449
Ni 1.3756012718154744 3.2195433081136127 12.747375385910665 -0.6613892916576029 1.4923042702545912 0.4587254274033519
Ni 3.4262555882771686 8.449489695972485 8.07897610558679 -0.7795335388012188 0.4638979727432269 1.342239777363611
Ni 5.658500458071931 8.325948731142207 3.193885991167957 1.2034482862832887 -0.23855209351042786 1.3005495967136764
Ni 3.212684475516311 8.666795365658832 3.6026022771663238 0.02529271312851773 0.18661015322549795 -0.20740883513840408
Ni 3.4858445429272953 4.178869004193004 9.241426174578638 -0.6136544474754851 1.2495903320569899 0.01202684925754703
Ni 5.250395364194784 4.641963171629126 11.230841044402649 -0.23000368971978455 0.48379805410126353 0.16828461544343276
Ni 8.308560269750112 9.35861748176804 1.9855619001179552 0.05268858864296732 -1.0916554352789973 1.5911927544923885
Ni 4.88268724584092 0.29454632644843975 1.2580483502115798 -0.22282954056884846 0.6861914383029473 0.024954098842176378
Ni 6.304178024462775 5.681053538431715 -0.0008635024305765886 -0.24664232671773004 1.1285016575730693 0.9919565393247626
Ni 8.794990863632828 9.10050494616415 10.919351670790542 -1.0435030439434867 -1.243463907444278 0.14563448214408467
Ni 0.4024504281714297 5.255368700978484 5.831490600065859 -0.6236557816625711 -1.1122355734231941 -0.8468632743961286
Ni 7.523784120897926 6.240763426132878 2.328233913190355 -0.37404177391102683 0.20368742042275886 -0.15412914987865714
P 8.777402011381316 1.7453588421406439 3.4833259941714467 -0.17488386592750524 0.7397536878001195 0.5937505094627065
P 1.9776209568798044 3.668682984794003 1.5781126308716265 -0.6547540457292723 -0.39547757518729953 -0.5840091138052265
P 4.975750582689032 1.3036609532849484 8.162350544382113 -1.965803513533008 0.40590828360232034 -0.9746933813689407
P 8.797541292752674 1.6165803889392534 12.306957265952608 0.20557126770903306 1.260815768459164 -0.6169099782983053
P 6.629758518962032 7.948703829615202 1.154170283027776 -0.08303069126993441 -0.2660289587744579 0.3035105006596837
P 2.204126388748455 3.742581668541554 5.788056792154874 -1.6742617551994263 -1.9968071610033737 0.8408661762724293
P 7.3195858351525045 4.316455546533293 5.904880108856983 0.19663128490692589 0.2624306999002384 -1.2539838331389952
P 2.5293698622568748 8.673690632957845 10.405023936674418 -0.15178944600188696 -0.8222123086166678 -1.3198274711066817
