# total energy = -340854.41097623896 ev
CRYSTAL
PRIMVEC
9.41004881458515 0.00000000000000 0.00000000000000
0.00000000000000 9.41004881458515 0.00000000000000
0.00000000000000 0.00000000000000 13.77255762245135
PRIMCOORD
 96 1
Ni 7.621443125656318 1.8198940138467048 13.346337980531846 -0.6378894087634498 0.5012337330792077 1.5551235195736572
Ni 8.441745303377292 3.701677918174073 1.6561497559397533 -0.8935676204312031 -0.23500679936133076 -0.1375856436976792
Ni 5.210560411528699 5.694566267826846 10.199680733387625 0.31681261708522857 -0.08344232488605628 -0.67467598146418
Ni 7.085211498920635 0.6085412641722899 4.410482310532833 1.1337423371467186 -0.18658315664230446 -0.04676142452525495
Ni 6.998422619507048 6.722360019988847 0.3596690004521532 -1.574890160677623 2.4081551275640267 -3.6116826038246828
Ni 0.5868266357287476 3.0242485102824896 7.274596257600235 0.5744348398532301 -1.3241142714074938 0.16075873938003282
Ni 4.611864881339976 7.217130972031234 1.1400537514711404 -1.3520387657319035 -0.6576159406580997 0.47105900926804034
Ni 3.4958142821629026 7.063417826067782 3.7788732529099893 0.21363219034029662 0.44667106734197914 -0.39434114759001115
Ni 2.354347141372894 2.2679440739571346 10.878461424276473 1.1871670326247619 2.170355338838591 1.5713482089626358
Ni 2.7247831195790346 9.254811153626832 0.5550413731370517 -0.3057985253629121 -0.4477894972171385 0.48386593122472144
Ni 2.69192322942266 8.721647202776309 7.457248126415321 0.19943198758051459 0.03668964211154972 0.2297272961299463
Ni 4.98079525174972 1.4849339193431794 3.6424284873663417 0.2923668253380384 -0.24461475476473998 -3.1840803801886968
Ni 7.537364340276247 6.650523708003233 9.831072186644361 -0.009280139750345308 -1.8665231931734307 -0.3971565055516192
Ni 3.8513353331359808 5.393661139668087 5.6033650165649425 1.6569911410444365 0.4940079047547299 -5.275654032841695
Ni 7.293691128478046 9.042313433262786 1.8339808567917488 1.3482373897079427 -0.25711134456985396 -0.3154270495916116
Ni 9.764713464023016 9.18161979462446 5.303164701055871 -0.6070215155399997 -1.6859757012022447 2.2659484401545686
Ni 2.1227282019945997 3.7051219960083324 8.922482108747511 -0.37534172366937296 0.09447904231619211 0.23643453294679284
Ni 7.638258882732333 6.258849249819161 5.121091550237526 0.763234287420563 -0.8128084988042646 -2.3802018368842104
Ni 4.404213336070583 3.122715260166884 5.115485984210564 -0.34797027363495553 -0.45700098851307747 1.3276891332429457
Ni 8.900221697477775 1.8425440011337593 5.398113033721058 0.39735705159819956 0.48438606539424967 -0.8179684457386494
Ni 7.174955133634651 8.343974897098732 8.470659560102234 1.044203669554937 1.1389670758807675 -1.738118187533755
Ni 7.0285912357273626 4.420323339492037 11.908276454905138 0.2174734184632577 0.23207137088209065 1.5022426124142256
Ni 0.7366148503679674 0.5986898841594868 3.334171288136798 0.06562586552992569 -0.14788496874115822 -0.8685186478823751
Ni 6.742149352462746 3.106699357232706 4.772563106473842 0.8165437974769808 -0.07619618484660426 -0.5600924550886289
P 3.0162687889615833 0.0864407076106693 11.641970193907591 -0.6154986997730754 2.18335766463553 3.9099753077288533
P 5.154561211551441 8.937052628197149 2.219585833546594 -0.1537116027252643 1.2141168217407285 1.5763659738922011
P 2.184768653254902 3.3703689225768114 5.389436027789446 -0.5737493837504312 0.8035607549537517 0.15444488134686304
P 1.6616922746402416 7.781432774121003 2.624759947635115 -0.6213276477500268 0.5684559965619759 -1.022205310906975
P 8.963146693318462 4.65834111200502 3.679875776277365 -3.769358076293702 6.13879856089635 -0.8695445180437282
P 8.747139024779063 0.6759868474216598 10.021739534965517 -0.7518342731137374 -2.672237247024759 -2.1287757156245917
P 7.642672195585522 8.0689285828431 6.074262674985704 0.0849055396951441 1.8997346469283924 0.6760540927586293
P 0.5067621771358215 6.452319851656234 9.532165752835319 0.42361881350820585 3.6781067968861882 0.8376024179194929
Ni 2.1103445778692302 1.3767089489283844 6.222634677291437 0.05891605760991789 -0.3585009979629503 -0.03581675258829315
Ni 0.2670091916374897 -0.05915909433994729 12.133760983517984 -0.572699088109046 0.5500384132867365 0.4487454333725046
Ni 6.81495489946729 0.4078221018004351 11.680919326595522 0.44672660317026286 -0.9176202905050326 0.5036618829047261
Ni 6.359395620472328 1.7611376695922938 1.7912451204958795 -1.1714984728495694 1.2092687496198078 -1.452688455635182
Ni 3.54601689212403 5.218662463483063 1.3328807059752543 -0.5673637919390616 0.4878516553453469 -0.5128803161792006
Ni 8.42032803247354 2.2132528707529966 11.199100365621641 -0.7629352681229054 2.588663538767161 -0.10619555942217193
Ni 6.068662754987978 5.057327178050348 6.242122888206056 0.09836037964846932 -0.8468061959059482 0.6722547736171971
Ni 8.958658100075452 4.890120022211682 13.382449983528439 0.5710103875527134 0.4602374931725041 -0.873153318440909
Ni 8.011630796141448 1.1115714159827912 7.408795785517504 0.3910254529532169 -2.955287165837246 0.6488171114195471
Ni 0.8064374119258997 5.369514954633361 7.084107700204901 1.149124990250376 0.0761067104565915 -0.5877014750551491
Ni 5.792186113325767 5.142779830544631 1.4310237501834226 1.044383389665911 -2.13287482539463 2.536952226435798
Ni 8.968698622067677 6.974878677590883 11.5472429973875 0.5175656374700119 -0.11602282992523888 1.5540079179119752
Ni 3.276823628176891 5.3970675773074355 11.345405921226819 -1.6131281211128992 -0.15145545970123594 -0.6179242784954325
Ni 4.05458297560091 1.487333481768688 13.16799685503882 -0.9114956656645333 -0.15139735276979088 1.5730844749274522
Ni 2.562704440296848 3.82182542032659 13.211587023759146 0.127142079766852 -0.2449536261613975 0.2809171887402001
Ni 0.591601294453073 3.183955857285351 3.385887033933306 4.1572478118314145 -5.183520350829228 -0.6623467704748658
Ni 4.934610732595227 5.315200153378323 13.105868890325354 -0.15378693604788998 0.9006911188498619 -1.55049836209682
Ni 5.63309982953892 -0.6151442953643657 0.026848751029257746 1.7495667956903287 2.419674441057536 -0.6659833387861885
Ni 3.8759614306558063 4.189212542745026 7.35544080923267 0.28513096971123153 -0.4382908136980839 1.8602874966763638
Ni 0.29580017672410014 8.472375011985253 8.300004562409818 -0.15158787151404218 -0.023327876092663048 0.12141083371002961
Ni 5.094205159013359 2.0360992934093805 11.384272245485946 0.9155430962610297 1.5748791049340298 -2.188163827774922
Ni 1.2564014759474997 6.200920989852768 4.084968022941957 -0.8136297091539794 -0.9523245267554373 -0.0978135060060638
Ni 9.144139570542892 4.740490837395957 9.013505510088466 -1.3634899449916387 -3.8664233912798314 1.1547929871694305
Ni 3.0123259785447676 4.392911867548875 3.4862470856216694 -0.033857829089709426 0.02212691380602641 0.059638023377606965
P 4.17685714876584 3.804078068426555 9.671517282430885 0.1033506337742091 -0.9527986381783784 0.5422461709358275
P 0.5017475621689452 4.0938605189894295 11.474605890255177 0.23856186370244076 0.5122714789506081 -1.699616946134763
P 6.682263802361036 5.002005501581469 8.398780902897347 -0.030910316425611283 1.3930146939236332 -1.8518787037873783
P 5.351664092197324 4.522488238526332 3.685082356238282 -0.5873518050252142 0.37073019303929056 -0.4409017689583697
P 2.3486634719414936 6.050219059482109 13.196024685173633 0.5385095867115306 0.5675106019295709 0.8439021348852758
P 7.930939628303272 8.849990857370464 13.391856268236433 -0.2088249987596404 0.7253087160193831 0.36978017042119543
P 5.987425804323607 3.520045157636174 13.765395680512896 0.12796251878561835 -1.8761776855440593 0.016685431075480938
P 8.447118441200686 5.956156212402178 1.375158172898095 2.356483410221348 -0.914016375203858 3.047234699980836
Ni 4.561370559868297 0.5172007441892197 5.481423018120094 -2.0124181280677536 0.25339790027400877 -0.3138630475386014
Ni 4.2477712759761594 3.0759661380887424 1.655047839233765 -0.22250378179831357 -0.8790766259038796 -0.20108829223701494
Ni 5.469280291242148 6.758918059295122 7.9396862685954686 -1.4937700561668403 0.3977586579119924 -0.30661587905788484
Ni 6.551238283879548 0.9739024030996984 9.438484953733722 -0.07567913600086966 0.9681278123362812 -0.22119868983364485
Ni 4.042594573522096 0.3558240545421032 9.986563831817309 1.1208228008715728 0.01736780185448622 -2.8621160436991997
Ni 5.797211079346243 8.047464261695708 4.420743027665282 -0.7555379472175697 0.4862393165529045 1.5235408596713695
Ni 5.727247367057399 8.128456551093164 10.382525508201622 -0.5133706255520577 -0.11734154873666244 -0.10161231092686372
Ni 8.197648639386355 6.174826924731454 7.454479690079695 -1.1754931958312593 1.6092251865140674 -0.6540647329717316
Ni 9.679834824501109 7.699546530094437 0.39313772076119613 0.4086416233730833 -1.4264117813268402 0.13384237460516304
Ni 0.4067295951431742 2.704363313840394 12.941121521224051 0.8858260288125712 -1.89211466848929 2.382204726246852
Ni 2.7679846532869146 6.366095575166297 7.0034005352838875 0.7882611484822036 0.8057045407696317 4.203925418393611
Ni 8.885005648685434 4.149605647651045 5.605265846407895 -0.1097735065814174 1.2293994589314117 0.6086490238410938
Ni 1.48321188042605 0.42212349385646547 10.155787561098274 -2.255114068543226 -0.568484535807066 -0.7194720547329481
Ni 1.9558880380563057 7.861869870643538 10.949335088277266 -0.22710785622922824 -4.095996935440732 -0.26766392327471966
Ni 4.143526756173091 2.0072763141570964 8.083375830654406 -0.019594120081843674 -0.21468377153326254 0.5991225724078972
Ni 6.649450962448299 6.903221156531091 2.815344487527469 0.2161405585844471 -1.7955095809690302 -1.5419491869752284
Ni 5.261167653585109 0.028584905019478565 7.414318543115665 0.9963053032117616 -1.3940457062913088 2.5673002426000364
Ni 1.3969970139848402 5.563851280953364 1.5615872352723927 -2.0252142513911573 0.6270182703769007 0.10294799901915175
Ni 6.750618396317481 3.6933500250502496 9.836966641167256 -0.4501410281684506 -2.919773032091036 0.6608244202930683
Ni 8.612245976270579 7.933781463018972 3.5074987396678194 1.4591257266200937 -0.03434633869035375 0.4296534497380601
Ni 2.6357264184221245 1.8096464707824746 3.941265286814801 0.3733871710461634 -0.07207882024412103 -0.8086854777748267
Ni 7.55650437938795 3.1724567777403654 7.198117027572481 -0.04968399748868862 3.2021822319957303 1.2485518634901465
Ni 4.083819996997204 7.944010185985747 12.483694347556684 -0.3985119911382492 -1.9915256008894608 -0.30202928812846697
Ni 0.33083096512190535 0.5295608431927702 1.0466646638800967 -0.3402754760938591 1.5191386168386158 -0.8069062743872168
P 2.166099116579574 2.07477459367934 0.8370116012463684 0.4702915349743965 -0.6709208852971219 -0.5075388493616292
P 8.221917155054536 1.6124024394056797 2.6423755588529647 1.813941562421973 -0.3093669594404607 0.741148254154801
P 4.180988160157205 7.7703947869636645 5.977647822690879 1.1364239977439397 -0.05920762070840772 -0.5980555645959635
P 1.9365880281162358 1.138230084027754 8.373026540535095 0.6541783757314605 2.2904001454390297 -2.1652635261379807
P 5.947574247962712 2.061101792878306 6.625095874331825 -1.7360060262867585 -1.241966496963145 -0.2312596736140727
P 6.520458014491947 6.638572946119328 11.806042862515133 -0.04398823265549198 -0.21638609893634989 0.49297714949737037
P 3.336483337109141 7.042725128916044 9.022485519589104 0.9673017168905598 0.16834555058835524 1.4388926874026704
P 1.502144898465748 7.412662374539628 5.818244420261916 -1.4670166993323959 1.2101136141186064 0.049095214864754155
