# total energy = -340869.86280450976 ev
CRYSTAL
PRIMVEC
9.24097488054097 0.00000000000000 0.00000000000000
0.00000000000000 9.24097488054097 0.00000000000000
0.00000000000000 0.00000000000000 13.52510082972742
PRIMCOORD
 96 1
Ni 3.4657814770823188 3.197349634646645 9.547260670301371 -2.979491016776959 1.3106699729771298 -1.6000077816808573
Ni 3.417728406968524 6.254476714311229 3.410137870085549 1.8584666414175413 0.4227466953158977 -0.5849406244805604
Ni 1.216038385079701 0.3941562317059015 3.214672766422668 -0.319956562030849 -0.03614662512388613 1.772659158733418
Ni 1.1190081473499238 6.036278812094515 3.23747672048417 -1.2099189816092968 0.5898483461948227 -0.5792410029926217
Ni 5.355625555882659 7.306949841503591 7.5163318535494295 0.7109969273824014 1.289983905382688 -2.0784227170933365
Ni 2.0816035514794464 1.6671273397979252 5.622939240340685 -0.3763400830269003 -0.233869600433094 -1.7519910888611054
Ni 5.195775169954118 2.429553983978428 7.81108384104243 0.8317475018006127 0.5821944291939909 1.114236663013623
Ni 4.614499359127598 4.478915773606523 11.886913828779406 0.08758000120351368 -1.2657396881233427 -0.9493214782630554
Ni 8.195451107907651 6.998282793822637 0.09264169869188485 -1.943029453061286 -1.6106536914304777 -0.06591382908398971
Ni 1.5567531341365477 8.12701244689558 7.535969849568434 -0.15265565065692419 0.2951279330229434 0.8568944333798855
Ni 5.8116953961376785 8.584320577803533 9.450637035472557 2.0074152755365233 -1.1557962316229642 1.3846748065993701
Ni 8.083967985243648 0.8636689183252547 4.62306851526539 -0.09803282110572148 0.3430574097143705 -0.5517749363618691
Ni 6.105318136483007 8.317431978196513 3.8549780774939753 -0.3079250847876116 0.4360629528088296 0.7349696361479149
Ni 8.1762576027872 0.6483874678254467 10.103060961187563 -0.3125810955023842 -0.06578424548466089 -0.8882685768157927
Ni 0.5131180754551151 3.8130480774296807 11.506452722055936 -1.358443383706667 0.8247235050742957 -0.0699229502433828
Ni 0.4615756131730574 4.837973858081808 0.53721114553217 -0.8585913614663343 0.03243703748278285 1.1049069009722647
Ni 6.088610453643441 2.9129586283481785 0.3398248431622394 0.01027875621818875 -0.29213259784004525 -0.5186850957864357
Ni 2.1302572849696633 2.239873730679246 11.186530166798327 1.382141498654555 -1.2180994605375604 -0.321960222724439
Ni 7.328324216729207 3.088370816213572 2.7495310609886654 -0.9224863603480823 -1.2570766131317062 -0.19879563954809634
Ni 2.8359997883659323 8.275108312596288 1.855630292879319 1.0159027657277149 -0.03469780849250153 -0.027185302165540277
Ni 4.607947507837083 5.469400440352089 8.778575113738547 -0.4867933892841616 -0.1457787210314328 0.7609349498634249
Ni 7.291776160517658 6.6511548081006024 8.339617711029051 0.48832422410639126 0.41633462114196684 1.5250508685579929
Ni 4.889483052853787 0.31035352562244833 1.948493774971729 1.211170851738527 -0.2544404826059102 -0.3026154996492401
Ni 7.024508680934742 8.016878506584773 11.692098365660563 1.1529669897042851 1.4604243908268588 -0.6292443314939421
P 6.226532005845053 8.998611969984617 0.17406300551219867 -0.01600331740679179 -0.6545799820452534 -0.016167868009114093
P 6.037664958347797 1.5783677747127334 3.7380806675646507 -0.3896954212878837 -0.897466698375293 -0.2021912954932066
P 0.49023187671591834 2.3115467329489747 9.713768254635678 -0.3971904441133482 0.15254740721383403 0.6658509269733823
P 8.475452651070723 4.801351874070083 2.926169526239463 0.714355559441989 1.4161008863191353 0.008577200146049744
P 5.11434369806128 6.726727501829567 1.6396077161827558 0.39088918448566873 0.6208717911595307 0.6899311078510376
P 8.700544320653762 8.26187523636495 3.676622639084112 0.10532524100207667 -0.5087089584103304 -0.609607273989305
P 5.984289086621398 6.533517196072025 10.422956717617607 -1.063354788562091 -0.2833597367434217 -0.6184693523656252
P 3.8985733012572132 2.9147791004274897 13.212725756144062 -1.1105949524959777 -0.7890499629320863 0.2132562950581166
Ni 3.34676695977548 6.759865638258041 6.991232853978442 -1.473960991860713 -1.0129740221166943 -1.2252622968345868
Ni 9.142364577425038 4.364586430635779 9.001496078288946 0.5027434848555148 -0.9918135859889949 -0.03209610920359633
Ni 2.626673222170226 4.88508434874337 5.434196021908722 2.1622563638805405 0.13206599943103062 -0.05741504758435918
Ni 1.7939042761231454 5.3851689530276206 8.1269357468029 1.8080984733776344 2.1671895395161 1.9970966672193349
Ni 3.3776410573235935 7.462669511597351 13.017531413049321 -0.7362233060493578 -0.7791213909644646 0.8458142643063239
Ni 2.3167401609112734 5.1427227323534845 12.631916614556147 1.77862154696444 -1.2655774515138654 0.16691961677510608
Ni 0.8852798625114316 3.8797586761126586 4.279464113319201 -0.3417631163829792 -1.5944516277493186 -0.25211517690684326
Ni 7.537022396623426 7.131565376563263 2.3302532386857737 -0.401122946398535 -0.9960186252092783 0.40877197830336054
Ni 7.005333657764334 3.345251439871891 11.769637538874184 0.16559344176451482 0.8171336085421799 -1.58942409262774
Ni 1.4277583638060751 2.5039161099795244 13.336033630446067 0.8264191476091638 1.6258699941596 1.6931873884593358
Ni 6.748092636080161 3.097611791235456 5.252337329868062 1.275737679876319 0.011619843627115472 -0.694366775024888
Ni 5.795015436223179 6.354140629922243 12.65206933288387 -0.014457570186226714 -0.5202154163880331 1.1917878192262248
Ni 7.969509268622598 5.500958370051822 10.571327040276465 -0.8748582169471578 0.8140439138732625 1.3788090918472125
Ni 7.633775405102547 5.718934488868011 4.890838703889497 -1.4435016469295914 -1.6571014413700558 -1.2848162451388196
Ni 2.4983068381412417 4.153975368912031 2.1061697594776216 -0.7403527548366992 1.194879313667355 0.48114956073482296
Ni 7.866398469328422 2.9054826795554747 7.497653070737695 0.4757697844801484 -0.9954730371184533 -1.8189477573873125
Ni 1.1266596746680433 3.787857179520026 6.887793075973486 -1.1357884210424698 -2.4435571612124045 -1.0283859857963902
Ni 0.5136466592263669 8.364764252258603 5.5309545749728555 1.42381573846489 0.9722523760276159 -0.8076701491364349
Ni 1.4952821682909785 0.19384054025403388 12.666094360674583 1.776352291314289 -1.2497253149729575 -0.46086921321923213
Ni 4.969639270193605 2.9157494028047877 2.334121510829934 -0.5045188315883827 -0.34807825996772956 0.7976171357758071
Ni 7.620616256671385 7.784939274510518 5.962608835122556 -1.810960368306462 0.5249670721404056 0.43012884671258184
Ni 7.496528444077533 0.4385794468311002 2.1926357145623814 -0.4681868299265679 0.29565295228847793 0.7760193550003732
Ni 2.934804293299911 2.023357685916514 1.565584733964962 1.4524704260871049 -1.1192940229318722 0.3294799281402519
Ni 3.710491736636817 6.466695705688784 10.991511402229003 -0.006149307430847474 -0.6903699951606691 -0.5968672007148172
P 2.3915273717633774 7.273589921674591 5.00806047204209 -0.23444192799679625 -0.10422480884904632 1.0276668482421787
P 9.24393213389056 8.62379802309702 11.441654081104986 -1.1222911578869832 -0.48410632937030174 -0.06078422116690822
P 2.2340981212905686 6.141422625893505 1.212497243451315 -0.08602499801156797 1.0145246544332656 -0.5875600643812784
P 3.5992026744482737 4.025507334157806 7.3299423114555395 -0.3990771196130998 0.026721218044928174 -0.1778879428611517
P 5.243985336643283 2.9299158175133346 10.210071451940975 4.319245051604239 0.42914565686370604 1.3840551707375002
P 7.917057494398387 5.035527422099634 12.761839178778818 -0.34602934785850087 -0.03547068210278407 0.39562772761191867
P 8.46376281766804 8.390574295494723 7.876815820470591 1.634815890498978 1.0089638725160364 -0.05188229069158807
P 8.109953607005185 5.132261948628712 7.1413617341839615 0.9244337138824402 -0.5563129334415388 -2.155657370506784
Ni 4.607513182011054 0.8953469807002715 10.563536898333016 -2.0286016798061515 0.4593635752079831 -0.8065046680734239
Ni 4.4806715588606805 2.3778137648309015 5.607439352936479 -2.3641077595358255 2.3508825190948026 -0.82484408981256
Ni 6.771768014086226 4.373753477857488 8.65952732892163 -2.0646552309955992 0.030572987690850574 3.149561263365905
Ni 6.229636973452406 1.148505339619776 11.992342264609071 1.624038597377816 -0.0823182385839421 0.6492061193278498
Ni 4.16579457596502 0.37947509468863516 13.176559352200917 -0.3929504378900716 1.5346590810717182 -0.6550378955182783
Ni 4.486798325300189 4.804974336278661 0.7713987068292497 -1.6189835514524118 0.5073609290228681 -0.5808320016288254
Ni 6.61866353992366 5.027044207029546 1.4464417671053194 1.9114732755215598 0.29334307320837866 -0.1721782940708841
Ni 8.45301556371759 9.23328653066535 0.11215586564559635 -0.17618792945090947 0.37042860263847166 -1.2021367665607168
Ni 0.3707525383654793 1.316044216766525 7.761893206903443 -0.8177067074368305 -0.6403440409515294 -1.0312417100776305
Ni 3.892086136791851 8.990073309064396 5.996340242147436 -1.2811452240451353 -0.6518654113275677 -1.1078932372940984
Ni 0.5291382297530525 7.899850798907639 1.5015161300407411 0.5034893618826038 -0.4949494427323928 0.7931925243455501
Ni 0.3172278869412275 2.5731125309433893 2.3204605774550835 0.712471969266031 0.19099311278454204 -1.0435266980925706
Ni 5.982154421391343 0.842020086141488 5.787404569195155 0.9555016389318383 -1.9911733597563641 0.6211939503856398
Ni 3.62886620426852 7.927361181547787 9.22259102617502 -1.4757419950205357 0.16416365129652374 -1.6880402970407575
Ni 0.4637648001557416 5.857854066371987 5.604964619825619 1.2859737557820303 0.9082609607773195 1.8816613343664497
Ni 6.891263062094203 0.6658676961768415 7.991035195838574 0.8805056450409223 0.22419325368559456 -0.9452712194530817
Ni 1.6651035662681326 0.4084048910921438 9.43964119929402 0.37291048852006103 -0.9429685394618341 1.6668662340663034
Ni 2.797196934249043 1.533013069305329 7.737643040251015 0.844806648977416 0.5235966741554402 0.6389304484334545
Ni 5.471645997282407 4.806665434707667 3.6311514973914316 0.1550730018491652 0.03365805437407752 0.34224905488046214
Ni 0.18519283582855522 7.31116372611357 9.653987463121611 0.3945051839717012 0.37979281746219107 -0.1460908529552129
Ni 3.6080093236441284 0.8726169544389446 3.8352855597223416 0.4640830921708395 -1.1937359440915314 -0.23168724806979454
Ni 8.9226788782298 1.7234326006062615 12.156712411420816 -1.743490507589262 -0.11213480772474237 -1.0237230331030822
Ni 5.757672656159747 4.773490334379105 6.591417449169138 -0.843678963130876 0.8053325021421938 -0.9413474589186432
Ni 0.7145574694696438 6.653538979656248 12.190417019618131 -0.46339095119982127 1.1081014966501626 -0.7361757406408741
P 5.562244516396953 6.4961559340585495 4.944370748093767 -0.5092653451344326 0.4845418742458235 1.128217036453115
P 3.190631445805736 2.89407931637847 3.7468725312004705 -0.9495513348856742 1.220102349900202 1.0008019055305346
P 1.3439704432826571 0.7963493393883352 1.173212010438284 -1.1928849089451454 -1.3819620356538975 0.09177655578336452
P 2.984012485291441 8.785293302579458 11.036793103933734 0.07840501957246497 -0.10210981938857253 1.904279585986598
P 1.249222726383285 5.478881680724542 10.440593118446873 1.2962388851534645 0.8492477154679052 -0.8924782440217661
P 4.568359170843333 0.2847791272493856 7.8821312293031776 0.9688911728648669 -0.06096522682946275 0.658206265943931
P 8.080382486935157 2.0833593367336043 0.7101042436065981 0.19839634722714863 0.6123429277529131 -0.252254787808501
P 0.05390260730264678 2.2292743323291457 5.631635921933779 -0.7755634984098773 0.9226951339247788 1.0657819099463453
