# total energy = -340865.64808074664 ev
CRYSTAL
PRIMVEC
9.30009220869910 0.00000000000000 0.00000000000000

0.00000000000000 9.30009220869910 0.00000000000000

0.00000000000000 0.00000000000000 13.61162501515379

PRIMCOORD
 96 1
Ni 8.119259365654608 5.300801368131969 11.202135720430054 0.8141228467403141 0.8291997956780944 0.002803530887066139
Ni 5.527007507154475 7.746232673380108 1.059291645028577 1.8543623894411805 2.19629879817723 2.855791644143069
Ni 2.1047038326761904 0.7607958904725477 13.400032055539699 -0.4685701814079156 -1.5003924465793643 -1.6810399544635242
Ni 1.2538849111420942 5.908004378319007 8.547229141764044 0.5811665021501088 -0.372490627373823 -1.0470542516298549
Ni 5.858062883990559 5.21776084618435 11.907422151461594 -0.6776985703405877 -0.1988861423793736 0.8884922627908246
Ni 1.0692036831394263 3.416965421639452 0.3929688796652801 -1.977414101188743 -0.24872620582995233 -0.3504107647556481
Ni 6.6994236119060275 4.193541708308743 1.6321698754637641 0.3843853219288799 0.9838125700613897 -1.8162779238646332
Ni 6.4696555376269504 2.3259623227261184 2.898323468043119 0.7714849574651295 -2.019216381936509 0.4613816340792764
Ni 0.4645228579173562 -0.0989557694791413 1.1004836127528905 -1.3714567652471994 -0.9411427991070049 1.6280785717751447
Ni 8.2128740922673 5.185350025377155 4.345442901849682 1.5323160347608387 -2.139436023551916 2.0871163882125927
Ni 0.11467013502230315 2.491764363859745 11.017834866192382 0.1792578266254848 -3.0613749960369603 2.1814825591000044
Ni 0.4931420311942527 9.131509285057085 6.476220472607666 -1.4523521553416858 1.0878702572049523 0.682047848448219
Ni 5.2081352509087555 2.841540825999958 0.13551443134229407 -0.24282783806764632 0.5818722699678818 -1.030979200444863
Ni 3.3093447563938647 4.680513128425355 0.5561929352816173 -0.44762597505608065 -0.04972590647021759 0.11531269123209173
Ni 4.513855478822787 0.534599051542097 0.4536008298094736 -1.3022858626784928 0.5067423216022627 0.787845915321656
Ni 5.4049995995017905 1.1105332922261346 5.253256507525764 -0.5220033615263913 -0.4935682461141499 -0.4020372306826882
Ni 7.5677453066852145 0.8973630922353223 6.950749299565615 -0.3878066889056031 -0.11093873053411218 0.037395152819006565
Ni 1.9705779050775156 7.132566099215739 1.5531544333569924 -1.0623330321657964 0.13028833870531756 0.817959703987901
Ni 2.4952704985639955 0.3133591616762763 2.093903635774211 0.35945976233179383 0.3573902813972748 -0.12132470175412653
Ni 4.909165191657988 6.574262973047134 10.179698480191936 0.09599239363692501 0.7009693679430702 -0.7564576308183617
Ni 0.61851285213356 1.578476724000847 8.513704169928813 -0.7919172571775522 -0.029925326804522652 0.35035394337578374
Ni 7.296498821846569 6.221928985592149 0.17763826829038976 -0.8639261434156863 -1.1488946194071246 -1.4902923820308849
Ni 4.49303257271452 3.423661487918127 2.538594977396226 0.25193134303081127 0.229390738726134 -0.4419682625496711
Ni 8.96713945809973 7.802377329108384 12.943920200875722 -0.5235527082913822 0.44473631221311144 1.6785254155717866
P 5.134683123868517 5.751381528042398 0.49879648716291125 0.7789974637920907 -1.8643567816497308 -0.5096463826229352
P 0.011804606843780159 6.656113083211878 6.157286835754395 -0.4573797120087349 -1.3094417569969834 0.16916084740079898
P 1.1854455337188072 4.882362326359181 11.75174605055605 -0.8935179981401903 -0.6866681208290497 -0.03309266878891075
P 6.341890872993017 8.457792016501879 5.670670679154234 -0.5771861773461221 0.1318525978686439 0.36771480325173445
P 3.2062718361625437 7.9464078547442645 0.14483870363534848 -0.4481844186627119 1.7868187380632516 -0.5969739014960106
P 8.347176721614996 9.129258662780087 8.7817030626223 1.6703904451694778 -0.2362573839389802 -0.34203411065617867
P 6.02365102300695 4.524559884776613 3.6542721505372704 1.2820355970698887 -0.1423118455287549 1.4759237720140388
P 8.137245743686492 2.927399275839853 7.579088628963131 -0.502475833016425 -0.1930816198824546 -1.3152359950812575
Ni 6.30206787881901 4.267207737466218 7.360908469382982 -1.7587281504746226 -0.5989850183887685 -0.25787727620160106
Ni 7.243832400546383 6.288127040830491 2.8073295073711626 0.15802951337432783 1.8475841901770826 -1.8401621866813984
Ni 3.3691443482992502 8.835682656920472 4.042502633301183 -0.03163768150993906 -0.49838006568049653 -0.023471343649062802
Ni 1.0728586193165361 7.010948795429311 4.157167188268254 1.4718028078671297 0.5914797111506587 -0.4248439441645587
Ni 7.70718158684656 7.652301743637589 7.19170166454849 0.24277024535683348 0.004694834372508044 0.15292690204043985
Ni 7.1133242087566035 2.7589932089311855 5.186519046948307 0.8805352127272771 1.5429115508884976 0.8069019035118427
Ni 2.6696751248473087 3.088802373432072 5.99332063279217 -0.6197266218114941 0.4359845341624104 2.453545125663052
Ni 0.8130047472436917 5.644969874763793 0.190940189954818 -0.7360186462377195 0.5853430021253015 -1.229227966350554
Ni 8.653810056718026 6.969395984133313 9.467170997487374 -1.1217666528420809 0.9620245276520206 -0.4827336173924912
Ni 7.428699630390124 3.2770734369674743 9.55103178755413 0.6131659378748407 -0.0004931375863346345 1.0378862119773415
Ni 7.675700775244735 0.7814123345372226 10.631387211075166 1.3656602131700804 0.88655133701437 0.0033151804161620324
Ni 2.619184925087691 3.227829449543055 10.868963642642543 0.184284847526431 1.193863727918647 0.49631829805546146
Ni 6.023864925124186 8.689159706614195 3.4387043868150102 -1.3132135653345898 -0.5748636998605325 -0.17350961128779796
Ni 7.766748676450604 0.657215185215094 4.413868329134889 -0.5047520306451113 1.6025310623233433 0.6127712735395834
Ni 0.6881370612844904 5.307776437172256 2.637647467832726 -0.1607538542840264 -0.6402856769097682 -0.6637817031491794
Ni 1.401105368352399 8.394383988879651 8.841213421664815 0.06907011532478427 0.15704323820165855 0.23918149956431065
Ni 6.385322302883864 6.279924359639115 5.300026670463896 -1.3918558977288418 -0.7044650398011545 0.05365018122528825
Ni 7.283311291314401 7.652190142532945 11.395461383996649 -0.995978258889646 -0.1311126343788258 0.25478089666446446
Ni 7.393889385833071 0.3773642552083521 1.6514982567789995 0.4632148306332733 0.3365689737765494 0.39536084710377717
Ni 1.0273718690818172 1.091709905909416 4.534481222979516 0.9205024971488341 1.9461875390742933 0.3898162631364641
Ni 2.9234095363488093 4.482635069798467 3.866599762188016 -0.6644219078363396 1.0264435173580386 0.1984086885223228
Ni 3.8851227555313996 5.358378238036519 6.396592154434557 -0.5609452900072276 0.07941546311485032 -0.3221736242868258
Ni 5.823801344864674 1.5574957163276668 9.047375072283948 -0.48641877955356233 0.9714946719259849 -0.7180831448052214
Ni 5.651080035243083 0.360139554715667 11.59300742933722 -1.5725869664657433 0.8559130433032228 -1.4542979662141469
P 8.272283080306432 2.6438580693061966 1.1760849910667432 -0.42386872473548287 -0.1948906480667353 0.15896770891788106
P 0.7252304784407316 3.280830674157175 3.6157102488457475 0.7393713647600363 0.5205797417059873 0.5645070392165569
P 9.320180252550795 9.200785670765207 3.350597174716527 0.10050493679529787 -2.624072000173442 -3.220012832419248
P 2.617111004559713 0.368974642166696 5.948851312628128 0.4411609361570273 -0.7711833670643106 0.6081384027532624
P 3.1185347677277986 6.693099549309501 3.3332013525300535 -1.563413013275959 0.2967191887694632 1.1931705585063646
P 0.4272387888740137 0.26701122291738333 11.759599978295414 1.6154171742573922 -0.811353768635609 -1.4169244106616952
P 3.1309968910797763 6.8610127113393204 8.880795543454632 0.5244759914366 0.3031664870567036 0.008731723446043027
P 6.410311650232196 9.290540859175607 13.375272420465093 2.124616184930263 -0.8600314363469704 1.1849247735578043
Ni 3.1274349558232037 5.728224298828647 11.376691008204636 -0.5180754872268948 -0.43885645639356674 0.2565991808201258
Ni 0.3500591849386455 4.073598421091983 9.753382260449651 2.0915394569809527 1.9526140114259274 -1.5965735591883277
Ni 8.322708179421673 5.089996181550417 8.105668211127309 -0.03798162145009588 0.7975852540966071 -1.0608749595630311
Ni 2.4470960217257534 2.7604347231995114 1.8697742073073014 -0.2613760333834789 -1.2180133285816572 3.0294292963682987
Ni 3.142770807619779 2.0056206519359128 4.191495688056926 0.7231204501188127 -0.8321933310887797 -1.6525976399624311
Ni 8.225159513870258 7.693584852264029 4.566032715280949 -0.9147581384658892 -0.0075320467109870285 0.31062320044506503
Ni 4.982105813635272 6.255353516433201 2.6728334361087502 -0.37827072439070986 -1.5478537253851214 0.9034617396164634
Ni 4.094811931066507 7.601988245626992 5.7745415472837625 1.6035268505777094 -0.02902235537427905 -0.12132418753349428
Ni 3.580554040864295 4.68402856322166 8.631022041158808 -2.332369805002596 0.5882198094524643 -1.012051767412741
Ni 8.412863271790382 1.0980897690582643 13.090966746364622 -1.3504637079353 1.1263486157858085 0.7987047124130309
Ni 0.19203946083556708 2.8671067790556197 5.8698358705213565 -0.46085095838678697 -0.7005698185118063 0.47590785271990943
Ni 0.8632754648308415 7.349881350234892 11.184019141109417 1.2509136788541038 -0.6166423264592155 -0.8596902509574679
Ni 4.861995124761545 7.3616924671431105 12.673497704193036 0.4660638700462941 -0.5185606543934295 -3.490258914598847
Ni 5.5444172794790285 6.734550059592907 7.537695779250456 -0.7209321842182422 -0.2511885513275158 1.311984063802863
Ni 8.483246368452896 3.748922907404747 12.8586978773323 -2.0023584298389063 -0.18835644649264335 0.01130128394543215
Ni 4.8819996227690865 3.5403962433763545 5.293179942693951 0.26105078883357624 0.7826422596335295 -1.1630364581251453
Ni 4.65819290749644 9.276981324961291 7.430314126370649 -0.49523586362455996 0.3634876525442643 0.21479201497635264
Ni 2.2781598495700246 0.9598625008639017 10.789539926494614 -0.6093162251114473 0.021141409964305528 -0.8230389182830211
Ni 3.185830233828479 2.0783287716118553 8.579883624983047 0.2787523198783973 -0.25834213165316156 0.4906104490374067
Ni 3.2259694311323117 8.160207670967115 11.174667898549407 -0.31970536525199134 -0.06777916442750262 -0.129899330797015
Ni 1.8985393920294409 7.443551877399908 6.431819043115618 2.201856751880982 -1.1457506744615042 1.124681769606347
Ni 6.319031246724986 8.56053943351132 9.325119531440524 -0.3676466690179604 -1.4387818728564188 -0.680702390163918
Ni 1.156168843933713 4.887096073214522 5.436360439916123 0.15003081143956742 1.1264144360267374 0.25314130417851244
Ni 5.159570170204257 3.8334700442650678 9.751681273613027 0.1717347787755623 -0.3479857002539232 1.3511278238818603
P 2.8755884630086075 2.616106594617912 13.418080744188343 3.580768173634014 1.0560292014349553 -2.1095983713651925
P 6.635420378392362 5.516405402213239 9.612583516802436 0.9339187705547399 0.5762297269701238 -1.3794464683208953
P 6.302681684894555 3.1478207576049466 11.470993011620099 0.29534750523291714 -1.4308137670492778 1.371364205533393
P 4.520095840590829 1.0534865275686482 2.796099646216302 0.8038633737958348 0.03708867732218129 -0.4983343000442256
P 4.375228306670114 0.16275719099524077 9.827361702709338 -1.601656373027874 0.3861848370314639 -0.6651230476684222
P 1.5625921667731024 3.4965091089748745 7.896348249246735 0.3204718111043707 1.0659001806917643 0.21600120479310542
P 4.601880850111198 2.33332799563266 6.97862539548742 1.1534727256961101 -0.3229608960748115 1.155335747046778
P 8.69557677013126 7.04677275002022 1.4232591176335532 2.490681368393717 0.5245266421688772 0.7287197985834611
