# total energy = -381169.4795827806 ev
CRYSTAL
PRIMVEC
9.29904740090062 0.00000000000000 0.00000000000000

0.00000000000000 9.29904740090062 0.00000000000000

0.00000000000000 0.00000000000000 13.61009583332998

PRIMCOORD
 96 1
Ni 8.086544659869187 8.819551374786043 9.021655942331416 1.548646910710378 -2.062718161873886 0.10871678318212889
Ni 1.9526139852109932 2.3498134983279675 2.379398417815294 -0.372452575047036 0.4612232541245411 0.34618412826881023
Ni 5.118000440834561 4.453378920923141 10.156738590852175 -0.8671019700405067 0.6907461475531652 0.4985104206107737
Ni 4.8085188423880085 -0.019381074711766606 5.479547405997926 -0.1444090943774158 -0.22873459319937384 -0.6744718358731739
Ni 3.6261077619254953 3.7304895696404845 8.427847598716692 1.362488243200002 -0.818475467282055 -0.43660211314175124
Ni 3.29959030853606 2.030865469569268 4.115652395727946 0.9860234616697793 0.23330215796539822 0.9651198787478926
Ni 2.3491625650059147 1.6179505662484328 8.385138933552023 -1.9006692429275203 0.4339932147639945 1.7749901208594399
Ni 7.68953112770137 6.692505857359659 3.5392100232408605 -0.7911040172476375 0.7462302966633987 0.762942467211757
Ni 6.197982513548247 6.463972467034175 0.8558936270730785 -0.7285688748278936 0.3939020031700636 1.5326039983149025
Ni 7.353770421138776 4.232470749513138 10.417330447288789 1.9574926796744674 0.7647687217872184 0.029384366699388105
Ni 2.5244868057772645 2.1397945114911727 10.627647933548982 0.5235133704130145 -0.3719550665853272 0.5094635771881677
Ni 2.5069674003665705 6.432225519012885 8.421967811009058 1.196196746927198 -1.1052956517702512 1.0637399398156517
Ni 6.135046560353142 6.970463684923912 5.911872211077648 -1.1123643856915746 -0.8378479582713958 -2.159129902436417
Ni 8.016801803934896 6.844628974723535 10.929110963372583 1.1788122329021633 0.5313511212898785 -0.06367028446545163
Ni 4.997494084827564 1.6815653499079641 10.17199553801636 -1.946650080533009 -0.003590031344103494 0.10921557719541837
Ni 0.19070672507621722 7.676205592694191 12.83376232160519 -2.6324324563229955 0.6606835238398299 0.07722179789764119
Ni 6.325137688487646 9.39864025617965 1.0685098378648668 -0.46230748832765545 -1.0612670527951271 0.420401849232805
Ni 1.0635599549030237 9.211943280367281 1.0535411611718764 -0.012752157459345782 -1.5721609346719183 1.0485053822540846
Ni 3.6327658799053557 6.031957320234802 5.792062353725248 0.17013966637430053 -0.6700649650547298 -1.5844862890064906
Ni 5.5157207006091795 5.527084136602739 3.373534474111833 0.17218112228436153 0.3920004152719765 -0.1172803564814238
Ni 7.928535245464456 0.5097151976433937 6.5124037660044385 0.446354821653141 0.969481498150698 1.1060518132099852
Ni 8.205126113052398 0.1473592153511908 11.416121606742754 0.7661159798437323 -1.130384476418079 0.3665765758822332
Ni 3.7042104615244433 7.209058644598851 3.4519152152297723 -0.060010319115361165 1.6205025592000994 0.5824741652179388
Ni 5.970332532731262 2.8824815348117094 8.40223337249389 -0.2881535585876392 1.4048880483224515 -0.6500391567521062
P 4.7342287522468025 6.616551237723487 9.373940126321962 -0.9546984263042525 0.08667857243516686 -0.3287973002509305
Ni 3.485162099606022 3.3739640901043884 12.79216954213547 -0.045086865036309445 -1.1750535371906796 -0.6781451709597031
P 2.6585976682151773 8.354533908558565 5.185378549000307 1.426497141951795 -0.31461483810296137 0.65146611900662
Ni 2.589366259891071 1.2810739739908907 6.277425205885878 -0.8057847591882639 -1.42073684242925 -2.2565595427405007
P 7.431482560744493 5.5389218240166525 6.974643606756241 -0.3605249703715146 0.9128251831092343 0.8058037853516573
P 5.783551865491773 7.90516673920274 3.049070250401103 0.6402460819210845 0.16294777661155163 -0.3320186354017056
P 5.68593976432614 3.125874802974928 11.945227178145371 -0.4228721651501685 -0.30924200382682226 -0.09134049668721043
Ni 2.9274982235554305 6.626287340411915 10.854351271334751 0.962597369436355 1.7032098056923441 -0.11302055276380536
Ni 8.864335587343316 4.217573675485573 6.08300537115972 -0.07413390300093683 -0.32360315764450076 0.09220515868035087
Ni 5.1940759480876855 2.352026671622949 6.087347096417816 -0.6003752138680757 0.10378515020846643 -0.5321507343730384
Ni 2.5784212810331164 1.4434818378432102 0.487062718035936 0.4343853079960906 0.2129117672345043 -1.7275944051842957
Ni 2.2632951607796152 7.871811055971233 12.901717900618072 3.741115793618557 0.727513951200818 0.6174229133789818
Ni 5.236535398780482 5.22238224854955 7.366138154257791 -0.05421788080330017 0.1535586220871678 1.3443547668240847
Ni 2.080885045845341 4.229495054326608 1.0155647812585362 -0.30665650248783316 0.10437573260461379 -0.20229851049503225
Ni 4.779775486695623 1.8989305842365047 0.5429871894477796 0.6271689370221522 -0.6700407966850138 -0.23177286580506534
Ni 7.755228897991472 2.9933540776523166 12.820792010210905 0.03455099850199211 0.4144178637352282 -0.26728854221317194
Ni 4.843566952256855 0.6764043429453327 2.988409774118949 0.6067348375375164 -0.4510509415772297 -0.25551083285195353
Ni 3.8822779212958753 8.454173202070022 1.162058255291396 -0.020923380416228484 0.314304248841078 0.34421723435042656
Ni 0.1916319802982788 2.24711481820286 10.70643597294558 -0.31172877480441796 0.6050808468738611 -0.7488847035671102
Ni 8.379650635742367 2.6008226863592108 8.3066772907212 0.9662372801817876 0.180111947095664 0.0608073610953598
Ni 3.7395189447221107 7.844304473590748 7.149655399533006 0.4588609245399517 1.0004123834015999 -0.5766089646864133
Ni 4.292217129430181 3.7158435698942833 1.9431410455656248 -2.2153193051437916 -1.3747660321260904 1.2657317177035428
Ni 7.729805302241558 9.127135967551183 4.306452111278743 -0.6887738543181429 -0.7112800058404589 -1.6410868111093544
Ni 6.91417655066121 6.430105336192483 9.131176403671644 -0.8329109259810945 -1.0163956462037333 -2.1995185906661088
Ni 8.365618373128388 7.526258452435465 6.063515497592695 1.1244148890982055 -0.9795458243652355 0.23622858758357376
Ni 2.747273384773764 3.567486566750859 6.013062585705084 0.653311656855791 0.6258376198052382 0.2825719507348036
Ni 8.188601705719698 2.172806129966737 4.681001934502497 0.3787412362692251 -0.8666638540618236 0.19043261229538172
Ni 4.326074961224415 0.900501157728651 7.7019397766291995 2.119887926216659 -0.4840639061681406 1.1427540537270255
Ni 2.545446858747383 5.148659400303275 3.2185974649871953 -0.7181463939429891 -0.16084024335024558 0.5215091954987922
Ni 5.970453420348215 3.0617206745628383 3.3835923238423034 -0.10738443752395055 -1.2760091883701508 0.9855046130518317
Ni 1.4480848663348733 3.913364636947654 8.441403750100825 -1.8404727759432817 0.10368204897169886 -0.12959928305809293
Ni 0.9760280211817594 2.939512592871044 12.786344618807838 0.8620289263929736 0.7728607547667334 -0.4106517118245766
P 0.144783379205351 1.1045036608601817 2.7912262624883 -0.31276672915062914 -0.6458641994388102 1.032436244606364
Ni 8.522707181834786 0.7459156525979219 13.765931385451738 -1.541719330352609 -0.2585092533586451 -1.110273821711133
P 1.6945282220642843 6.990717010287231 1.3100544553934532 0.3823729194845415 -0.5177751823776567 -0.13871615775769658
Ni 1.4987181797431688 5.544426860111733 6.584849855034743 -0.5879842964028905 0.4843259015802756 0.23289515233496666
P 6.863134079164768 1.0182549956881082 8.419232961151689 -1.9701579338469615 0.10753124751445996 -0.30026782535266994
P 0.21583926064069836 4.589489078564503 11.016011491771456 0.652933704691082 0.2325868770659285 0.23296071546557942
P 0.6194309389802374 0.5551596425701778 9.363406165361646 1.4634102129280602 -0.11223070987265835 0.4024930872731842
Ni 6.931733152261736 2.327142420625594 1.4353340124605933 -0.2463800741952789 0.24325592674400043 0.2373223348683848
Ni 3.955731097165871 5.904727752915739 1.3962054805672186 -1.2636843482562108 1.0672155570690782 -0.37470049054094823
Ni 9.179099044745959 2.683426124927785 1.2145876444763584 0.8764780119387678 1.0931371620308465 1.0305683381596895
Ni 7.203079357083418 1.9578679470247098 10.616650880025265 -0.7011197774780054 -0.1584455178658239 -0.9358728089573173
Ni 4.2403098465201525 5.434447025827085 12.70119975056902 -1.7064581374263126 2.447327426888114 -1.0746321612481233
Ni 0.5727246133134155 7.788510188843316 3.1550924100876667 -0.4848542632799198 -1.0762501564675206 -0.06938893211678372
Ni 0.7280112666224707 9.208465436618026 5.147991728695798 -1.0367978640091695 1.0046570176105667 0.4921543964857589
Ni 3.579128974168157 0.08534572766391071 11.51105186262153 0.15748752482792877 -0.3912969614470487 0.08318315768739867
Ni 5.852355517632815 8.551050678486481 9.934853089554345 -0.7793646173235224 0.3718254829859983 1.373227998215009
Ni 1.2581797191495276 0.5275117146683332 12.192372611957856 -0.4037506138293691 0.6784413620438832 -0.6312040263234742
Ni 5.707383367764068 4.273516744992333 14.013226533928293 1.6715669819760826 -1.3371032274679941 -0.8506042294957996
Ni 7.951336509831241 4.207549302325951 3.739156281871252 0.34633376647279707 1.0340650384590384 -1.259010339819309
Ni 0.7534004558967901 7.948416608929458 10.473173087083003 1.0967256507130532 0.3052657927878936 -0.34685595752485426
Ni 5.80212206326521 0.5723619504625571 12.226670288696848 0.2920672918197486 0.47119347796337563 0.29496518219283396
Ni 2.923667016002773 8.637345838895843 9.2203226520316 0.20889673253784022 0.7748618443571623 1.0137985749005185
Ni 1.0337565078004367 3.437848546140199 4.232277329326013 -0.42124671373160355 0.33030885179945046 0.34727813266393737
Ni 6.3569218326987675 5.824170104787903 12.233733845145874 -0.773965557795138 -1.3277955769138228 -1.6672904660879155
Ni 0.05434084362976227 5.499121900896817 2.3423928584565594 1.5731914328189616 0.2954246383277558 -0.8498025595301106
Ni 9.547889967879032 6.113714545484707 8.777681483702079 -1.1868770121881689 -0.25566227082815324 0.5663690321259601
Ni 1.7148559398072658 5.690970549000865 12.79943767762857 -0.6849943326710525 -1.7075547129246014 -0.6178000942127425
Ni 6.998872274907813 7.900024365958518 12.790958806156453 -0.5653920129246714 1.3388754888770684 -0.8056348638739609
Ni 6.354076324176648 4.2152954088583865 5.417553446310308 0.029304662501388242 0.889178490224572 0.6359076024467306
Ni 1.202059967741068 8.496204896579755 7.453705424359396 -0.3729225727049191 -0.20603278072648387 0.5391215092639167
Ni 8.489026031942252 5.632749212866919 12.827841618088742 0.931773184966647 -1.6672884092053866 1.0470671071456612
Ni 2.7135829358337724 4.449240844804373 10.512084021265862 -1.241414738224733 -0.4078592366811041 0.5702511407891856
P 0.8129924716260316 5.7602577516097195 4.600116959904144 -0.9665411845754517 -0.26522368926434325 -1.2352913989358145
Ni 2.2147448340018907 0.11317963651491342 3.2936565863531704 1.280702480080762 0.23503559571673716 -0.8164646074996132
P 0.4864201538565947 2.1948913676792627 6.606286019234705 0.16443978777604581 -0.09607184072460874 -0.7599805563699557
Ni 6.136311230807417 8.33488502128001 7.626471497175075 -0.24672331646731058 0.8233137692109627 -0.08795949603011949
P 4.119952275272482 3.9861482814006797 4.201722519188828 0.552402799753855 0.4616297455343405 1.3502405361809002
P 7.850097780157024 4.551167703990475 1.123126863204129 -0.7425027113001663 -0.7151199484118395 -0.22433286458725232
P 4.641442856711821 7.850572031577378 12.811863994746568 0.47067077269068613 -0.20024574173106158 -0.28114987357629645
Ni 8.00337397940568 7.657393619686848 1.1911428860254871 2.421101660422366 0.5656861471263225 1.5204084846899752
