# total energy = -340887.18280285626 ev
CRYSTAL
PRIMVEC
9.06649594285776 0.00000000000000 0.00000000000000
0.00000000000000 9.06649594285776 0.00000000000000
0.00000000000000 0.00000000000000 13.26973326783006
PRIMCOORD
 96 1
Ni 6.443939337342903 2.427572375703472 11.4874224054029 -0.5988114689253816 -1.4430509325454182 0.7525526393370007
Ni 4.79508828341918 0.1492236405973748 5.916045341019358 -0.2837736843523887 0.5822049707169522 -1.669593146079163
Ni 2.840369928161639 1.8980618231839395 4.81299823916541 0.571937527352673 -2.2581086323951753 -0.9198723197640027
Ni 3.727073214575184 4.4236883506518545 4.932133806896814 1.113195366233302 0.32686125957048223 -1.2055558195445946
Ni 3.8650199477324647 2.5974059744877107 2.333191061375902 0.272191378831428 0.46028351591909117 2.304469736158218
Ni 4.946544095275399 4.912889262973078 2.267200571905953 0.8403193026300237 -0.8126776296533552 0.4683218128425354
Ni 4.812305558888498 4.572106886424756 11.521631200596836 1.4091185414640313 0.9055906130340081 -0.3947748926933201
Ni 5.737759048227724 7.979413861649026 12.455608102610473 -0.6858497386928124 0.22181986835741155 -1.0317942401469908
Ni 1.9656434826617162 6.96441059357865 0.2625892904200506 -0.6252904890525166 -0.4360945773777135 -0.55296432868428
Ni 2.866291039571213 2.13824236265614 0.39498460821668735 -0.01810185180703334 -2.220789070009111 -1.2203833714757304
Ni 7.981907147986078 8.927769319306048 6.686777266725613 -0.6720719681824296 -0.4047955101541158 -0.3180542028018135
Ni 8.543050704250978 2.6622948847214705 1.1798892801123257 1.012564188272785 -1.3076592111752638 0.9239698868721441
Ni 6.854705994748344 0.6353310645614991 4.3765171864539765 -0.5426763164947106 -0.9126009829135704 2.974205085787671
Ni 0.8380869227897547 7.641986088536011 2.3670018374054864 0.2355228197658008 -0.19476492112214847 -0.5242237662164778
Ni 8.003077415611596 3.6598814144155645 3.4515768607753956 -0.7379919679140065 1.354836640192015 0.4085526632037028
Ni 7.879147484916436 4.184686455629897 12.672024450017043 0.2583012511128971 -0.46399336067051056 -2.0773222849403066
Ni 8.223447661823943 7.252135836874497 8.971002904390538 -0.14958266815855528 0.9895497296554829 0.5611967438964013
Ni 7.184545110900949 0.5659179729379602 0.12412486035423968 0.20319736816021777 1.1711891691392669 -0.013033436145190458
Ni 2.1020035790590548 6.649857589296119 9.091425914521437 -1.266585838173722 0.8240979556751549 -0.6543850924256278
Ni 0.2002933979768249 5.098126838072415 1.10794663616865 0.5110900570479971 0.10573147530155985 0.4054773667124888
Ni 6.457004157749058 1.812601034045554 6.769620558534882 0.22483448681401924 0.6397809693592078 1.021057827566093
Ni 3.3180201248704813 4.884683394629186 0.5190868023314993 -0.22891328486908316 -0.9135777450045427 -0.7544305730860039
Ni 6.178553939627046 5.536546307579709 4.477061904606741 -0.2343992476843189 -1.1039003140846215 1.3803923771739324
Ni 5.46556471218777 2.7576200212588122 9.10900856977033 -1.0259897176500719 0.09415996841387654 -0.059657306651316605
P 0.6475291279719366 5.683169677189932 11.957051473303052 -0.6586677789613817 0.6182927175784448 1.5188524530567649
P 4.0890802577236505 6.395324787018267 12.463358143195608 0.3747825087317932 0.0723878668441076 0.11791773295510659
P 2.5456453501305027 8.885265587131133 1.281930876716898 -0.13096479594705188 -0.09442813447359866 -0.7063149485256998
P 6.4295870745372525 7.681144283771389 5.586956024067023 0.42642568682938176 1.3679700922501794 -0.1872722122895291
P 4.978168032524995 1.2407136802919019 12.777770616793687 -0.2438794192606122 -0.45787722047044366 -1.5459626790099956
P 3.9442339212845625 6.220078490258682 8.048331922603463 1.6051841836754743 -0.5299652966859454 0.4934296636537567
P 4.717433747139711 1.040353190246371 3.711292072036008 0.5712150473643517 0.3361465415271501 -0.6907998836092362
P 0.29847538733164003 5.688382912258315 3.4090604355064014 -0.9978806181186815 -0.45873879713979054 0.30280807527602044
Ni 0.7378069463135071 0.11978835542692272 4.1879540207058 0.9074564625981534 -0.6998841052986915 2.1109592562684614
Ni 1.9718177662818352 6.4428060253715165 4.470466935582842 0.3783447721617549 1.8004191024555058 2.750122132427696
Ni 5.939171251782701 5.715945059402458 9.128727291422894 0.630241662410205 -0.08571749407347817 -0.23526236701556258
Ni 8.52418332655132 2.649030601408352 10.293836370129174 0.6016769633986347 -1.042916061091765 -0.48997024435024644
Ni 2.4013339369419096 5.611943286412173 6.659097255136446 -0.44980575631621883 -0.5183750207451847 1.2562962833222557
Ni 0.6331242794908134 0.29222857174535244 9.147092385256835 -1.8524713430660547 -1.022765297175503 1.5976691062453514
Ni 1.876102770426336 1.3392120903491285 11.530309650348933 -1.2491072217729844 0.3591553437174975 -1.168146525658201
Ni 4.1714403053083196 7.0975158179941635 1.4672074377480506 0.26660874253732797 0.3537606550644875 -0.6645705175990619
Ni 6.0108328343574735 8.0454904828288 7.983270748950051 -1.1110654643744928 -0.48058108982586273 -0.5345449456368278
Ni 5.67284293850665 2.7843752502793273 4.740970370161486 -0.4515093692708869 1.0857416408977238 -0.29726863351502997
Ni 0.7480928857658196 7.547540402088465 6.904467456788024 0.5735148991421218 -2.78010248083987 0.01309642817264196
Ni 5.194240759741842 4.601427933748491 7.016105939166306 0.6330192251553421 0.09545837551032592 -0.2788690479619197
Ni 0.6214049270570902 7.803959035486706 11.382830403537918 1.9730044021568214 -1.0784672187234976 -0.8431994523912963
Ni 4.743717518380129 0.45655880759653344 10.54285583632862 -0.2582603705726326 0.800332477824441 0.0056556556238805825
Ni 8.566614526760064 7.249470287117793 4.826321454701041 -0.9101206396938778 0.08539404929578842 -1.1029868011314166
Ni 7.33485854429001 6.239226929327244 6.718823702678143 0.33145787780222913 -1.690600601568766 1.5685248805812277
Ni 2.2505399792769802 5.753262755996303 2.4128755860585196 0.7275234642825148 -1.9792269860277656 -1.6214857490489751
Ni 2.6076148487259685 5.560898915220882 11.03419462835267 -0.735127758992334 -0.3565539015389085 1.3173137035458924
Ni 1.4385899504961517 3.6520388955735634 3.853411206547149 -0.4944748170888194 0.2872842686088085 -0.8944551652424788
Ni 1.4735140922064276 1.4018434431358848 2.428745580256252 0.014901342591864658 0.5644746433167246 -0.5968134646587464
Ni 1.2489732579393735 3.6502255964193435 8.035898130302977 -0.005716076548170801 -0.44050093397552526 -0.5998604790151862
Ni 3.854185485286001 2.7000931055911854 7.033223483182142 -0.21993807795366638 -0.061906507696809505 -0.20031618995768083
Ni 4.473300215511311 6.709442599503785 5.851448371949427 -0.3468166196464865 0.4331833172681894 -0.12948538318804798
Ni 0.647442089612534 0.23088828795640065 13.244587257705643 0.21528489545237117 -0.11703584457078553 1.480121355035154
P 0.1565013167528365 5.666568923433049 8.009305191556765 0.8916696320775417 0.01635015922324926 -2.1024620174307276
P 8.658458128921305 1.5637982570950377 7.8531737878313885 -1.8858216363917262 1.9901927410106501 0.9093768195493177
P 1.7585284532667158 3.360904649867783 10.298467536169051 1.1298975094793315 -0.9202312457653183 -0.6212651699432075
P 4.032741053002038 6.37217802331465 3.6104028270439423 0.6741764161199422 -1.2587059212050127 0.2622836327994128
P 6.757513160082156 4.152291866239757 10.3588177586198 0.7881187093670684 1.166804666918326 0.1540936686550314
P 6.4566142984309005 7.929294273026387 10.220123039561402 0.41923122596347157 -0.6974536414803277 0.4959979386015651
P 2.4752258774763716 8.654722732663611 5.524906740308771 0.022151853506690883 -0.6568322684145398 0.21012546273861876
P 6.9260502499711265 4.031780004450301 1.3040087005691026 -1.3838160581435008 0.7016558524871335 1.6644234289527657
Ni 5.006600563263163 3.1873809873047065 0.3354295174450651 1.4937098923528662 0.6666546538216003 0.10092351238995521
Ni 1.29577450910979 0.5676623667243198 7.029627710959323 1.679631761262088 2.9472984912048146 -1.599071643019833
Ni 6.8182042827738965 0.7922294938291098 9.34189239344595 0.5512578875161346 1.1252713235612297 -2.0516541907502406
Ni 2.685024589619618 1.5764097527126373 8.950288681502306 0.9261740936123146 0.08937925919578155 0.3311166924127265
Ni 6.512654308792068 1.7828810609078893 2.423186005049414 -0.1074919096360923 2.275140391066482 -0.8923088083234374
Ni 4.4215214581625615 7.12321026700946 10.16513292941053 -1.212112646826506 0.19133429817404465 0.32145525806356257
Ni 8.342980342070122 7.052745461876474 0.12610316973149363 1.0970179851424913 0.6329413207295551 0.023850067144720218
Ni 7.448180674932984 3.809097801816322 8.177605645906109 1.1240261383002188 -0.0008075835029598995 -0.32651493197465703
Ni 3.225632532962976 8.341602234712914 12.064549287062672 -0.25505909002651556 0.9059870771414783 0.32593334843957417
Ni 0.14454532877948742 4.839849573041099 9.920611351763126 0.18953555440240905 0.54543845262088 0.9565966717682299
Ni 8.651340929740991 2.09973695511628 5.730839498655221 0.5752930740884672 1.5473742146455416 -0.6283369891883243
Ni 3.7797858209883572 2.691706597002918 11.043669116433469 -0.34573881320127553 -1.0723593060535466 0.5609524890960791
Ni 1.502862339017477 3.705993611907377 12.571001927537143 -1.0630956213634335 0.23082952805518958 -0.7494053519572706
Ni 3.396862372095964 8.290177070699238 7.588031372202196 -0.7780703239921309 0.1969436739410221 0.9731170380207562
Ni 5.900421048857022 7.701725229171786 3.5029439992161384 -1.3508514302920218 0.6035644102293347 -1.1445612821390934
Ni 3.1869367290119226 8.39714358780667 3.4133996603824497 0.07122187156046443 0.9672513232685988 0.14713214973553368
Ni 3.609235969038202 4.3253622040142785 9.23215152863256 -0.29651555739908936 0.15411706569379907 -1.0591718608289953
Ni 7.696584526069572 6.2295801778267945 11.2759028723623 -1.5579558468161299 0.0848785431119506 -1.1132305903466118
Ni 7.9857332092014826 8.834674540728399 2.466684331810419 -0.023464401670527327 0.1737286692771395 -0.3723762132831458
Ni 5.125045264016809 0.24961694827076117 1.4243328858960975 -1.4522721940333696 -0.15294849930699464 0.40295897116600926
Ni 6.09259449322125 5.721294291907406 0.05301814732065939 0.059475272547497564 0.2655946994505168 0.8755529290213373
Ni 8.116345147279944 0.27072193712672693 11.071960209837608 -0.2371780959810367 0.20763252111343597 1.3745449172542197
Ni 0.21650157246681973 5.058787312921614 5.680480554544224 -0.2612575055277436 -1.389043110870395 0.34978058737081696
Ni 7.392312927991468 6.0301535368456864 2.582516068482833 0.4210891051078167 -0.07455479258843935 -1.6413791455387925
P 8.52187137012969 1.6403466808904321 3.563785625737679 0.4242255938542694 0.572401354362969 -1.4268218722810653
P 1.6078976925256665 3.4744262434177213 1.6000515470853567 1.4392773244355987 0.1900297204300082 0.025517684655130247
P 4.818044650711604 0.9615381425082017 7.95609392787618 -0.1241382599435217 -0.036159223529376436 1.1626783034547783
P 8.655937643096939 1.9976754122210112 12.406058796571836 0.26443153238035105 -0.4849069708947261 -0.5205632866457551
P 6.691536270355864 7.750629907361097 1.136340180975003 -1.5044776723923314 -0.8524106865769191 1.3512011003219568
P 2.11779741469231 3.495777840958661 5.903014066647557 -1.5158722873825183 0.7393801065107848 1.9089348253704221
P 7.1721512111818555 4.0887810633632045 5.978320380522311 -0.5298313422112424 -0.5976573007162804 -1.0035401303973037
P 2.351894335502103 8.702294635974571 10.043873988369535 1.9463376914989121 -0.5625555719171408 0.8147828489218161
