# total energy = -340896.3062669318 ev
CRYSTAL
PRIMVEC
9.01840418405706 0.00000000000000 0.00000000000000

0.00000000000000 9.01840418405706 0.00000000000000

0.00000000000000 0.00000000000000 13.19934611763943

PRIMCOORD
 96 1
Ni 6.542202883117905 1.7713769056284743 11.407217975352799 0.29710922511903026 1.4927909800830226 0.33004505661510253
Ni 4.64152911724243 0.3258628988624475 6.012644897162279 -0.0575500305003267 -0.2645809134740218 -0.2688854543866466
Ni 2.8028027694486073 1.489614904882359 4.721841613527821 0.6470281378399244 0.056368094377083566 0.8863430776583058
Ni 3.3220373881778453 4.191988725756606 4.708813626897925 0.3968855112784197 -0.3657980458449958 0.8335117927898872
Ni 5.086776748354565 4.44262821379348 2.7002427719744517 0.07606197326158513 -0.2873171787292729 -0.4842233145641403
Ni 7.103436209956949 5.949856061973767 2.5948464863962517 0.29951166391293577 0.9495482495618808 -0.31591864451604945
Ni 5.0758013505083905 4.636514884537029 11.333842435536823 -0.17240917913476758 -0.6568857473602945 -0.13766637633694354
Ni 5.69842295437201 7.958534235906582 12.255724449711826 -0.5518746951645269 -0.5424616293807432 -0.3276194778927454
Ni 1.8717697805862488 6.451135038047513 0.5354370836186679 -0.18043796297651507 -0.12611569538486667 -0.923929263442196
Ni 2.6744618600411254 1.6773690608063538 0.29082639875366617 0.14449239811984146 -0.3900193802862057 0.1732051926735017
Ni 0.6711902193940799 -0.00983817708331264 4.600803807798097 -0.6253323980340456 -0.2516431223664311 0.1989383357735477
Ni 8.65381712197778 2.3375793731521863 1.4463446017879102 0.21866435344756538 -0.025776594743471735 -0.0397849932074218
Ni 6.922418801930318 0.7096203449831532 4.829680082948867 -0.6986579462010741 -0.25649145159766795 -1.0461821334375465
Ni 0.555831302755347 7.265505950871983 2.339558011021907 0.2751689734025132 0.007098558717994226 1.1176513451221268
Ni 7.656976838059109 3.774301337715883 3.793333777826455 0.03020300594594153 -0.3911447521399006 0.047204168489628384
Ni 7.702718183889671 3.866965440320189 12.736075317123424 -0.8286146125985859 -0.5044342422943765 -0.7919190569497652
Ni 7.93864865476376 8.810313489130337 6.916774182775083 1.6723951343043326 -0.31722630758387943 0.780039789013676
Ni 6.84220009704805 0.6612609564288885 0.42862220306823867 0.43369188147349175 0.17291671489880542 -0.4788371105515625
Ni 1.8207977603507706 6.660470235093854 9.185662175224936 0.3193978613139016 -0.8647288418226398 0.029000758107724248
Ni 0.11137007648477813 4.835731432131104 1.5609549908824918 0.11163627082176902 -0.37963212351461073 0.046833929634403214
Ni 6.504109144003492 1.751978318309558 6.929432414834977 -0.8042037878543892 1.2736044355834002 0.4198362065373222
Ni 3.5302092110892995 4.565251454972141 0.5769776567978362 -0.3425655576796165 -1.4068973654429964 -0.11572998127516843
Ni 5.9900691260625845 5.3895245755493635 4.733575459162708 -0.33270229173229154 1.1644698481375622 0.44233053098509634
Ni 5.323591022835001 3.009594776525662 9.374677104048597 0.45646851304837516 -0.454658713533146 -0.230358501956042
P 0.18536608250602687 5.523880760522497 12.58621018253972 0.31029024258567856 1.0931836989980657 -0.8506739063914704
P 4.084453274714879 6.149280032863208 12.4773814923434 -1.116672269038309 1.0052514566614557 -0.16267343990424243
P 2.3463542803866377 8.547417989858502 1.3791998773966851 0.39957025719943445 -0.45999272415154974 0.5310729279278272
P 6.443866204305511 7.824268234974912 5.9200646657165334 -2.846634660234149 -0.02154687293284031 -0.6038001803892247
P 4.799251987358899 0.9712460529511763 12.459839794438228 -0.8012033104651686 1.0037291064796585 -0.06198209812975132
P 4.052600271269779 6.057815378010375 8.288503214176888 -1.1271227749476718 -0.6154079398314821 -0.6258877563168833
P 4.854624988817821 0.9020478379358148 3.601243573188869 -0.8837537196645747 0.28933523760056623 1.9042772719937526
P 0.06880952179665151 5.551116341044639 3.7832097173317014 0.658498343263053 0.015041981934786999 -1.5191131629173193
Ni 1.717798566594685 1.1546533380766042 2.708545114831632 -1.3886031951194988 -0.08526909368214992 -1.4069516157196995
Ni 1.8417294763745755 6.261288612361552 4.924121713010429 -0.22585084389367557 -0.018837187311161106 -1.0232638340784765
Ni 6.115334759656142 5.68282111519873 9.20783752918053 -0.28817978383988435 -0.3785478893114964 -0.4512021224431133
Ni 8.640109147675247 2.393953417471361 10.07298837023216 0.632767257045536 1.0163354823897592 0.8338792034316349
Ni 2.4601575223101158 5.042297979104499 6.998134617622286 -0.30103298565346864 0.4320836564461075 0.13052693707868487
Ni 0.5284306854373263 0.15325785822358298 9.259262273304158 0.004753712634901491 0.10079547145252317 -0.5688383196020591
Ni 1.4470841109279156 1.0157428590095359 11.374364830887862 -0.06538289628118418 1.3480008482171042 0.5583140230319674
Ni 4.029666469525472 6.78119961140177 1.6370883586864384 0.38500932866612403 1.0002915415530191 -0.10935904475181811
Ni 5.340951450816829 7.710428919434848 7.869490120726643 1.51964640971297 1.27953442791459 0.8907448062704273
Ni 5.319433538523508 2.8157802530152836 5.013494098101297 -0.026812492207153822 -0.3611582330801393 -1.0086316859875983
Ni 0.9021380219772788 7.362949807673884 6.787802886917768 -0.8476294631381918 0.013412416751163996 0.9159030507036098
Ni 5.0855863190072395 4.549523358140812 6.978929925992518 -0.5480432372335787 0.781787624942718 1.0090235221093784
Ni 8.366941686080654 7.210340372708426 9.218502693924068 -1.1511990991705852 -0.11578294600029093 -0.07995076679303005
Ni 4.787122233781984 0.44729029965129596 10.297416768457923 -0.9216949747950385 -0.6931989799690319 -0.40402495053667836
Ni 7.9880785278902025 7.20759877784792 4.660134986836877 0.7727823361203142 0.235579126925033 -0.3906241037497402
Ni 7.206904360728647 6.207782420560934 7.0231606891285585 0.168936904315451 -0.5317938652542519 0.4718763629630131
Ni 2.3741940939865884 5.166328091329999 2.726100340343023 -0.5932308895138106 0.5974009617311002 -0.6881693879649244
Ni 2.2388188293449107 5.242344219880042 11.299841248224048 0.8072356327021776 0.26518615115818844 0.8542510822197674
Ni 1.111527329448498 3.3872855421770818 3.801385409048365 -0.5585541640672316 -0.3470685877562926 0.23007336661545538
Ni 3.608479940675944 2.6402370163055204 2.618908490499274 0.7098844110445129 -0.16593308449212069 0.17566445284727167
Ni 1.0374862314065172 3.507897679231095 8.172375027664467 -0.0715795120101993 -0.7919000307863716 0.27264080766402077
Ni 3.683495026365737 2.7388622840505996 6.914160649253455 -0.8221991959905454 -0.6744826345064513 0.07219683387922406
Ni 3.888302984530582 6.821493841127905 6.0649543467326685 1.033921828012955 -0.182681250484737 -0.6389384188532545
Ni 0.9367596754953257 7.401016491575857 11.341907594364953 -0.5321821018316061 -0.38101280591222125 0.6172601625488725
P 0.22388819581739355 5.62300204049563 8.04138451111877 0.25901241824730875 -0.3015047830835646 -0.705296020342882
P 8.514518851532419 1.605510416567803 7.954691493899799 0.35079103091320235 1.086854157235612 -0.12644582503077575
P 1.7612492377720619 3.245759725907556 10.494021586211199 -1.0972725243554584 -0.11655247717646379 -1.4012720488364188
P 4.07742793788483 6.05855488715038 3.7592658543229973 -0.3051200112386487 0.36881986339045514 1.0685826126199338
P 7.004919163061626 4.0207923598454105 10.482352673086167 0.10835245786417469 -0.6287859038002849 -0.6010861238921712
P 6.3648379287705685 7.722666893861518 10.015162362845414 0.08958134790425863 0.6750289939282245 0.4344914945566517
P 2.454124209936171 8.474666523609455 5.764246482555786 0.35006752248361644 0.33908325555797086 -0.26166502537880737
P 6.937299168771885 3.966104757101613 1.588000283077144 -0.128807640394733 -0.4741882989256414 0.277180090295271
Ni 5.282097345357393 2.804173566878861 0.42534671868226454 -0.0010448963247465875 0.45906661279285454 -0.24186316016153186
Ni 1.405842948766408 1.0031802220335946 7.019122247751799 0.2063359137891995 0.5950746275907687 -0.42833781625043005
Ni 6.898375736476003 1.0046502219094584 9.188381224075078 -0.756351958478433 -1.7136471989755842 -0.03507010423025573
Ni 2.715053697104092 1.6154216427247017 9.123546112985746 0.18562336383219644 0.20320610991096616 0.1737114428859589
Ni 6.358849708417355 1.980378421721398 2.5758789787955343 0.6546198341442533 0.33607815018306 -0.11547029985587855
Ni 4.132115540628627 6.904959171502878 10.324792134244333 -0.2511517845523094 0.609875440049027 0.17514971799438223
Ni 8.058719687568988 7.210205096646231 0.30044091941414797 -0.5228294569721126 -0.0920748037500737 0.24067556761133393
Ni 7.628163036811347 3.8593539072206235 8.050227958224735 0.0020445412338545433 -0.18410281342261198 1.1160996843642907
Ni 2.9889877230511277 8.221059980608416 12.441149151844803 1.240510995463541 0.2961319488074255 -0.48917937301783493
Ni 0.06818454638930567 5.05019810113675 10.149518547818548 -0.04089365289056828 -1.2594731383883406 0.44833868485238915
Ni 8.62703246166296 2.328858576342613 5.777222162441634 0.28547215510073415 0.4647898884298769 -0.22202632794126276
Ni 3.5533865097455593 2.7527235712236235 11.410927244978216 1.1319579915527862 -0.5821116396721976 0.5066330497179081
Ni 1.0337977041106376 3.4319717347225156 12.613295155712615 0.5796762907578276 -0.40025648463318164 0.1427363346606832
Ni 3.0022537955504887 8.277443043331736 7.994038791190561 0.5942927551194217 0.9297535834334568 -0.3135617142480987
Ni 5.581210755681191 7.7478462782382795 3.81021532854811 -0.5831729910571763 0.4085146108769158 -0.36397436237269576
Ni 2.8305614174112406 8.008009201053756 3.5694329562432565 0.8895582421614938 0.4067392641440479 -0.3474995046461241
Ni 3.308590947595556 4.168378543701319 9.203956909876332 -0.09796031599657322 0.6228885644792433 -0.11715180132335952
Ni 7.213361538097473 6.036928754007302 11.405172601292396 0.4073614711090791 0.43634963081131306 0.5207268088068129
Ni 0.5669311545787415 0.07535507952611187 0.33959251733493373 -0.5004228071421382 -0.3698179656376663 0.21747598956641898
Ni 4.5240463664272195 0.5454357882957865 1.4085421571274268 -0.31805497413276196 -1.3751262436789866 0.597606649984003
Ni 5.895132385613384 5.483830027708316 0.3840153724792929 0.22110767278173532 1.0310362789350438 -0.13368039510600205
Ni 7.979069142147945 8.731943557098083 11.231785665014035 -0.16610303441108168 0.24930444693092552 0.29187985839929087
Ni -0.08570460012452563 5.010535159700862 5.871544749568463 0.3715012668773602 -1.3190607681439863 0.365334475945016
Ni 7.695990454396455 8.707729141964988 2.483483624634791 -0.09752451401073528 -0.01954604045272763 0.37998950685402944
P 8.447710513615853 1.5191772336742728 3.5278815609791128 0.8973610260353643 0.6433625160628791 0.009357272845183884
P 1.8876692270963598 3.3148767752856 1.5645181623607363 -0.7507220138861651 -0.22206540870931435 -0.19355444575381506
P 4.657789299918398 1.1987713711608148 8.108305579087164 0.6541590924577508 -0.35475181533316325 0.267688605865068
P 8.580208907334828 1.6307529297735892 12.357187809241779 -0.9380559326515652 0.11166172474306577 0.41937340796829065
P 6.0060858118265985 7.7185725383790516 1.2624169547432351 1.708296476186632 -0.49337464204610515 0.9418462529319328
P 1.7056507762094781 3.1475222495407724 6.014255584142826 0.42551217387617685 -0.1726025260924963 -0.5273926508627627
P 6.874449910275592 4.010006348486311 6.087617596352583 1.0024026743587513 -1.199208022949696 -1.305565818981345
P 2.453438811221045 8.66485564865298 10.128359568010254 0.8697872301821536 -1.2786875065332624 0.3177101891988335
