# total energy = -340863.0452073882 ev
CRYSTAL
PRIMVEC
9.33802614806431 0.00000000000000 0.00000000000000

0.00000000000000 9.33802614806431 0.00000000000000

0.00000000000000 0.00000000000000 13.66714516984290

PRIMCOORD
 96 1
Ni 2.2735105438456773 8.425803688073737 0.3006713678884676 1.5967825898753403 -1.0111557379610328 0.4886978053957261
Ni 0.21816430428584682 7.407856122499777 7.6454416535139424 1.0126289800724497 0.46465233441074816 -0.5714171360728288
Ni 0.7725825249976445 1.5352835507530989 5.723076376350804 2.104429425569743 1.4248002138653462 -0.7899493348179041
Ni 2.427634664987564 2.5536233134241795 8.11925496654415 0.7368624822952535 0.974008182376458 -0.34144275692908294
Ni 3.1649091794157087 2.8342029843087766 12.755163791087217 -0.02336592841945008 -0.3767648292691447 0.6895852944758447
Ni 5.0267621797037405 2.0198337262182613 8.213216052987887 -0.21523064517566803 0.04962589055724356 0.07023173973305323
Ni 0.4990652032690371 -0.1957352993436658 1.6694420382437607 -0.15784028018165722 0.23866522204952445 -0.3702018313396463
Ni 2.756342522504411 8.249669839362543 3.240999151467363 0.024330863435880676 0.03382800429303852 -0.9300250919272887
Ni 4.494700127330374 3.7491894738627165 3.129680542068246 0.543996835078347 -0.9443857315243349 -0.9845371069322397
Ni 6.245411940715604 0.922512938608188 6.3610307111438535 -0.9506574234656594 -0.18353048585890974 0.13248200392252668
Ni 5.780574338393763 2.3577955676219067 12.747934291263645 0.039715830532383214 -0.1077374499879951 -0.6214934839039297
Ni 3.686363234114603 0.4201075233953488 6.691679944291442 -0.2582539428147294 0.41983826341985114 -0.0848947410618667
Ni 6.942869111759985 1.346113817575738 4.024728478246714 0.24289700074268492 0.4314120843003796 -0.09559952907388052
Ni 0.3478732223294254 8.893517402441123 12.738216207478587 1.3030937032917689 0.7534692376139991 -0.4520467298315957
Ni 2.2379606783996207 4.163461664734493 1.0007067679451052 0.5549803306730442 -0.5337949548446806 -2.3740008502798213
Ni 7.946949708542932 1.114894952771481 -0.2505214986008273 0.3989305667329065 0.6701307852956587 3.0714354655967555
Ni 1.7599284451675412 9.297340342082498 10.33709033104586 0.3929504378900716 0.2436032827810901 -0.040053930598092306
Ni 6.441323728752974 8.697783036900068 12.537637273985494 -0.13909950923904432 0.8022826595722763 -1.4405425643012675
Ni 5.898494932261061 6.164787423179157 12.201015439330341 0.4687864111837798 -0.8305072016356083 0.5013792575181365
Ni 0.0074844279366993215 4.692554224801097 8.036636780430678 1.2105363034783216 0.37826583929470337 1.2735787245517873
Ni 1.858687409432709 1.5458075061924752 0.4583224614965944 -1.8144311004638816 -0.6104670508864389 -0.903115154910322
Ni 1.6987363599907594 8.36375250449374 5.778264110731206 -0.1959455716938109 0.4508804774376364 0.12443676502054699
Ni 8.351939901449544 7.165366260166392 12.424009370726433 -0.859482505822036 -1.6977994333100503 0.4444293224956539
Ni 5.715675056846589 4.463417739822023 7.441173265900088 0.0630817589518333 -1.663034519025039 1.0439193055452989
P 6.940198436289124 0.4992407581601287 9.39541016001987 -0.7176424577233769 1.1870014535811753 0.0042726592334249
P 3.2992273471530553 2.9121007982176295 6.035397865628948 -0.009662462790428521 -0.26729291308854614 -0.5960135944652702
P 1.3285209763620867 0.40274346382168397 3.482552409780722 -0.4874441354942831 1.2809336222549617 2.1129148373329354
P 8.342125635995432 2.129424800784828 1.757020583833183 0.9032190274780381 -1.054698912659306 -0.5631034740008108
P 4.07674875416657 7.340855785075176 12.056526293541026 1.3861333934227678 -0.5702470270241277 0.12036130939959272
P 3.433134641741038 0.6815386379143867 8.915529931418266 -0.04616312881962373 -0.9578876226655118 0.32477352380351804
P 0.7164553851893787 1.3027760383440203 11.613683477946697 0.38101306302253735 0.44539014374702646 -0.34136408117234757
P 3.644650271428095 7.310665946623088 6.93889204643467 -0.09135000976890718 1.0625862858271828 0.33292957725174915
Ni 0.13285209763620864 3.183968090730498 12.339067883713835 -0.7193411855820385 0.8164224414077681 1.064950158073669
Ni 2.2884980757713196 4.9593136170252885 2.998667101775438 -0.16174578588365046 1.0372686329980005 2.4007462366944656
Ni 7.164376429397471 7.202064702825442 4.491365518202245 -0.024240617714919543 -1.0989141737239398 -0.9597295609702569
Ni 9.370242312016137 4.059566786102282 1.9286936574659481 0.5583641595436126 0.043973834477788784 -0.978722814243308
Ni 5.1978908464136 8.388358203324938 8.274950677482352 -0.8036456013580741 0.8932449469844616 -0.767059574703924
Ni 1.4068670155247904 3.9974782504177986 5.408088880614857 -0.23871304456832435 -0.45622220136552405 -0.12105396459124312
Ni 6.36618063255008 4.981594147352132 5.093909124138455 -0.6350120872156547 -0.41313154082363696 -1.2433731475026846
Ni 7.582888084128588 5.207284900692226 0.22468224651892996 0.5240504738634072 -0.3893696625173488 0.08739668154811399
Ni 1.6127891675648323 5.129966044402932 10.219758032824242 -1.6663944366362076 -0.3645610881141012 0.7037888396697363
Ni 3.0044632145892987 2.0698201800487683 10.703055978986459 -0.5850504105855472 -0.051567844774962804 -1.9398806230196588
Ni 2.0712395600192965 7.041105146562327 11.587265268245243 -1.9687754516771385 0.9904002505812363 0.40488704142665755
Ni 4.425589396002224 6.594243244525136 0.4929058412390347 -2.6684615820324105 0.7108588591426402 -1.2608589629922737
Ni 8.494727658879448 0.3854008817080995 6.5925661350336435 -0.6372636022539928 1.2100724764680255 5.57387268897482
Ni 4.7386934118693835 1.8204388544374248 4.762398924982428 -1.1492229492808208 0.30930062497889954 -0.38970801969337404
Ni 7.129312141309754 3.629475978980015 2.5408180782032237 -1.0310074825796374 1.7951624820422565 1.4692826125484375
Ni 4.646891277065028 5.773159945652977 9.894070092955216 -0.6901190554921276 0.1958175307563789 -0.492340544354636
Ni 3.699473822789744 7.969314281104872 9.920802994136979 0.1990013278009992 0.5174404247460572 1.2023038882662003
Ni 6.299012210655285 2.9573155206998476 10.04189384787266 3.547972981480864 -1.11782977968152 -1.4049232724357612
Ni 4.911577627490159 7.425420949635063 2.8986512391942636 0.6617266203923636 -0.46698175387487323 -0.8862626021293576
Ni 3.010878438535041 6.681068211406521 4.962417576908207 0.18745347506239976 -1.0277336969243718 -0.3905125178725404
Ni 8.701863754315337 8.917217312738494 10.257958030083692 -0.41005418744989375 0.35617543515356725 0.7389967550294371
Ni 5.8432231556455605 5.489853571140786 1.6659159995801331 0.5503580014096844 -1.3057308838042996 1.5575136170723887
Ni 3.3036722475870777 5.121122933665496 12.17903932865507 -0.6492210317261852 0.7362510739634996 0.9307334308482228
Ni 7.344945840516567 2.6773895116437836 7.543335006884075 1.0339354548597097 0.05059211112525481 0.18369683623344493
P 2.3833910972220225 6.437952701322969 1.292326787113619 0.5135279770655286 0.2066004803044958 1.1266399217739824
P 4.552278396397981 5.603105151947137 3.9783147532104444 0.3730099902124027 0.43353375862907273 -0.12331730670412311
P 0.6799530410788889 5.889091539956311 5.994697144974054 0.9931227917187218 1.1615925265897673 -0.6906114217475138
P 7.223850317767824 3.1240646531585377 5.382217879244146 0.42656529773103957 -1.4258101431870993 -0.043977691132530715
P 6.595597258312811 5.8097089798940775 8.950244043526414 0.3205170625200093 -0.11909555531329168 -0.8338727756737316
P 7.135101717505329 4.195631164724423 12.106411896689417 -0.5154658175181897 -1.4977609224937882 -1.0896746574035427
P 4.5388689908869395 3.672897800446829 0.46978582236383337 0.530782393270602 0.9013464930456735 1.2180822341463797
P 7.837078493192709 6.4548171764991125 2.451393404849503 -0.07027339160426607 -0.6337676732855924 -0.30787726226881174
Ni 8.818682461100252 5.146447660508076 3.9541647500539976 -1.543753844284135 -1.2739564196061801 1.2406873731404053
Ni 8.958323303727079 2.67397179408317 3.8331420639090066 0.8466624712392322 -0.29689273823284995 1.0499192318824757
Ni 4.862151455226965 8.540941550156711 4.877311740635863 0.33183737262883495 0.7442808862465118 1.4112281316078663
Ni 8.390029710000755 6.390272739944571 10.277857363749453 0.46298343134875747 -2.9720523011107267 -1.1137599804875207
Ni 0.22842866259903447 2.872432863251817 9.931531452348425 0.44019111604459027 -0.1109598135800347 -0.9639831940402882
Ni 3.57767794808186 0.08164889900201854 12.149271568983695 -0.6111918448676055 0.2165146540944142 0.44057601018783477
Ni 7.464117729884197 8.060817599073326 8.259411268212904 0.508288325933144 -0.5899763871322549 0.4678387025585297
Ni 5.737460671788972 6.53032445572076 6.6893566433923155 -1.0090397200592944 2.1659687797351213 -0.04671000246202923
Ni 7.632006101529759 8.797307719307232 2.7610096679601344 -0.27246417287684044 -0.5100040230726701 -1.1800785012090966
Ni 3.4905354883123305 1.8774101518071098 1.9263843636060034 1.6371183133799097 0.25628859155824246 0.8913029927667425
Ni 5.186433088362033 0.7470794418561354 10.64583162110887 0.5462447505722593 0.18213874771770566 -0.8803783754344385
Ni 8.892200740757936 9.068708110514006 4.745109569617738 1.1139723536086428 -1.5847068896577288 -4.6484750685172145
Ni 0.26571166569331484 6.288310832719592 0.8517923315766237 0.4428396094110309 0.7445225699436727 -0.011790307766708728
Ni 3.128864398585192 5.094061333964242 6.754398796739155 0.4564057781312398 -0.7917442219347978 0.984017229873028
Ni 1.4096310712568718 0.4803863496174093 7.817347243997143 -0.7495647603532704 -0.8674616673727705 0.41002461976353904
Ni 7.860498262706423 1.485455843366664 11.324568851186687 -1.087244193585179 0.9631283022391606 -2.280807616654588
Ni 0.8179177080168354 6.8369385434332015 3.7854163462026102 0.387460618420094 1.7518419648777508 -0.08450701870514478
Ni 4.779351177604117 3.802080053817133 11.062283307277498 -1.4510810019387461 0.11137787495405978 1.5770385744791937
Ni 8.043084687467847 5.821390850572569 6.65378156527573 -2.1103720163064237 0.3472850746424728 -0.6850560391469234
Ni 6.115669405777986 1.9021279069517674 1.4238977075659038 -0.8965999794996236 -0.8132887808747928 -0.18639058101552416
Ni 2.2862943016065524 6.661336962210956 8.56418856618717 0.9566810039519201 -0.4940390151029814 -0.7350760798187921
Ni 6.508940375901619 7.484558669065027 10.381508519899882 -1.9802546559613314 1.7726331905914892 -0.02450904088495779
Ni 2.2314240601142936 2.4318181006901733 3.7407114799466474 -0.28092155961557425 0.053559421283694855 0.8113931065139769
Ni 5.964066551689011 8.284369944431507 0.9895683703869079 -0.4961473196952359 0.6796114710925844 1.0603882497345996
P 3.2073318320874806 3.9826027748056188 9.506565353961854 1.2814745823600961 0.7077935899537553 0.25606721957605577
P 0.7962264071382841 5.204352760489951 12.480973197675219 0.6874613061543065 1.1172325124171532 0.4173044412544039
P 7.065813563680863 8.245084868536692 6.232860699805164 -0.7326736410248866 0.22847285489755492 -0.575692623519731
P 0.7349493459237929 7.425420949635063 9.801844011764926 1.8898927211373064 -0.28336873560448617 -0.7703341316901378
P 8.142917524737033 8.41753019692974 0.5178523780236788 -0.9957016081894917 -0.5121303253870535 0.08181610213654297
P 0.29442609601814373 2.6999408447281614 7.593588528261669 -0.7439165609285575 -1.8795517442226146 -0.44206647869043225
P 4.267393895471191 0.6527663118276019 0.43797210116914725 0.33167436468840944 -0.786402240896594 -1.316316886850262
P 5.318145946811371 0.40622561376253885 2.896655703012014 -0.5544416845607547 -0.7757640444564574 0.8715702902245055
