# total energy = -381164.9709206966 ev
CRYSTAL
PRIMVEC
9.32957958732372 0.00000000000000 0.00000000000000

0.00000000000000 9.32957958732372 0.00000000000000

0.00000000000000 0.00000000000000 13.65478277440696

PRIMCOORD
 96 1
Ni 6.255175108425828 1.0460697601181528 6.934294784726142 0.2037720097167652 0.43439970617379386 -1.5352962004350847
Ni 1.1507663000921629 1.1053778963340486 7.655731567247641 -0.12316689716918787 1.4643988020935748 0.28458255340692923
Ni 7.558200144249219 4.026469205001181 12.327933615725133 1.1334600300196092 -0.48837358928708796 2.2984366425902607
Ni 0.09180026237589264 1.323736702080948 4.877338041347437 0.8016056881099097 -0.6428801771098219 0.4541095258978953
Ni 2.2058950818031478 2.5799459084987446 11.26657454089397 -0.84401474920374 -1.1630840235336293 -0.5543491248469485
Ni 4.767219149828882 5.806347702876934 6.513249000700562 0.934468729520939 1.1615552455939286 0.9856154275980833
Ni 8.165089283913215 2.0336990349041724 8.095756514637074 -1.391632983084758 -1.0323133458752545 0.3746462402642451
Ni 8.59258927096446 8.857390722941144 11.702981477393905 -1.7630188074301765 -1.457701078358425 -0.8323424550721343
Ni 8.412901571811062 2.2788803814125473 -0.05481780965293987 -0.2969122786168758 -0.8476613448173919 1.3572601620318432
Ni 0.7229229845191693 6.7342490103742705 1.7697279154936711 0.8650409737464199 1.8125598515830976 -1.7385069383317413
Ni 6.540268395587279 7.226878791184077 13.486555421668134 -0.22416548577145265 0.8805616950898383 -0.16113309200031606
Ni 4.342014239308878 6.4594649084446205 13.151453723032018 -2.0506640589228295 0.20939784054397487 -1.083574972263708
Ni 1.1392722582771584 7.287791615055964 11.277484551038828 0.4827626708582137 -0.04080135028707812 1.4098453923277268
Ni 0.8055550692233046 1.194326106288799 1.110087468012794 1.1631763261371193 -0.9199900762887898 0.5943032966423829
Ni 0.2554420179273215 4.346716347324107 0.37901882772359186 0.27304447086034267 0.39952603422506033 -1.2189219564388556
Ni 4.040883405166913 3.2250116870482906 2.0997095409576483 -0.18017828155722518 0.6122184863599069 0.030464744247760436
Ni 2.6558513664588714 6.609102032365771 6.857800630306174 -2.1340387637957443 -1.9005406877694557 0.35035265782420305
Ni 6.292512085165801 1.9570845289100025 1.784106663257701 0.48360367870227033 0.11240323089478063 -0.32393097329756465
Ni 3.639562217898867 7.175836662312413 4.746320891983419 0.17634528096438018 -0.5568878321084022 0.8887432024593661
Ni 1.5852914604280672 6.054841050070639 3.8198572726708986 2.4878554689091477 -0.36396819172510864 -1.2817766869815475
Ni 5.626305479706515 4.220393842311801 5.139469367701187 -2.0282550951000102 -1.1589977692793973 0.05393840188966839
Ni 0.6646457668264536 3.960126565921233 4.401100331535165 0.05315704363895361 -1.664529872623643 -0.8783160935887712
Ni 9.083446431689161 4.8837082781585455 2.4023265770972833 -1.7913055701900118 -0.41009969597584855 2.6210082736464537
Ni 2.5456410450622418 2.4598182442049152 3.9382990819679984 0.4712017054934917 -1.1909936054597037 0.7553839381382088
P 4.07530022355616 2.854841965381137 12.56743884612941 0.1853037757092486 0.13241078436495904 0.4128289219815535
Ni 6.975418637742667 0.904614677326677 10.525624943067209 -0.8605117184174985 -1.2603761098185842 -1.2727690841662984
P 1.8856199507420364 0.36358210565613536 3.123421897012914 0.4032027117456991 0.3337225054666898 -0.036582941330356354
Ni 9.072978643607641 7.193208339146454 9.421581176586688 -1.8447703748773714 0.018600902930638933 0.27625449315720807
P 7.986222587746601 8.818934196673734 8.593774127547663 -1.324852435125099 1.4872535952045614 -0.5093877296449099
P 7.268964523836257 5.265810531872282 1.276324712551994 -0.5339031982877708 0.3748488431933544 -1.5067528415797535
P 6.715645829060049 0.24236288057305627 0.6715655158639445 0.2311941104834599 -1.2839045319578275 -0.8907581760068658
Ni 2.1677557612351785 4.016132031031193 7.803353502019408 0.718102170968615 -1.2577489566083822 -0.5557197799422301
Ni 3.0857117370971285 4.502221776684898 5.47574566038317 -0.31349152313179557 -0.43841062710539985 -0.8125063941828136
Ni 1.7042062794005084 5.145850800007569 10.019579227086966 1.3969266273835297 0.14907616083578198 -0.306984061030581
Ni 9.144163334393747 8.929125858911572 2.7855894304877955 0.5589881662808567 0.7810247786347646 1.618655992909664
Ni 0.43894831392721434 2.9356454525237945 9.482522922154699 0.9237603419644994 0.49674098741517675 0.18898353855368097
Ni 5.82971829926215 5.843787304990257 9.107753717845666 0.631009650924481 -0.7813474520815059 0.296318868007251
Ni 3.4410940754227384 2.1526605017735894 9.150998184258741 -1.1919703675506763 -0.2372580572893527 -0.500304536396719
Ni 3.887243891685181 6.557901300644387 10.580490333575066 -0.713309891786294 -0.009326933827880711 1.1247740722098372
Ni 9.080778171982107 8.757993384063662 6.684916993405764 -1.6670048165266966 0.5589809671920051 1.8460353576327238
Ni 3.7016412391951654 1.8196504948378993 6.843968595894707 -0.9181206271802187 -1.225303177374851 -1.55133782727898
Ni 4.552163015187917 3.676843217162469 7.690714691106183 2.0395329820066745 1.6261764696564254 0.6683492679152038
Ni 6.01071213953089 5.405147800141027 11.758597899043082 -1.2296910220299015 1.287240538309596 -2.0814795016417893
Ni 8.525770823335352 6.554262764680222 12.882372792986715 1.6317506213100927 -0.9042960625923006 -0.5174226841342444
Ni 5.448726265496453 8.41487011306347 3.5081457625367296 -0.11142518325222746 1.086543825084045 -2.0076407612837683
Ni 6.0221968517665 6.32855225036983 4.306404167714973 -0.1660323290741463 -0.6757355330769459 -0.2593029529045341
Ni 5.341837274364549 4.479681512865864 0.01984308241585476 0.05112252970742808 -1.5327456660990892 1.835724462625019
Ni 1.805926683547419 8.32116381761712 0.09548824511085309 0.9703474456954191 -0.9743028307987414 0.5613422683353301
Ni 6.385546650895692 7.894092991218056 7.078694282774775 -0.0923015750488991 1.2060209321064712 0.48036717404284374
Ni 5.239482458818758 6.51573160177765 1.6692837978080368 0.2853412859498247 -0.635606526266544 1.4281876422803403
Ni 0.4304938490791972 5.714777881112106 5.730311630805273 1.36018119233338 1.1762573276907935 4.127740546400917
Ni 7.596404771872955 7.382505505077007 2.0081266577816663 -0.7641840529283419 -0.8934280095295452 0.9319896718528271
Ni 6.604483890565099 3.180724173658821 10.535470448203066 -0.7314929904532241 0.1542520486097666 -1.7303603979652071
Ni 7.818887251712575 4.827040412911519 5.004642018112129 -0.15423353666700534 -0.20092734117911848 -1.3073087698143806
Ni 2.9892812044673502 5.480372198805298 1.451079863079099 -0.36011205120381207 -0.13260978774964258 -0.09888848423779745
Ni 1.829483871520541 7.786905453545502 9.130311707865552 1.6298238366010251 0.809455780281948 -0.929709874679715
P 7.084621364564606 7.048198686605371 11.041038489718268 1.8260784548948228 0.19004103328391786 -0.4188260201052529
Ni 3.2272601156825567 8.901986112450658 11.010479452408976 -1.117784014045249 0.009338503792106498 0.22257834378999086
P 1.849533137641032 0.6756369443120517 9.699251850381241 0.20074170753087364 0.6437864909741751 0.45228044310895654
Ni 0.32777331402111076 4.717352547961026 11.73026396641957 1.0375959344304324 -0.7305663648738966 0.2374776294993265
P 7.151868972845898 4.08696219780028 8.153980553727235 -0.00845044476019835 -0.6630440536522064 1.3278904506204745
P 8.847128185606318 6.528177260690975 4.087722558520996 -1.685268390722575 1.8647373049176015 -1.9094999538452728
P 3.519415894446247 5.539344470162963 8.680809773726379 0.3354083778095449 -0.7823699798087494 -0.4055336738717209
Ni 0.3923815842914741 5.261080435118869 8.171104063749361 -1.8092081615020454 1.707158505927447 -0.32458634749337645
Ni 3.4547339204986605 7.852669658702942 2.567713896953572 -2.2124658948553964 -0.23907197056963986 -1.220316008572905
Ni 0.9386023350637397 0.7122434149853739 12.426507152742012 0.0015269781674876928 0.614508053725032 -0.7082946979598899
Ni 9.196940765032936 3.5679950143575523 6.7268506539138 -3.041854152395213 0.7544074331575524 0.7816505851442215
Ni 5.268637394429057 0.261922343775294 8.743198537058602 -0.2799669090117888 0.4391477623817404 1.5547576515938064
Ni 3.780961323213971 0.2694457165996606 4.4841485154803316 -1.7508950275834492 -0.000806040841063128 0.4163220227364766
Ni 4.688430851835609 8.65785900841395 -0.04469428305110433 0.058817841469156765 0.9659750276593363 0.1530505721024977
Ni 8.662020000824253 2.0293141325883832 11.399408159366251 0.7760013572782443 0.9398557048644653 -0.6336640578281926
Ni 7.146513794272998 5.807877753897763 6.927208036217476 0.8703922107560041 -0.7716790757538065 -0.22863534861734816
Ni 5.204468547348212 1.8736407707984766 3.756540216188845 0.7493387603853934 0.5309659700363177 0.985275013539529
Ni 7.2129590587262955 8.236152690167183 4.71686740983247 3.248207292575593 0.541205902596771 0.9637754489048563
Ni 1.3009538691976357 3.03404452640598 2.130978559258922 0.4801735699747988 1.694348241536656 1.108880283797716
Ni 2.3212739901847717 3.1660580748494165 0.1275829311886104 -0.40553727341614676 -1.4068050628395063 1.2500374468967375
Ni 8.17584628895599 5.101768537364796 10.017107821505153 -1.3320232418419253 -0.4163577610704185 -0.14080235086276394
Ni 4.24621811807798 4.10558403827329 10.615992182047986 0.7155557503976774 -0.6263130167797601 -1.618586316013993
Ni 6.648855370169127 4.017400853828954 2.9321048771432796 -0.768065390260619 0.532271833331935 -0.09613020476636992
Ni 7.233390837601993 2.609707266769738 5.2658571797692595 0.36414611206386965 -1.046447214173475 0.35318498506667556
Ni 4.105863925655149 0.6088576809164029 1.785034956407533 -0.12357775945436136 1.0702443165930728 1.0213974702936988
Ni 2.7832747618398224 4.594957795874139 12.228403796820237 -0.4068292527546929 3.8093433584373875 0.3088625090002165
Ni 5.9733658332115205 2.013332563084241 13.042297644107057 0.7149538551476203 -0.47960355640394176 -0.3790718801357665
Ni 2.429767668972667 8.784815924825137 6.767405402587212 -0.11042399568122273 0.6400843595322395 -0.0888005038741761
Ni 8.908339556018854 8.693246103060307 0.5185063022205997 -2.1045746928983564 0.08755840393695888 -1.4063492062490102
Ni 4.272919374307317 7.544345718847205 8.43464135771798 -0.15973929697658296 1.0282206638631195 -0.8724303242319555
Ni 4.587503461937297 1.571399716708472 10.958618186466406 1.1231463067984269 -0.8351339017743424 0.33235082193014376
Ni 0.8716140890896364 8.033896738456564 5.034682330807042 1.2926745648409739 0.003075810711846316 -1.9813026376098715
P 1.4447600059967258 2.7386887019097035 5.977941058946974 4.4062655807598565 -1.9404133555946776 -0.6775741289475814
Ni 5.466974922793653 8.372243264806364 11.334002210057593 0.33731305103142556 0.237264742157572 -0.254256134509246
P 7.4097292177524805 0.9649490672760551 3.8120325544320646 -1.4220247080027382 -1.2824801408064752 0.49218062173800403
Ni 2.9143646819231246 0.9011328782963525 13.369916087110207 2.289413098935412 1.413372688754695 -0.4694353576216883
P 4.482937536074822 8.98942293054337 6.442763095411163 1.2137892631979805 0.08152171082457574 0.6266778563183465
P 4.188440032882913 5.362138439128713 3.4414420687341827 -0.5114322708787644 -0.41621146530054126 -0.003783378301832194
P 1.5577038941561776 6.274804543473531 13.159715065586553 -0.041451839386883446 -1.1813815362912363 0.6825918938771469
Ni 8.480055884298402 2.5108230547589976 2.9774662251211477 0.5087128150650723 0.5367740920776627 -1.2062199354911551
