# total energy = -340886.3804539781 ev
CRYSTAL
PRIMVEC
9.13770439546273 0.00000000000000 0.00000000000000

0.00000000000000 9.13770439546273 0.00000000000000

0.00000000000000 0.00000000000000 13.37395403607358

PRIMCOORD
 96 1
Ni 1.2505405496406077 6.593191893361844 10.849352810139873 0.5129006278941748 0.14052184350786767 0.285201932158483
Ni 4.502923713087917 6.182918098920181 11.604540226260278 0.15669408239235594 -0.870995648667958 0.07994691013828813
Ni 2.0712160663869614 2.9786083988586407 8.610178424839944 -0.08346623614545626 0.6839095842473061 0.5156774193083635
Ni 3.1179309794027956 0.8696453889437816 13.038040464295019 -0.439174758964934 0.4449461142310724 0.23454245813040253
Ni 4.834055848836529 5.811881607610716 7.253497954784259 0.2705327601820825 -0.8733332956621991 -0.7678378476308454
Ni 8.285494767158495 5.352922123581644 6.211573026468448 -0.9504838740022726 -0.719990132019947 1.4070788853261833
Ni 4.232310594256989 3.0985224950402466 7.430876333268484 0.9816276465949287 1.1313152157624644 -0.9230172931508879
Ni 2.736550606596906 7.161100228169953 12.949251217188607 0.032897779169285275 -0.5463753626128526 0.4617922392541337
Ni 4.865041804803292 8.505941888272663 12.586589432055355 1.1686607462904584 -0.46797882768081983 -0.15866843250990736
Ni 4.994386012031108 0.7117513377694736 1.2426876063914671 1.2407737622066244 0.9238459596997702 0.6098127051318917
Ni 2.454643285001331 1.6411317285846565 6.452879699420107 1.1827285372374339 0.845922507749414 -2.102466388306101
Ni 3.3765097414044027 4.9596444595139655 1.0205673715829555 -0.5950219199759624 0.06936810618117731 -0.7908296805403283
Ni 0.6051015334431765 1.2539946019424173 7.7678867543233245 -2.43542193369978 0.21594309786166035 0.6781384860914836
Ni 8.186496876582291 5.011281627655568 1.685813276059229 -0.6461804451276484 -1.07047031656095 0.37358874553400817
Ni 5.211251152980438 8.704001633356585 4.3933041547984235 1.6978770806255212 -0.5343515986790992 -1.3466710736620873
Ni 0.9014208425795294 -0.492706854296383 0.374111328874436 0.4600050654467239 0.024768465193931537 1.07430100316095
Ni 6.298181103510197 1.840635230979917 4.042972788120362 -1.9752397192452433 0.37595981686934604 0.6136796442864656
Ni 4.924482572589724 0.6910178862541141 6.524617076155071 1.033818469665871 1.5172946216513417 -0.03362694402582596
Ni 3.271380451107262 0.7390484024287218 4.019902825563804 1.5112152482264813 1.2886037372057095 1.5374340727136941
Ni 6.762275977469474 6.1119181349385405 12.845816971076614 0.3800794954646745 1.2702121220723994 1.4178672341909389
Ni 5.717982556146708 4.420739198795655 0.9940031508247792 0.47955419122324505 -0.38363327425420385 0.18986542693800204
Ni 0.4907422478284225 5.577051739610177 13.072853290907277 0.30691772656901983 0.3365897997121558 -0.3977134064963538
Ni 5.1425813036468435 0.9458986192437042 10.543116350307347 0.5065574592849663 -0.9678799579915331 1.4182035344844348
Ni 4.236148430147889 3.399865714111877 11.680570496570347 0.4501567118977344 0.6087402980033193 0.2856181937602952
P 5.008101706488823 6.388863682989453 9.448846081751016 -0.2454462495270999 0.0802076199988425 0.5924736996328118
P 2.4317350598144616 5.029785479272405 12.212961487749082 0.8729705130061417 1.3953713670812677 -1.7341689730780199
P 9.349973377726492 2.142755154934229 0.8643784160687472 -0.84129580761068 -1.3401867514893242 0.3952520894400548
P 6.417574350535182 4.09890010852572 7.440372235787111 1.0732134265237256 -0.3477309039306398 -0.296588833839186
P 4.079729204480226 2.896387333748369 0.4404419258554829 0.5468276196589228 -1.1844416632737989 0.9013079264982542
P 1.894017700681429 8.763049479849427 11.69081569085815 -0.6455122154160302 -0.18173559874201603 0.6160250045901907
P 2.438707128349596 4.948377669862825 3.390136800128446 -0.8388648295716844 0.9953568232555632 -1.9210048691610788
P 6.9226883800045735 0.307592495180645 11.808345759935147 -0.1416839821367689 -0.05053760373823555 -0.5374410362377001
Ni 8.499088609896058 3.529136819703676 12.78397572831747 -0.8738377461024434 0.09709771088596181 0.47889161793858176
Ni 1.715110584233996 6.414650285094496 1.983758182826513 -1.0022864604958608 0.5394395547249677 -0.16487404709998701
Ni 4.219261952227931 3.682659393044159 3.0564570723646374 0.981952119813883 -1.5648132360575955 -0.16747600349920835
Ni 0.6879732031140005 3.4545640132616975 6.497387630509139 0.3247069322316408 2.033128106921595 0.7726851484208176
Ni 1.1435014791025193 3.772154070938136 2.1063706431476015 -0.716182842458715 0.1956951462459017 0.06471518079019822
Ni 7.147814005823839 2.354576282998377 1.8994354456807487 1.0776313530857635 -1.2973886824871914 -1.9311375867197065
Ni 1.0125216227688196 8.921542964439075 5.498473877284908 1.0324097622438024 -0.537942401354151 -0.9931364185654766
Ni 2.773284178695516 1.8880416419370283 1.852773757640562 -0.516986110817458 -0.375077928485025 0.2346332180719959
Ni 1.5062774855420484 8.571952665596136 9.486426719056974 -2.519799625915912 0.8886694117986373 -0.7041585643043292
Ni 3.5194143021133977 8.330452273309032 10.313685951897122 2.0648403504232116 -0.8390052118042904 1.487629490486741
Ni 6.7247839758971875 7.4047205679015535 6.253192529164353 -0.04983235014109482 0.47684244871903686 0.002438691348479671
Ni 6.270859367048795 1.973186772487985 8.69463457247144 -0.7067301816862473 0.055701150217046004 -0.3340814314680053
Ni 0.7006581645038736 4.105625459039296 10.601386578147055 1.0298144907128006 -0.4972359247737243 0.8338282955890415
Ni 3.540339645423302 4.822359587073787 5.067832139507973 0.936576005671929 0.17930847735776217 2.989875445335077
Ni 5.721180752722457 4.205464018429697 9.533743580509965 -0.6536528422452936 0.5895930356509071 0.8575058417116392
Ni 7.803718434987573 0.20644358896463724 4.738886656446723 0.6523999436747989 -0.8696406773019605 0.6228625963373143
Ni 0.42864423557276765 1.4026285033742547 12.072334043002023 -0.22468767682350985 -0.819737107603298 -0.6113054876273343
Ni 6.590423168897695 7.335484180888826 1.7653222704732647 0.9284837155820977 0.43481082556928347 0.8863644178145444
Ni 7.150208084403401 5.920757356753735 3.8969559252579375 -0.8486774447867319 0.4674862043151174 0.3163395341035519
Ni 7.664085172490346 9.3504302629516 0.4889412062710504 -0.003079924476904373 0.08684775102317946 0.7314353977424114
Ni 3.6778986489985437 8.087142615530503 6.033231533929698 -1.2482024505705278 -0.21752921140185763 2.1377388383551508
Ni 2.8522430832985224 7.182564696045484 4.1460598014612735 -1.0924439926185638 -0.4676888072442268 -0.9977361221210171
Ni 2.0068409381693733 2.9324173026003137 4.241241786637382 0.38428530601590594 0.07430745246432365 0.004552138147056676
Ni 1.690100687011634 3.30127902023827 13.130133905349405 1.9386855742702933 -0.8194028641923308 -0.16056102154692992
P 6.67248889303143 3.925740608210134 3.101526972280551 -1.9354349285434798 2.038172868434354 -0.685507010641413
P 4.193740343553449 2.578221600688296 9.618346845183943 0.11621746243454822 2.1625402136695464 0.33502811165199076
P 8.910285312492435 7.150664969628508 5.237400521954218 -1.2059831368900005 0.5423220184790853 0.1986334029386192
P 4.938755667022069 6.767584983785219 0.6596600257141143 -1.9037088010847925 -0.8670698312509907 -0.9121196724017776
P 8.619907338823376 6.91397100990953 1.006545564024419 0.3581461857266929 1.8860157546804035 -1.087919879495965
P 2.082720436355158 8.923662911883572 7.434715082929834 0.45325951919277424 -2.9144881295430127 -0.5522881285528617
P 1.8929120384366698 8.92297758404591 3.005795811063863 -3.81814424455847 -1.2482263618299276 -1.3722064989290303
P 4.937978962139387 6.6507228809073275 5.015567211067073 1.1466233068744447 -0.8872889865113429 0.29381589907973915
Ni 7.136081193243089 5.999825913810768 8.583283419178791 -0.06520574727337157 0.19823925282399407 -0.7451236938627813
Ni 6.607419299271679 7.304872870806651 10.753796179079178 -1.2402968225702058 1.2994622771867685 -1.3886317343645889
Ni 8.943482592948715 7.714625816091691 3.0178064098614783 0.27131848930817143 1.0651674162907978 0.3142332863938265
Ni 0.3490255887047063 5.356851336517565 4.2310779179196505 2.1205538419354317 -0.07985820707922375 -1.2562142651314108
Ni 3.4101090808587777 8.274675725027958 1.7768229853596602 0.6865791606596693 -0.5497501926223564 -0.6378845236674434
Ni 1.784301282724213 6.581038746373996 6.490379924926446 -0.8069463835965328 -0.19922887043077303 -1.4097536039448688
Ni 4.659818099389691 6.0576858587183295 2.891381699222096 0.3359909897858923 0.45566272931762813 -0.2215992677061732
Ni 8.14562392434421 0.28974473074706175 9.828558823485265 -0.18915708801706776 -0.18369735045407717 -0.40932425126240474
Ni 6.034878148280984 4.007906847093392 5.258237229530451 -1.0826804854738965 0.4897545287950146 0.5593949148009721
Ni 2.6250797493752787 1.6099904316413571 10.76835985251469 -1.2200658402353117 0.24019142888606376 0.12948281208488668
Ni 5.36928775234498 8.372960874652994 8.580729430770443 -0.6180327790488388 -0.4623712516860553 0.0926263053781695
Ni 3.4872130314478498 0.9871919058888828 8.499682560688697 0.8826291191418284 -1.7445606007249888 0.3793457026224435
Ni 8.227287589479852 3.365946554999927 4.315828299636115 1.676590917553235 -0.6410125277734637 1.1252127024091525
Ni 8.988823882688344 7.972491837142131 7.420029878024442 -0.7784775867328786 0.32763927538708737 -0.0701137260979502
Ni 7.0671280750699275 1.9675579465146655 6.422025326398175 1.2042676968607904 1.8564213288527383 -1.1674829239322733
Ni 7.2399129295009255 2.5307877766176783 10.831525148656194 1.03180889543501 -0.3575057239292166 -0.8064912983369853
Ni 0.10603392304285274 1.3756448619794304 2.9936929214507764 0.7040822025404391 -0.4017510669008371 -0.3111124813766577
Ni 3.0784926467715517 6.923264055388207 8.454439044387243 -0.325099282574053 0.2231496429124286 -0.0999323521212795
Ni 6.2827657960150844 2.177112923862282 12.95715533158296 -1.2141376476763346 -0.014487137872581502 0.6294201949501741
Ni 8.298790127209111 3.285808886516144 8.5308439605819 -0.27466683695511407 1.5830624120757704 -0.8144046396467911
Ni 8.481562492660949 7.780490390143129 11.95798663640312 1.056670177453064 0.5362267042146248 0.7627696890793185
Ni 2.9469279773497155 4.980533252005862 9.94348099169735 1.1766069977207285 -0.5479712463450627 0.3369862638196261
Ni 0.929898498660454 5.3932742266631015 8.495349461213781 -0.9583398797115819 -0.5002317741772547 0.12598714022680235
Ni 7.983338292386173 5.353735379282335 10.891814809190876 0.0415935071710703 0.3203692240882353 -0.47163030839047804
P 6.861776441793296 0.28209738584921934 7.54737749681854 1.7734657137951135 -2.029595925398621 -0.23862639839178904
P 2.6292374049237535 4.700892081126818 7.323590544708838 0.2226397931555456 0.7103618649015637 -0.41503569982488525
P 6.763089233170165 0.15369618972602406 2.7466358910559197 0.29248535319377367 0.4512887686196486 -0.2900032102018683
P 0.48248815935163786 1.8360937918423526 5.314983288259201 -1.73055811579831 -0.986862412631307 -0.9908311674710679
P 8.91840873179484 7.069787147080051 9.308512871088922 -0.9367510977972124 -0.13789726140082703 1.9018460368444408
P 0.3508878528822428 2.19165101172519 9.845169342729259 0.29498420835622746 -1.8921442361756442 0.8954769216387739
P 4.271822028524251 2.384218996403325 5.147194016879524 0.07470083124800038 0.6263654672842502 -0.20152075178874326
P 6.584639001947839 4.210243037884317 12.083059880546635 -1.5411320903905716 -0.9891149561109095 -0.5593044119696948
