# total energy = -340857.81005332875 ev
CRYSTAL
PRIMVEC
9.37347182923066 0.00000000000000 0.00000000000000
0.00000000000000 9.37347182923066 0.00000000000000
0.00000000000000 0.00000000000000 13.71902350712760
PRIMCOORD
 96 1
Ni 4.954217396380347 3.499360807439965 5.350885859121774 -0.7528897109614453 -0.6049641187903387 4.02567880664146
Ni 3.9498686186483445 6.46543667244977 11.256829361432619 0.31510540458613473 0.9341949070342622 0.4656828325577915
Ni 0.49542830106843383 1.8164382712957405 7.683984282910527 0.8821082136413517 -1.0791953551387736 -0.5757800410272148
Ni 9.261355900264583 8.526231985283342 12.146137517322824 -0.8835675717956977 -0.2696624417619872 0.739112968892327
Ni 5.591219806477701 5.7397424702993645 9.693711045600004 1.7116527942533746 -1.1356835200334894 1.3092029015133002
Ni 3.227764456273497 4.188826540314842 1.0321448715973702 -0.8644784163747304 0.36561318352769934 -0.4787733471931625
Ni 1.431610378383252 1.7974663639700825 5.394883061989941 0.4323916746048295 0.037185607911361766 -0.38204973181716784
Ni 3.588230695460993 8.935637121776796 9.247006051981554 -0.7729540858114882 0.13993100400140418 0.6634263766922897
Ni 3.586665325637186 7.417631451980211 3.963686991069039 -0.6944588205180621 0.008017213877521676 -0.04697791141143522
Ni 8.45262210967643 2.8051427242616738 4.975807314435281 -0.5910259114426919 -1.316385021084036 -0.14543625009034952
Ni 6.593993840913899 5.5944911482052975 6.075428061563521 0.04280861052509402 -1.6242841377297188 0.5521690864764941
Ni 2.009091241287955 0.14819178026010407 12.092098513902295 0.6186655275368312 1.1653823326495025 0.7130075300545269
Ni 7.9124757857431165 1.6968702624785024 1.519148296033244 -0.4195582702855871 1.4468425383773662 0.030143870573231958
Ni 0.4748113494069792 3.063981780037717 0.8416918554832837 -1.6916079597873577 1.9683111104462103 0.15073606503670814
Ni 3.1034909645128397 4.022166208175419 3.5511276812479737 0.195537794732431 0.10840542258929718 0.3988508625349066
Ni 7.8176162491148276 7.302656444442406 7.220720113658921 -3.034708799599683 0.14976341671079368 1.5259006181527979
Ni 1.5811360037087911 0.45357199920480146 1.4142807033517912 -0.5064759553147535 -0.03292554708342717 0.35779163060075153
Ni 5.063868271822809 0.8265715078019505 11.548304034667034 0.011175042780213014 -1.279194785186984 -3.0470662927237715
Ni 4.304738895052532 0.9525884653543922 -0.28641768509103854 -1.165986799002721 0.22278300360162923 3.5544300499601174
Ni 3.15670416505027 6.882340586542298 0.3767282757582887 0.4342847778624844 0.25107953655347726 -2.138737197712678
Ni 6.3165015758601575 8.810426282816255 3.9404735876639045 0.3911288113003006 -1.3068128040145686 -0.002224518455144556
Ni 1.4453331413895576 5.6928563633611535 4.55706151309498 1.8016799714458005 -1.1933142831730805 -1.1301209383440471
Ni 5.730640828988489 1.3652555701034441 9.32649403187894 -0.8584643489701668 -0.8860553712145578 -1.8395186395601288
Ni 8.254663754532869 2.8550283422395153 8.847453371906083 0.6602675193483338 0.7032347669384792 2.085993073241427
P 4.94146947446192 2.9526905469954574 0.7146897460237636 1.2448489607172626 -0.5860315435518939 -0.8459932130863494
P 2.9633200642421453 6.1382931262181595 9.211748674405106 -0.4695518285948945 -0.0036077719559163674 0.38129794125280786
P 8.074655598267094 7.548963168155996 3.5069805028278243 0.5948185457159046 0.11734797649456565 -0.7395372009139393
P 1.0191963573781688 7.770448938016652 0.4374074467427972 0.7079321724141485 -0.26569317270159404 0.3774780532860854
P 6.9314482063442355 2.692857903187537 3.2419558928797443 0.02065212903271282 -0.5333982336268942 0.37536923447319864
P 1.1834289602698926 3.131273935517409 9.437810573295597 0.013304173308073862 0.23113343244885357 0.8048406501074398
P 5.982140456189438 7.560239454970604 5.724852710029203 -0.9179823018301415 0.8231484472776921 0.45408098665280505
P 5.9942603554839415 5.895014033960195 12.549737662607393 -2.3084927412746823 -0.007069505252271695 -0.21428036544725676
Ni 7.087038468053026 5.754721278553515 2.6064635491214028 1.7452686825356072 2.095978209478597 -1.3411401165415289
Ni 1.7223379858993582 7.971256828647859 10.47786290587119 -0.18873825531209432 0.040254219534356483 -1.6547023450102598
Ni -0.03987381253587713 4.948462084573057 10.775895260115997 0.6932699424162835 -0.6041699050238176 -2.1572298572002264
Ni 4.170304559645129 5.732824847964219 5.832477978172716 0.14320376121540498 0.38538008174198146 -1.782412638575756
Ni 7.203766314854614 7.141404605646314 11.162991533252205 -0.7163296524492243 0.3367903457587361 -0.007494508604832253
Ni 3.1884239942943537 7.642688514672425 6.68599353123534 1.3124185802371202 -2.4948738092085097 0.10821361829346525
Ni 3.515501926221972 2.024829300774012 2.010468204324585 -0.24540562609715152 -0.630921719196365 0.4739952090782289
Ni 0.6036544087670721 3.95193078248809 6.414151595102502 0.014661201556600558 -0.06945115281328683 0.2790382265499324
Ni 6.876810238062982 9.028575096645321 13.608832203548639 -0.5683747497020792 0.09882369243813303 -0.3194816792769595
Ni 3.0435101171922447 2.1494027436386323 8.305414543976203 0.07446043310242015 -0.8650178338179684 -0.20084892253269926
Ni 2.893309601882789 2.1561985108377932 10.689424043579471 -0.9477024546023937 -1.721288774681242 0.714491570799221
Ni -0.17798817305002537 6.099149507150992 1.4266415008766653 0.9055139941598018 0.0721163583502758 0.38819569681390564
Ni 8.711845477804426 9.025603706021688 1.5873459289080245 -0.7978757887538324 -2.645607560252373 -0.790167364365981
Ni 4.710582112186426 3.151567502394904 12.083428052303365 -1.745336302548749 1.1878221497102577 0.9704821715010705
Ni 3.9025794524141832 4.151604483007438 7.48567535991421 0.36574533823018945 0.6224329649990635 0.5515540786003146
Ni 4.894377151139734 1.8820338283436417 3.9699287860730683 -0.20850772462953768 -1.0034951360919815 -0.24570413117417686
Ni 2.1986790859365484 0.027679862812582612 7.087631808830553 0.956952769556068 4.258942398059439 -0.5376027586265452
Ni 3.5033820269274685 8.804942801696932 1.7416435888281745 1.4028918438280291 -0.43133803652933456 0.6906638722520041
Ni 4.290219386926324 9.162896950388738 5.289561793263744 -0.4436597913194811 1.7124122981272183 -0.7112802629507751
Ni 1.03004146448083 5.769081437655743 8.125818820478377 -0.046015547498165915 -0.059025072383956406 1.087780011483991
Ni 7.331957917910788 0.6423659107750928 11.217442032093482 -0.24445560347905645 -0.3925447178112207 0.10914770007196042
Ni 1.2087935754987609 2.3458519697903784 2.9744623104071692 -0.39032174201797293 0.13138439998297372 0.5647623497604726
Ni 5.678852396194882 0.7224753518660023 2.234197983381763 0.6882022980853889 0.06243409806550537 -2.6585654059646218
Ni 7.513803274688337 6.657124174826103 0.005665326476100551 -0.47789788656674465 1.0885264027317125 0.1534174685236132
P 8.368195247382854 0.6154837304296117 6.147412577125833 4.113860445984715 -0.1741644712629775 -0.6085335813091519
P 4.384910201058634 5.999818824379256 2.6117183175239544 -0.4926040824286677 -0.4356166093000304 0.09080802122250813
P 2.6197823154845588 0.6330214965394465 3.514841096446054 0.1188808681993243 -0.37255927582822934 1.0466210207471782
P 2.712214122865147 3.8742528200336803 5.767450453527944 -0.6905026640837915 0.007906142220954124 -1.3023149161442151
P 3.2605716082694465 5.121318281703717 12.766182379227072 0.062361335846040984 -0.028431772978131677 0.0012490419157526877
P 4.620296829893573 1.6000141763144602 6.81282598085168 -0.6681672338113849 0.5253992745818177 0.2574795265425501
P 1.260703863428352 0.11089098578790928 8.966603323872173 0.4423138188145479 -0.58548389857854 0.45349657490424483
P 4.732928469431668 8.180988264621966 13.247062114406104 0.23847727440843444 1.09158884370712 0.0018028575366936693
Ni 5.515707116055025 5.094547645675021 0.9902670107481405 -0.7603037440373293 -0.21956629643654443 -0.8245705244361993
Ni 6.179452041765077 3.520357384717373 8.382158908619529 -2.559680778381566 1.5137426426340252 -0.10712604165624132
Ni 4.640037361923135 6.680379758855233 8.040281201752938 0.6166646950567186 -0.4757456161104322 -0.5492238878052412
Ni 0.4487755935829937 8.109824865206752 7.45384773574214 -0.25147882887442496 0.03795642463911528 0.031830000026403245
Ni 7.660582472718216 0.3997448362514471 8.103333735847553 -0.5090691699632265 0.15301123422413004 0.4900975139567302
Ni 5.564805362384963 7.4702728707257116 1.4531187472317963 0.46383112406103344 0.7599551024486588 0.6214649446588394
Ni 7.54108007820497 4.124196450882822 0.6239901562685615 1.2879948999771174 -0.08714471343830797 -0.45919311106838984
Ni 3.687420776152747 4.032148955854186 9.745857545023965 0.5206003105312776 1.3339024611425092 0.7003307059178069
Ni 8.515977406916607 0.6850714492018203 3.726168834701563 -0.2951395029871691 -0.08304431811668925 1.0506918483824421
Ni 5.713843567166562 4.581471908874366 3.709898362005972 -0.3199498771626296 -0.28594138142766884 -0.822858426841099
Ni 1.4968497434951973 6.277029885273031 11.839010083197541 0.5936846892217774 -0.16109195434973547 1.9873701839601903
Ni -0.03679462698425729 1.0505787416302943 10.35725912839808 1.7053551341701212 0.650334319395022 -0.31335833998804097
Ni 7.175008502762165 4.66357415011223 11.396804356138537 -0.15731860335023232 -1.3395383192720478 -0.34439644024076815
Ni 2.2134516778067246 2.1566109436057426 13.720258414587681 1.8560423482467647 -0.7704200065357248 -1.9366628874133098
Ni 9.342736384158535 6.231727895102624 6.035917939741198 -0.5941767983668477 1.0714578772852 1.4446717559782927
Ni 0.9981154188527714 8.148040510546034 2.9992120258729136 0.2910190530608924 -0.5664762471277857 1.8221415817342619
Ni 8.344958410297721 5.069239271278146 4.531393197373349 -0.38986408565526404 -0.596367121149947 -1.7894258366687956
Ni 6.599580430225208 2.051862394018675 13.284047960219135 -0.24777129811585072 0.2993476275312458 -0.3136475890936856
Ni 8.494127843687306 8.247596156645741 9.643746690457371 0.8259378370973711 -0.487828001196263 -0.2626417874697799
Ni 6.446549126372102 0.9129461775768867 5.8330403864926454 -1.7884246490977909 1.0981868086396118 -0.5717259255624992
Ni 5.066605325646471 8.872572402168583 7.464259788438454 2.333001525049324 0.7283040512022811 0.4381797420415163
Ni 8.752573213639398 2.7571786680435957 12.080107968521377 0.017014018059493277 -0.22216876705639801 0.6918316673078602
Ni 1.8495078805076575 3.809791453097639 12.069324726333909 -1.133735909388815 -0.466505585569403 -0.5561949198064357
Ni 2.1808694891387472 6.070391695058543 2.149537721635416 -0.2201062281004145 0.3155628038385275 1.8778982677795915
P 9.115870241370544 5.501590667224767 12.904840401117154 0.14433478949605466 -1.4716547123250396 -0.0738593091833115
P 0.7855456955574156 4.534332718192186 2.688709204480849 -0.15946033228358342 -0.9021862153381495 0.3862987369015089
P 5.670069452931967 8.526025768899368 9.724427913340211 1.119614896606401 -0.12636972037720173 0.3817489127472974
P 8.040536160191307 5.686069969633991 9.00494738577784 -0.28450156365734874 0.7196808283096444 0.4481499658803508
P 1.5895440080917531 7.64799389982377 5.509230984251023 -1.8039618255014416 0.450579915478082 -1.5067284160997212
P 9.584468853536691 0.9906635086136916 13.61359298997685 -1.1077613397019246 0.9056456346416596 -1.7163283453521732
P 6.201086015138406 2.830882278370496 10.684815107397641 1.5212407507832832 -0.05119297793404732 0.17966251826307122
P 7.667293878669387 3.5513742035615437 6.898404842853915 0.7336231494223495 0.5232755433705956 -1.4088452331979866
