# total energy = -340866.1372713592 ev
CRYSTAL
PRIMVEC
9.35842365368104 0.00000000000000 0.00000000000000
0.00000000000000 9.35842365368104 0.00000000000000
0.00000000000000 0.00000000000000 13.69699898112184
PRIMCOORD
 96 1
Ni 1.589097792654527 9.156178890117252 2.30439674882999 -0.525361736475663 -0.17977127592679362 -0.03850535516404981
Ni 3.304047668390831 2.6689663133867 10.087059432482492 1.14264349629109 -0.05620457221602578 -2.3475627106929506
Ni 3.0088829821624516 6.812539462823044 2.764863017770049 2.061374246251482 -0.11452464811315759 -0.03694880931020733
Ni 6.434431066574305 9.514335126853025 5.987574753347054 0.1605941887777105 -0.035597694598951596 -0.0034247094108328115
Ni 2.1152751700543573 4.883852546225294 12.683037527072985 -0.9125734721097445 3.1427848638740197 0.8569401990161564
Ni 1.8747917540108991 8.700872856053108 10.118261353229292 0.8018756539418448 0.5096350697690255 0.810461852948959
Ni 8.713562878707695 8.494304367812175 11.462361226205719 0.2703982914867472 0.6207005556889891 -0.45572237891096995
Ni 6.805118232760294 0.7968417101549728 10.273776832187357 0.3967109333737684 0.11608247951858072 0.414785274376976
Ni 6.755031948654579 8.135137421307451 1.059564484484833 1.60666745308922 -0.24921317276869984 -0.1711467674825762
Ni 4.903486519329516 8.90564452692702 1.786334996537872 -0.47037509582713827 1.8182237347370946 1.35453016469519
Ni 1.3780653362674007 1.2057673959328827 8.5969896728103 -2.6522299506648968 1.0362265648867315 0.19054779771700733
Ni 2.043533493306521 4.212058094706454 2.572364919692222 0.752783267290568 0.4965633241867319 0.03698300498225244
Ni 5.647303400309791 0.35517277123261604 8.24256651132299 0.5583986123259739 -1.0412155334608908 0.2154057373009516
Ni 6.852219179678095 4.919854402532225 3.8399812025881594 0.48783057229942434 -0.803785469370048 0.47240549599360576
Ni 4.336328604168302 8.178682167186356 6.711844694564321 0.9964487707681614 0.796331584195164 -0.14430907846444177
Ni 8.715818258840258 5.537763049888002 10.177939085873863 1.3100333678343954 -1.3661070708995118 -0.8873915735274782
Ni 9.059478297130637 4.569409506996584 7.811563367990185 -0.25874116686379306 0.008799343459184846 0.6762914055804159
Ni 2.202907450391787 2.8896566631215648 11.869312284564664 -1.561281568755253 -2.075830273775812 0.8881932434931671
Ni 5.253538361066123 2.6313828834598394 11.848890332177614 -0.8052476557378712 -1.4578643434091667 -0.423468918193903
Ni 6.871731493273091 3.3367740763724623 0.03671122482995205 0.3685239294165911 -1.3189041879614642 -0.23251874283215437
Ni 3.538251582073501 0.6378907538248593 11.896843831502371 0.32273181078314095 0.3156970154235466 -2.70766961969044
Ni 7.1698721582655995 5.6323860727940005 0.05220877462050997 -1.3004817195902183 -0.45368529387628315 2.0461006079218635
Ni 3.3826490697742226 1.4442668261335883 2.23633667599979 -0.02924141336362061 1.514483377454792 -0.24813896586791456
Ni 1.1264921880368586 4.140035665245021 5.7564104557102596 -2.2461522313642477 -1.7786680839316593 -2.220119554745912
P 4.047284327096338 9.142871211492752 9.773726302314868 0.8088286882209104 -0.5252925738006244 0.9515182288040581
P 0.6591287607660984 6.21646401816133 6.52796196142441 -1.4171586381596883 0.6410078997877735 -0.5109273062178878
P 3.384342944479591 4.976089171065716 4.348523566204579 -1.0752062885840388 0.4149395405666531 0.1729570812184376
P 0.09588547427480518 4.86463970219147 0.09806411533231839 0.412313930018348 -0.8784073677509968 0.3044024163463338
P 5.97787100372276 2.3592960702891386 6.6423462319981255 -0.44270385516411503 -0.7264050344073555 0.4945861458557031
P 1.014060084665021 0.43413260024703293 12.94911529633033 -1.683898506958242 3.763694450250021 0.4713703698608721
P 0.6121185905590275 3.5210882328489346 10.009301225082272 1.0155227566804768 -0.5353358169692394 -1.0490795095899996
P 7.109538400113591 7.538809299203501 12.75242649608088 -0.9715826036541009 1.031954934094571 -0.5048759578174853
Ni 6.08757044734892 0.6790144754701785 13.415717883747243 0.39658366376728477 0.39347005783896755 -0.40753527768278197
Ni 0.07524079140163444 1.3754636944547345 10.751664742848492 0.2954817168179363 0.33210888112266673 0.4912180007144185
Ni 5.605677131307133 8.459528465021284 11.441528439014439 -0.8652939702974904 0.46032105402524587 -0.6528766262009015
Ni 7.734428431614148 3.0038762254366373 9.820830992602184 0.9605767394619006 0.7584646339460616 0.39585732712422145
Ni 6.08435114956634 4.6351056419782966 6.8050939008584495 0.5549682464881862 0.3271170843350302 0.31707024162198943
Ni 5.852907970900707 8.005598119253765 3.8873451212143624 -0.853102570437621 0.4347216082895868 0.8803896882883484
Ni 3.1249461539634775 7.05286378566213 8.381837638272327 -0.7918082424035138 1.3709754547354067 0.02450569845084812
Ni 9.060853985427263 8.11640185688674 0.6295879602414154 0.5360264152783607 -0.11434235689902243 -0.18034360349049586
Ni 3.132882097334488 7.190769518581008 5.085586472738086 -0.2585994990796063 -0.04473976610953585 -0.4468862686765788
Ni 4.210120900982635 4.951869570306077 8.476798500277019 0.926890660063365 -1.5474102100897995 -0.040630629037168735
Ni 6.618660997236698 2.3264947949172146 4.545390176505976 0.7455391841336451 1.0245866666549581 0.375389803298489
Ni 2.2838952498407536 3.2660524678173615 7.669894612866728 -0.9390278096465312 -0.611352795925502 1.40130187363309
Ni 7.69986777257035 7.19883647988503 7.539663723295215 0.7441872980914409 -0.2424928233257308 0.06323114004550401
Ni 9.078326162636786 3.7289949756913465 11.908992937262093 -0.8992538721827029 -0.2454616761460676 1.6247672480137243
Ni 9.207088715516186 9.149590559771509 6.871989785769601 -1.1272605860771168 0.6542999889109893 1.101987670442941
Ni 2.280778894719826 0.6273147991036578 6.113012258255084 1.4753367891623173 1.01170981069229 -0.3619398484411702
Ni 2.082314801478062 5.2160578738009145 9.327012237129173 -1.3713732043944575 -0.6542118000725571 1.2805530989870915
Ni 4.62205999921982 1.0406099329475167 4.395202448209606 -0.2867906168018416 -0.5703573273497468 0.30263992512927235
Ni 1.3506638714203274 6.538028817891622 1.2798065657203217 -0.09692107609878146 -0.5677774824377125 -1.3681482696992566
Ni 4.743831809530653 3.4579282307133816 3.5259499340060567 -0.1555867082607901 0.3815285692063752 -0.13270800389040371
Ni 8.034805759891647 0.3653959133770638 4.177022963576677 0.27769585358942495 -0.7243499516505396 0.15460223286033373
Ni 8.776133300144695 6.337150251312922 12.428068206850298 2.9689068135032093 -0.055205955748182337 -1.462579232386333
Ni 1.4417494101350012 2.8246156178049118 0.45291589262905513 -0.7293067814351827 0.00516406069944272 0.10446957787000073
Ni 9.129067536407563 4.983791153842063 2.195437556525348 -1.0264373467104515 0.7574467342045084 -1.2482772696725213
P 7.496621524773649 1.9287430671404682 12.044894095805889 0.2206189060707749 0.4139532653939838 0.1278632742035927
P 3.812415965324821 4.507232139358621 11.298051636415417 0.0652078041559006 -1.4939016966486982 -1.925184711570381
P 0.10512223855214857 2.4952739679079827 6.916738024947458 1.2964875108291607 -0.6412598678975795 -0.11237212054652904
P 6.768807548468407 4.8192513468266105 8.969274321936657 -0.36742812524925106 0.6866542368719788 0.06288506955999493
P 5.9506099152324845 4.021707754887645 1.8785164066779534 0.6541097272770541 -0.09488527661567529 -0.49641445731369344
P 6.150225094599998 6.824761564288303 6.0698119023715265 -1.3541671249288163 0.5523971433269003 -0.2684799914181118
P 1.8300304130397405 8.666284121737949 7.650403823646441 0.7042724641743743 -0.5583088808256449 0.40246891890346814
P 1.2472907222738885 2.163049923484791 2.525616785351175 0.06958767839115111 -0.8236426133052913 0.8246738827832829
Ni 1.678554965630338 8.002556631523131 12.666669643870275 1.3524881945644964 -3.5758789638625124 -0.4335191033410534
Ni 3.7175964155193055 4.1293015531618265 0.5822090681371536 1.11107163502208 -0.929373831496535 0.8649101045955104
Ni 8.467773236377253 1.0427249367232814 0.6597613902140704 0.22350239826615703 0.3511394153915566 -0.7614854230502563
Ni 4.260665747853893 6.550166693542802 10.431607585190218 -0.6285313645873175 0.36426412569897265 -0.34343381921718275
Ni 5.591134140742804 6.053711670089114 2.15022326784292 -1.7524086360144981 0.8925072974874888 -0.9573916568656995
Ni 7.034624217702108 7.019763040729036 10.29282964717443 -0.09208225994924141 0.10249677041434606 -0.1215931249241648
Ni 0.8887769937494673 8.58926429397449 4.995363780696534 0.28346258086987314 -1.8361993453789083 -1.867661677653248
Ni 2.702301018914458 2.6478069172052674 4.404872507508267 -0.5772404276228253 -0.32489770808620816 -0.4760682895571736
Ni 7.79134636508406 1.5835201720777319 7.953765553269476 -0.174865353984744 -0.46032645334188466 -0.43530987669288895
Ni 0.32924806565906317 7.461087589656048 8.881449258069225 1.02400276912703 -1.6590837619074073 -0.36880443677148744
Ni 1.111874330082238 6.14926117694998 3.9678425392569125 -1.1558013738292867 -0.13003842747804056 0.9606919248835261
Ni 3.490954108256183 1.0821239008647359 8.128757783812146 1.55195412070674 0.5332953895004428 -0.10779812802260144
Ni 7.619787740228681 6.93173770659257 2.7592882047203897 0.7211874947621578 -1.3132323343876675 -0.8277494363848131
Ni 4.814880962918283 5.794006051588043 12.521385729638068 1.0012834731526434 -0.7119798601209609 1.4975477780417177
Ni 3.9264202838928015 3.6105266889771723 6.139337504366703 2.000250125246652 -1.0526898526490773 -0.39380841501499275
Ni 2.6077060712798206 5.380747415596952 6.697311998266159 1.4813505994565648 2.5052070728137177 0.6967926108575613
Ni 8.326030549705882 2.4333679945598305 2.6026899561302197 0.4581225037120304 0.7839815472702434 0.2576805868097627
Ni 5.479085732746216 2.676125507583425 8.920472013574459 0.22433852101420718 0.5639691644352157 -0.8936763780949255
Ni 0.6297049405387475 1.5945163200269503 4.800990254491879 -1.1509473881710952 1.4016122057846572 -0.23436222379879637
Ni 7.9364393674710225 7.32189975267841 5.00482889051427 1.0811648201603186 0.03478419755872074 1.024816523277577
Ni 3.15466850790962 9.426646695972877 0.2521627289290961 -1.19527680621609 0.048465037479922986 1.8731460978065868
Ni 6.329504419079296 4.415135890874997 11.163040463973726 0.7310556458054894 2.086175878676194 -0.3740068069080333
Ni 4.8072632059560165 7.803156695902709 13.494845228547439 -0.30603249575058905 0.7968244646711826 -0.030745508712972856
Ni 5.553634936630023 6.922987580352128 8.482975995818533 -0.022169337008187625 0.056051077357297016 -1.0327784584371311
P 4.35329542649335 1.9009672653419318 -0.043620549111575785 -1.4477804768106033 0.31873914468398007 0.7873098403125279
P 8.957770947418208 4.068256554802038 3.979430139589442 -0.3008442666814303 -0.40992717495372627 2.6336514163317606
P 3.5706785204939626 6.34214764961495 0.66693836541599 -1.1645644647338975 -0.6701904348890007 0.19846113902681303
P 3.495165398960139 8.844206474768196 3.3580382869003036 -0.2062045304176578 -0.16311001322102878 1.613367747927531
P -0.142784279238816 8.138880790822078 3.1440916173460396 0.8940319616621312 -0.13251028605730084 -0.6482962059190706
P 6.611211691902589 1.0885999301250413 2.7289491306467126 -0.9914441184647182 -1.472445583657451 -0.5449160044585066
P 1.2595034653153607 6.6743810524619285 10.964844957494634 -0.5319884977635613 -0.28556085815979854 -0.8300891402615834
P 8.226906124958544 8.897259379214253 9.140102989736684 -1.3326480199101176 1.0824007494499488 0.06795039989804426
