# total energy = -340866.688491818 ev
CRYSTAL
PRIMVEC
9.23589418154995 0.00000000000000 0.00000000000000
0.00000000000000 9.23589418154995 0.00000000000000
0.00000000000000 0.00000000000000 13.51766471318481
PRIMCOORD
 96 1
Ni 2.51447224808755 8.015805034705016 2.976468310160593 -1.35845315389868 -0.23211636518741316 1.262440962767413
Ni 7.965968148568448 7.343413451214586 10.41208923662222 -0.5887234885617603 -0.11617838166649669 -3.041360757698562
Ni 6.566037456175903 8.458740057932868 0.1443551821603629 0.4955140569866111 -0.10411219453058199 1.5739311391984636
Ni 5.187377028566997 1.8003713655250775 6.775580504540956 0.6114486980734178 -2.4747430998969056 -1.9760827839718291
Ni 6.492251895882162 7.993915964997147 7.607241392455155 -0.13756301798985987 1.533819101668926 -1.2459609628345187
Ni 2.394433328681145 6.383065152385776 12.406526138691063 0.6186333887473153 2.0453058799347095 -0.8772544850934763
Ni 9.19092482171391 2.72001707777052 9.26777854612451 -0.8821382955483389 0.9843977531408982 -0.5458398018243567
Ni 0.5483775351379213 9.019358847497292 12.74048037886746 2.0987130919112564 -0.6812353798492525 0.46731291196204683
Ni 0.14153546360263605 5.630108862118236 8.507477872636846 0.7867429120654644 0.38547109879389096 -0.050482839240900156
Ni 1.8055157587011466 5.063837705186211 0.5370026076053424 1.6576776255885 -1.7566537844440973 1.2617107694696077
Ni 5.251954402152408 9.044360413615099 11.823914837401585 0.6642555574618043 0.6702164030309297 -0.050080461596158914
Ni 7.318042449321118 1.6347348355078062 13.633917393598125 -0.35485903033498883 1.0015863491050427 -0.5771108440234964
Ni 4.376955003395507 5.353770901924372 10.782459684794885 -0.12897656187242948 5.0572779000585095 -0.09749828875849016
Ni 5.921981596678614 1.7557527597197113 2.2040686150200552 1.310700569104749 0.5363642582337538 -0.22121385934229643
Ni 3.3650611779677013 8.874733977220696 5.852608023135693 0.8230926543390922 -1.0398803595892347 -0.530372559426693
Ni 4.387742528044786 5.128119530151094 1.3899670095229884 0.6218526670155614 -0.08495079111078273 0.09724452087647123
Ni 5.342290685195731 3.144138584122874 8.537513924787463 0.024004590444713494 1.0330954754569175 1.7808910597249072
Ni 8.891589484485197 9.322619439842397 8.801500723411566 -0.6891911443612195 -0.9302130395683786 -2.970670590271851
Ni 3.4644671093034822 8.978942573640062 13.314819089550465 -1.92902542547271 2.605880673976396 -1.2481924232681987
Ni 0.9425414944419861 6.921499323621801 10.495723031105625 0.5305543364201959 -0.016251171751539756 0.2726048122197628
Ni 2.5117476592420562 4.12629282961003 7.2867780232164305 -0.9384971339540418 -0.5033510365325267 -1.182916227768208
Ni 7.466250846621617 5.896130328276788 6.386339276947564 0.6439893510136006 0.6071297589830899 0.4015410077725601
Ni 4.479297949147786 7.070169515641876 13.351748813274902 2.764118446706788 -2.7276023540586247 -0.4744713773836991
Ni 3.2108863928902887 1.1726722749951448 7.517551622019238 -0.8132982939564896 0.051170095115911876 3.199386157307832
P 6.897199685477748 6.255425091895161 8.64933197459599 0.36222189845796327 -1.5797839984348148 0.6257941681618127
P 2.7319867969019116 0.8394098033086717 11.372911336833313 -0.25932737838456627 0.032318252516731434 -0.5661412323858701
P 7.724264792342733 8.146095796885994 5.867734570970103 0.47388696563513866 -0.5646067980192148 -0.7141285310328475
P 7.20504128144104 1.7998818631223277 7.9376943050677315 -0.5156671348957184 1.8226591448006286 3.8515256482323927
P 1.247963286074703 2.0663835957892376 7.74195891881798 0.28796458250528467 -0.41468165891957615 -0.9975931687852496
P 0.9723919051153339 7.571706288783835 8.095513574072031 1.0805408134230745 1.274624135097166 2.4881061514673735
P 6.112712051757607 1.7015103519583956 11.412775304205931 -0.8384480537492398 1.6078668727139598 0.31006192862495635
P 3.937104768894418 4.234472860617742 13.034976107435025 -0.98245374204065 0.7868010189969095 -0.7922119055998356
Ni 4.219187455399799 3.332273752877854 10.913919711205828 0.7163934158076243 -4.484576240846302 -0.4312418772711024
Ni 5.481106177900068 7.7595459089182865 9.631660778487143 -1.5051124777628528 -0.33567885786211216 -0.3038007782065929
Ni 7.72492054084453 4.201611548372762 8.061354618665046 -1.707962232775665 -1.832924531282379 -0.2289014577945413
Ni 9.035281529428248 4.141772188610194 12.873210340757232 -0.15904124246829382 0.3980641049675532 -0.18757585957287695
Ni 4.032354547754021 2.0786211558579835 12.808514747723613 1.5828364121078933 -1.0357485968090485 -0.26834732249498944
Ni 4.672300434247091 1.0584796767385627 9.626091534169067 -1.394933765323217 -0.057745948561216676 0.3717552918696952
Ni 1.8681813021475158 2.7422571114652663 12.243476582692853 0.7180391789411633 0.6115777674521145 -0.48273233184091063
Ni 6.980775293826488 5.999082843058908 0.2587426577886057 0.16960436269612078 -0.592471899860599 0.39716961817774177
Ni 0.4459874863242449 0.4141836839870935 6.502172170048078 1.2308133085598028 0.43939973049154646 0.16593488426433356
Ni 8.740508724028938 2.8508435218262043 2.8732876687870035 -1.4212261233608425 -0.1759040796619035 -0.08293658889423135
Ni 6.028323684702416 6.695847951848522 11.511589214711218 0.8948886532354716 0.4815285413407965 2.8728403720952396
Ni 6.261326828411333 6.434813868661384 2.67451090251413 -1.0746681566923815 -1.8534316500967951 0.27175274863211263
Ni 5.526823855138023 5.904128612819832 5.110934301456818 -1.6923011291996404 0.9238539301195701 -0.6293106659555033
Ni 8.33568100106044 6.960474797953957 4.1975320538200345 -1.6079974847545533 0.49030551620247814 -0.9811129117420393
Ni 8.505713816808068 2.8588787499468147 5.38815521315451 1.545505793978235 0.15803208447748912 0.7155035570035033
Ni 1.506891585340578 1.4300212363200724 3.2969039717161426 -0.25186012347324366 2.1036817487704416 -0.08576608792322649
Ni 5.705178211732398 8.72383793465227 5.305224270234299 -0.6951273073399964 -0.36310275840101985 -0.3559952008219611
Ni 1.2498566444249617 2.7313772278720725 1.1645807079187465 -0.03779084559552846 0.11967919573090358 -0.10614593713115912
Ni 6.583705722146855 8.643042330515375 3.0718889530664386 0.3310295320155589 1.786357482156117 0.2643896233988221
Ni 4.816038658662101 5.717969925464634 7.843125211624782 0.7154811884060001 -0.48961671766556975 0.027003010951405105
Ni 5.903565223261951 3.8382991706940848 6.3857177012550155 0.28933446626961784 1.2966376632537797 -1.4722303823228517
Ni 2.1851202540864407 9.016625022757406 9.348466090297025 0.8948616566522782 -0.34645897919675167 0.011048287394361617
Ni 8.017208890652524 2.6606118050443524 11.234788536208338 0.05472593078797027 0.11842346894693154 0.41545941762586514
Ni 8.874272182501121 0.4520314556140465 1.6175505304029698 -2.3914635258409587 -0.2709449080188366 0.18450930483241126
P 6.769772050558138 3.661930531393883 1.2811884925587071 0.5296811897866233 0.756510081322852 0.38023016210992583
P 8.132648334651961 7.340384077854171 12.427492542549222 0.5184310707941007 -0.6430354717407635 2.013034935716146
P 3.8696919757308144 1.3627654533611244 1.2355012937722436 0.28652193652148716 -1.1467207516842575 1.6943351289105337
P 6.6896968461837805 2.272399456086174 4.478361429456488 -1.2076062743157203 -0.20247026018620612 -1.1235435422368456
P 4.2146526312535695 7.498862789718026 3.996024233575592 2.213695139276807 -0.2718802753489124 1.1854323093218422
P 9.450074782445181 1.885397009293283 13.031313151719354 -2.5921625530593553 -0.8821439519752936 0.3277156371509775
P 3.423034887063185 4.337942585485785 9.107526542537489 0.7625840554310737 0.32714176692537855 1.0228894814581933
P 3.8593293022235446 7.65348089772623 11.128336541041278 -1.6208460585824471 -2.056141022877001 -0.18678781645394285
Ni 8.937602710343679 5.120065830241701 1.7245834633272565 -1.5957873158416067 -0.1943751418828975 0.852014479579765
Ni 0.4784488843420716 0.8066399264181687 10.54890146383304 1.4338741511421564 1.2733570954592845 3.2676060088171788
Ni 8.406474131571334 0.6532058600709553 4.008609063273458 0.532941862815766 -0.02973532228090363 0.20892347201071762
Ni 6.879245106780661 0.39009554782460626 9.836075134696594 -0.039071769190481095 1.1286821490149916 -2.477322687698624
Ni 0.46574398801711575 7.281902394567155 6.177532329365515 0.23571051029657467 -1.242834501390395 -1.554272998647904
Ni 3.252724994483812 5.238128268248324 3.578315208699261 0.25668865521013856 0.6507346401572341 0.04032338220939507
Ni 4.255299802470588 1.142203059397566 3.5773823833657183 -0.6093781886976344 -1.4759754511875807 1.551700352824721
Ni 7.496147436766923 0.9833364399692687 6.187778630603452 -1.6084769954941331 -0.7926808748164542 -1.462571519076849
Ni 3.063657000395289 6.491374485914968 6.279969481240587 -0.09647550392093063 -0.6730376745298086 -0.5826114621267514
Ni 4.728999589916548 8.489643360566848 1.8078662938237846 -0.9647807502409191 0.14264917426351562 0.22911357380534736
Ni 2.2283442398386897 2.3483092720899634 9.683149966130353 1.4428979519073215 0.2982518233639057 0.007231998972064965
Ni 6.1709813094736194 3.909535624135772 12.591272657793802 -0.47923331754871656 -0.5142401726412047 0.5908708739220663
Ni 5.416602691469789 4.046005199664667 3.462211703893076 -0.5706907994297655 -1.2999340746168644 -0.6337746152641278
Ni 0.5346936340074657 6.978087648558559 0.5447616824836465 -1.1095186887126633 1.260345770801281 -0.03490555362793343
Ni 3.3071982996049147 2.9433040605795724 2.478206585169862 -0.3911758624881521 2.0397286429572485 0.10319353937105454
Ni 1.112075571892473 6.060566192023164 4.197937509583821 0.5902558660458868 -0.020558026657009756 -0.5726440665013944
Ni 7.848201259182354 0.07003024563415626 11.713029612926602 -0.9825632710353206 0.7958497594627391 1.7152903910059618
Ni 6.639037965446368 4.851255123976913 10.407426033543947 1.5585597989487157 -1.1122898236998973 -1.2556470797740311
Ni 7.400260381194306 4.592603901542784 4.270176057566987 1.2766928447007366 0.7222537312431433 -0.06702300298776845
Ni 2.130120502985022 4.653773230097729 11.037781367300877 -1.0371261938828653 -0.24788931175095374 -1.3033171321564845
Ni 2.8233667360114736 2.0287473261438502 5.564546942190691 0.1986236327466063 0.6771720084131564 -1.6709051800223675
Ni 1.7422868256968953 0.29941938386767714 1.3825736760625875 2.1641219563343697 -0.5987384495956011 -1.5657838275009808
Ni 2.782368600807578 6.617804644240296 8.995844260376517 0.8141930378566171 -0.09473898084579813 -0.4241926837338049
Ni 1.4524182802194747 3.8599665789365583 4.980542868026974 0.6310507885750615 -0.15568363884997058 0.45712825811956115
P 1.2292328922487283 4.169858543454764 2.9011338903773947 0.9886246467380523 0.2988040963229499 -0.9584987738869494
P 2.748583699123448 7.359197594729669 0.971614242807569 -1.615192974061728 -1.2247388202309488 0.4510365433995265
P 4.2409010431142296 8.547256869781064 7.996225862184462 -0.6234030422218167 -0.4498823751904252 -0.3616017483754611
P 3.819033094993403 4.242194068329041 5.402213168007822 0.4781048603712282 -0.06833349426907587 0.483798825432212
P 1.6260900383573564 9.310150982413864 4.734494947079494 -0.41205759103316775 -1.1187818591821441 0.5131582524309356
P 8.02577056475345 7.480594190611626 2.032583916674082 1.2189834058044102 -0.1852783217879519 -1.0213329356043506
P 9.24383726068285 4.789642472491177 10.57407204681821 -0.8364567343508239 -0.4922708674589651 0.5275826553863817
P 9.332317128953479 4.5907382508757 6.490574657460664 -0.3835530558355717 0.9243475819265372 0.11988822641791612
