# total energy = -340866.75732709514 ev
CRYSTAL
PRIMVEC
9.29957337167855 0.00000000000000 0.00000000000000
0.00000000000000 9.29957337167855 0.00000000000000
0.00000000000000 0.00000000000000 13.61086564473619
PRIMCOORD
 96 1
Ni 5.306578405214826 9.016987321320029 12.641118514692266 0.358580445050634 -0.49219784812918455 -1.8611981814160914
Ni 0.706655988082324 9.075500237530669 4.002016571049356 -0.25667502836338374 0.0943250332368311 0.49508699675152157
Ni 6.77800341593133 1.0285979216958152 2.817340188144127 -0.2477612708135217 1.6150423074164766 0.6210545965942981
Ni 8.021300590099333 6.8264541936581935 11.159685303018057 1.4040475546990272 -0.9133617723389947 -1.0834096503304373
Ni 9.143591714405158 3.511425942780501 10.04270888494465 -2.3201256975279203 0.37528078852445046 1.1831154882632076
Ni 2.720971498249661 2.4692878421268523 1.4734988155980955 -0.8891836324308945 -0.7290203605430154 -1.938528736977455
Ni 4.346685732241864 0.7583346477571711 9.678931890163776 0.4991264569282178 0.26529079505685277 -1.1368173765276164
Ni 4.940602991267995 5.690297405323434 7.558563114300676 -0.981513746724884 0.13519631752989617 -0.5900427215938161
Ni 0.5001608193165927 4.266225822665507 3.1655059889576154 -1.1782285924845515 -0.8049710050377169 -0.5550487220171344
Ni 3.633873426528987 2.9525587761253007 7.69656320470375 2.0000917452919165 0.8009456859284076 1.5665474451398826
Ni 5.929082553057152 2.5867693536476715 4.776719398053562 2.2251105802026006 -0.020054604658029978 -0.15699001636621995
Ni 5.087526952363334 0.865868405547774 0.9232839720901265 2.793273985224822 2.1381427586617887 2.043557786895352
Ni 1.8257294599709712 2.63073773696679 11.849701564308313 -1.0199404261321983 0.6183695935629673 0.6853715135048133
Ni 7.308107001874594 5.732694160727804 7.023396840565761 -0.3995576587939441 -2.0573260443240375 -1.1168843850491152
Ni 3.7940585793783583 2.996303969681379 5.309353397935305 0.1897348148974087 -0.9631115900686122 0.719713995540425
Ni 8.243681290249523 6.54267770952475 2.986237181410874 1.4036279506631053 -0.8217963041251718 -1.0596925092191556
Ni 5.740133819495845 4.132442158869219 12.19785341576161 -0.770514366021744 0.4486513309968016 -0.8296721073288227
Ni 1.8121799814396777 2.714331602799185 9.439434395103019 1.9970017935126831 -1.0001388180252386 -0.9846646336490397
Ni 3.3177158276076475 0.35490334178529453 2.5583256782627606 -0.7041192264259616 -2.4022583024636175 0.7963637229846801
Ni 1.0659357091379185 9.390430292755282 1.5581853813120459 -0.72783791019914 0.5609895129816017 -0.4149487965380338
Ni 2.7124902872540955 0.7650824182597838 5.746725357164329 0.02072129170775141 -0.78635004750242 -1.256380615505946
Ni 5.887373966088825 6.758576606973285 12.058491867803983 -0.7442664880688085 -0.7590102220368864 0.1695398280067725
Ni 1.3473872999063492 7.460889694249764 6.4940437302007235 -1.674169709706252 -0.6083533469775458 -0.6333979486509994
Ni 4.590576345805151 6.1134000990353545 0.5418312780337333 -0.7637513362662977 0.23983507398790954 -0.4637455063257626
P 4.720965665288521 8.115282079486605 1.4591393442184313 0.18267276584430475 -0.18335873616773582 -0.10570576426994699
P 4.281970000533373 3.1614736939053376 9.784469959489853 -0.5457428712351763 0.6119603476025138 0.7327561734363638
P 5.915161091587456 8.372415285657004 6.430752693146311 0.02464196691839627 -0.0849962996367375 -1.294010510043578
P 2.3958863088066726 8.11835093872842 12.48590026402791 -0.3127307337063711 -0.38962805838505804 0.4636496041778467
P 2.881640228918955 6.475841675067366 8.485871011826966 1.245975618122538 1.5214204708942571 0.5972230413923393
P 8.306090727739923 8.828856950223205 2.600329061709771 0.827787231601284 -0.16822445162945865 -0.7262890776547813
P 6.113855778134897 1.8930211735278972 12.691982531732014 1.3722018709433401 -0.30824390157961107 1.222859600930365
P 3.240464270875007 3.941242928530579 13.423920340222832 0.9940473604155203 0.4329233787385834 -0.28402950911693664
Ni 2.901094936597381 4.466064356748534 2.3234974990362933 0.11422280060202264 1.8723968783453884 0.8183505116684164
Ni 5.163253379048526 3.7817552436907116 1.0434800291039341 -0.23913341993519463 -1.006703358616634 0.40105146973065126
Ni 6.4647658830764465 0.2620182721089633 8.182961585256814 0.5342143017702864 -0.8128516933373744 1.0401914630717504
Ni 8.246378166552937 7.6038334379042025 4.997624255895642 0.03929185562108716 -0.9159968959689967 0.9544192045009369
Ni 7.064021097268646 7.385693343251796 1.0216725293401154 -0.08672305251985711 0.6821216391089479 -1.9528726644039527
Ni 7.027743461200989 9.073593824971358 10.469355646102198 0.6346999552918746 -0.06529445033243593 0.6648430545341583
Ni 5.555918568825702 6.5559110025584015 5.024641376711781 0.5058318939728514 0.6664404809282651 0.7247808685403712
Ni 8.497289958078563 4.388487314944792 1.2336832751250029 -2.3914612118481138 2.0495785391681345 -0.3731179765451768
Ni 5.864683006846302 3.9161247806149824 6.986661665483869 0.8517108322964171 -3.250055915748557 -1.1202561297348255
Ni 7.9722360405241055 7.688608349566024 7.421542268982945 1.256140988691314 3.10355959982481 -0.9678164517434493
Ni 6.285879287998913 2.2537330288963395 10.516435666701051 0.4350607367965604 0.18232001049057633 -0.8587217163966114
Ni 8.31464633532317 1.8928444816321564 12.155102346608412 -1.321515657442382 1.3710227630335743 -0.08843617855622189
Ni 8.455320983053355 2.752980630099155 6.513834152481057 1.1137355550074883 -0.8168916677347028 -4.674996254736193
Ni 2.061557343344394 2.2234443181369548 3.6514552001125584 -0.9467619450659952 -0.31378360045091763 0.6530015818145399
Ni 0.831491602295351 6.226761899513372 8.46953817095908 -1.5482555888092304 -0.18516519324885528 -0.48255543994341416
Ni 2.4114351956318774 7.2069276426292435 0.962741132323775 -0.2288394942083543 0.2841089562046204 -0.34639290184550664
Ni 4.7247691908336815 5.394942952232227 9.847270909022921 0.8666527983182299 -0.34183613571275967 0.8334269463855646
Ni 8.71717837254146 1.1825616599004127 8.539348209008987 0.5963905181887148 -0.44350038292348143 0.10658173911699709
Ni 3.153224972246272 0.6559017060094059 0.1737104524896689 -3.23819181732112 -1.678874057160457 -2.775291175494156
Ni 0.5057954308760374 0.19551516238144953 6.607544094323295 -0.6917838447890602 1.574059951466844 -0.30395401595500554
Ni 6.4489008107536 7.992769498723899 3.2206301405994116 -1.9984125578172807 0.42945058969863464 0.717022564751191
Ni 2.0103445922998957 4.276994728732245 4.751417118583456 0.5932681705096493 0.6714006531470179 1.430534288135646
Ni 3.3543747461871667 6.729431743749486 6.109713748115791 2.125666223461333 1.974308979900858 -2.7069905913455448
Ni 6.056644802208666 5.697337182432691 2.42551103002101 -0.25032877443038176 -0.8448850676238353 -0.05545638119609159
P 7.058831935277937 2.239913862734704 7.7560153778338545 -3.3335686888612335 0.01320981382205467 1.5195911309950023
P 6.880577711195688 3.576699648896596 2.7227449269084927 -0.24704264747994223 -1.5474014683390513 -0.07502633290821917
P 4.216696294417278 4.934167686433641 4.6118788787300895 -0.6012501602738612 0.5053289861945038 -0.468534957294606
P 2.615393440757707 8.16033851290055 4.15978011496973 0.9776570919829549 -0.3284460875590989 1.108448595576936
P 2.3783752119813975 1.0893799338307057 7.902319057379407 0.8777512222242366 -0.8028058790655981 -0.1780895173489965
P 9.016540941793947 5.383904358535147 5.793478962734733 0.7918437236271394 0.13352381492347973 -0.6498607221927131
P 6.613419564835355 5.31836096478871 0.18000626372212317 0.9619890464283948 -0.2747002612962108 0.08848117286154439
P 0.4872920695625747 5.248037590283808 11.13739050560493 0.9634142089106956 0.49963630668510084 1.0622656692629706
Ni 8.10743323948632 4.318182539586809 12.23333686825578 0.5418512494902539 1.1415088684660148 0.2888690965974251
Ni 4.48923889381098 2.1671075021159685 2.9886606502545634 0.9310003113563644 1.8911548756791818 0.12228063790949263
Ni 7.561427382926372 0.5191217196442899 5.297376477276106 -0.46537327173717274 0.9524512821412888 0.06212145192109302
Ni 3.900092315969855 6.738164043228473 2.9457180098880875 -0.38398191584287417 0.37925982777685646 1.0465225474961009
Ni 6.490228115210065 6.82581252308945 9.038336352112267 0.8722889135580848 0.03548636583206792 1.6727512320921707
Ni 0.4316304025747879 6.973071268829352 12.875158090089322 0.02360118435870774 -0.3303584740904633 1.2099493206266
Ni 2.4564358316050625 5.050551848286173 7.037076513125495 -1.322930792622354 -2.957540223537481 0.49903929653105017
Ni 1.0698136312707593 4.179944380103158 0.03741962368855155 0.8562868817028737 0.3686010625114297 -0.31489997344354803
Ni 4.533728053243862 7.790578172555478 8.168819723896116 -0.5514149819192891 2.8280653818723938 0.5669418739102945
Ni 3.091141019826975 5.775397802056356 12.050203157979041 0.32385718263683577 0.5613772353383235 1.875539794849744
Ni 1.6285413043240586 2.7761830658819817 6.899184297774558 -2.766910664739944 0.11220371328946481 -1.87799931213383
Ni 9.122779269001565 4.201696082426216 7.894519505118463 1.0281622998213582 1.6687811917008295 0.06327613435082652
Ni 1.1140982000875204 6.326099943213632 4.177501382155202 0.28846671895268383 1.5233120314900153 0.391865432356009
Ni 1.653380465035854 8.635156134623813 8.834064711360835 -0.05189308932486547 0.11550320997634302 -0.6423744411179969
Ni 0.4849076589274178 0.24431467411306498 12.301731511225068 0.8433151520335541 -2.0797213813001023 0.883142311332821
Ni 1.4347195942696844 7.218198725662825 10.677247610801627 -0.02235805598022601 0.21879470837784254 0.4226675053385301
Ni 2.431419978997526 5.106804968146019 10.01746147295796 -0.8878160626594065 -2.35880640192757 -0.36809969739497894
Ni 7.12904371490132 4.906027177143526 4.378928283385206 1.1312403966604712 -0.5873001258516723 1.6981532171050433
Ni 4.188685979155605 2.2955904090400274 11.965910894179796 -1.1012099117366518 -0.11137376118900173 -0.34390844486075606
Ni 8.847735084347109 2.2586711024036266 1.936513418685862 0.5145181088929396 -0.40502382411483795 1.218857164639191
Ni 5.047204001840555 0.3261853289833123 4.411744618211032 -0.42086901867721066 -0.6348889313742292 1.1850913810426558
Ni 2.6285337380567584 0.5331994139481144 11.105092157020831 -0.7889332348485638 -0.9643187230028362 0.23144093638694335
Ni 7.644853856436486 0.730952983661398 0.6285470106766672 0.32915699758319444 -1.300143105303877 -0.9920514130314141
Ni 4.804708324296276 1.1001581394709046 6.9059488075093975 -0.24258821125301447 -0.01363250318177007 -1.0810820306385251
P 0.842340484693846 1.9133872394054081 0.21878362513584212 -0.17869526925379547 -0.24795667465377938 -0.14059100618290626
P 0.759769571942057 6.04070533329814 1.8746517260722595 0.6299071618889216 -0.5328251347322437 -0.5339389366217128
P 5.063134171177622 8.095641380338977 10.420315275417966 -0.12643579772844676 0.0056548842929321965 -0.28373563202560165
P 0.28837884303882266 1.389458570239618 10.429992411560496 0.9412996363998434 -0.38936580586260683 0.8994688164069863
P 7.18053545314962 4.956356468709322 10.142164103270508 -0.9742231266007416 -0.6041310813660822 0.3466304717776095
P 0.13788198582013203 1.7572195022907788 4.656141128570546 -0.0827229302215285 0.5255599685293981 0.9410399549805536
P 8.815149378943092 7.649773330796853 9.30500069112187 -0.19116074871065786 1.6318910035426994 0.9349605815556932
P 7.61076162013194 8.344070185750768 12.589955981344454 0.18576734560922845 0.8085335255779947 1.168068621232414
