# total energy = -340892.6591153562 ev
CRYSTAL
PRIMVEC
9.04784241584665 0.00000000000000 0.00000000000000
0.00000000000000 9.04784241584665 0.00000000000000
0.00000000000000 0.00000000000000 13.24243194552190
PRIMCOORD
 96 1
Ni 6.342030755260759 1.9648203804892703 11.47191846186915 0.15267827636474351 -0.30736792673256097 0.10255847689021692
Ni 4.4636986990734835 0.2931048504825953 6.122241475512706 0.19258179742790058 -0.5535785652295111 -0.7590865838007765
Ni 2.713547424389123 1.6130674163833325 4.638545536675614 -0.15139169634283603 -0.48465757388808145 1.6320933493614924
Ni 3.5067898522795415 4.2788422335630685 4.89911706069177 -0.22818489134349088 0.8237919943989619 -0.5837903129262011
Ni 4.688591866648585 4.700480731397285 2.4963702567057204 0.604680783221965 0.037321105047961524 0.31084842908199367
Ni 7.285005924951964 6.169823173250102 2.522855100611652 -0.4715683448042911 1.1915211958283995 0.8061490845062181
Ni 5.2924177165222375 4.302972828909174 11.43672054585287 -0.8560716803682741 1.3072046401363486 1.2354981156299818
Ni 5.736422480459029 7.739533329454006 12.35938692877472 -0.3985050491597137 1.6981958974175204 -0.724406773030404
Ni 1.8845479238298606 6.2542847808826085 0.46900033300434074 -0.33496049163884895 0.40877223541367663 -3.043692748265849
Ni 2.6707782739575374 1.5274567327819646 0.4480446255123593 -0.2157050137089253 0.8134574452421732 -0.4924675568508035
Ni 0.6599885212241883 -0.16376775473699867 4.588555303324746 -0.025291941797569342 0.3992031036680028 -0.2090864799511431
Ni 8.501750706185145 2.3697475136424755 1.5105372677286397 0.5921296860298318 0.9412883235459336 0.15469299280192714
Ni 6.79046896191206 0.7182819594303702 4.975023028669505 -0.016486170580481286 -0.22151133597805722 -1.81619513434284
Ni 0.5283053199768124 7.327566975011235 1.9665277083264696 0.35925381696857484 0.07343687693391224 1.6081221832578756
Ni 7.794969459069899 3.9330789410428526 3.7912422511950274 -0.22207029380532076 -0.24991122727698895 0.6726126711772481
Ni 7.573062079445386 4.075102921225761 12.784084502081946 -0.770986420562156 -0.6796960603865907 -0.09354958852338727
Ni 8.273057444854752 9.008827978617514 6.662650998884352 -1.5533880249397891 -1.4425256561695674 0.5571912222814339
Ni 6.784976921651435 0.7101063291511274 0.49503097522809214 0.060646410037463294 0.6781703677706837 -1.6371242269171804
Ni 1.9697966937402485 6.51298068719526 9.186049874816703 -0.5934154947207909 0.2437315808288383 0.7939682261693101
Ni -0.05922265160777366 4.923618617571131 1.4270835897255139 0.6773275601544141 -0.7552633533999444 0.24087945609202385
Ni 6.40061553398818 1.835553857913415 6.97376919855126 -0.5869512271526859 0.4086927883259929 1.2220574167440437
Ni 3.480171100307947 4.413655083453196 0.36329529649552417 0.00979770281671216 -0.7047815426003089 -0.4957945643415074
Ni 5.9811937575112175 5.759213995148508 4.745412316132477 -0.05192754210722669 -1.4252997792095838 -0.42725641026079325
Ni 5.464525772267875 2.930469442920385 9.090995958233433 -1.5237429483798468 -1.2010137086998671 -0.15239314102415688
P 0.08569301896606601 5.621342974569599 12.515197106231291 0.9266014109577202 0.3379676538962889 0.02982402533996799
P 4.06122353117667 6.143023464433018 12.423824756669518 0.35692311195286913 -0.28647771354711304 -0.030911087756559666
P 2.3303713040638288 8.512128581274004 1.516285361925633 -0.06111666480566248 0.3350908465691261 -1.2516796104858507
P 6.361619333785063 7.783994426390925 5.91377828472388 -0.05096363553206062 0.1366785585023775 0.8710812664032288
P 4.660199737591188 1.1796938671190835 12.607523098368798 -0.4633277020620537 -0.2772595373829548 0.6538328194665837
P 3.9083330924220814 6.274669569527068 8.294145250843941 0.803999385153067 -1.0429885662009133 -0.14894014947854994
P 4.670279033884986 0.9372840769005407 3.9337566244292135 1.2324775836361033 0.5894673087063202 -1.2375840516247332
P 0.26847300467448243 5.862802741349318 3.6338161291082294 0.516462119993188 -1.359825094545542 -0.7621037733605456
Ni 1.451364379253376 1.2425039881886986 2.7260741620181754 0.09262836226069854 -0.2471475484889227 -1.5323278618353804
Ni 2.0801260824355645 6.574243627235934 4.874115158134631 -0.5038688567092097 -0.8054044930307096 -0.544700546013591
Ni 6.0755084653806595 5.424280969830876 9.321798271598013 0.4970230374319698 0.32403793118907415 -0.3763938190829711
Ni 8.571120512903777 2.346132645306017 10.246582754396323 1.0923372918373704 -0.29942373218481977 0.24013640727841226
Ni 2.3882232075670147 5.202093107095851 6.969067939705427 0.6283364749676921 -0.23977362462235477 0.7374736335166913
Ni 0.4519958182336357 -0.28832758976165657 9.284030768375773 0.018006463879749635 0.8983359883541238 0.06858443393761736
Ni 1.412838666848533 1.1638601431386995 11.530066229814713 0.06653320783554348 -0.1845725539701789 -0.3222373876452257
Ni 3.9846878333766305 6.850447108349755 1.4495168098609221 1.1395077788755859 0.9737711266649874 0.520469184270052
Ni 5.579822426371893 7.956690591884405 8.18863021902289 -0.025843957646297423 -0.3564492576402442 -0.6612959606128482
Ni 5.120544904675737 2.689471116096665 5.1797639371466 -0.21378542808870923 -0.22669416573057732 -0.7014733041626822
Ni 0.9645090343045267 7.383319779106737 6.937789548962463 -1.477915862743403 -0.8879641582014965 0.21746853336725128
Ni 5.039349568104327 4.579646797821268 7.32019117398906 -0.11925547792992365 -0.32643419933539264 -0.9680954164364489
Ni 8.105536645142289 6.962803213714559 8.797225186559434 0.25920756497725034 0.1725269356595545 0.7255113189484924
Ni 4.531059884807175 0.5038245731346837 10.52578650000837 -0.1620841430596757 -0.8571281466572465 -0.9873948880960093
Ni 8.096063554280882 7.140991419468664 4.771049377217287 -0.09700360851025874 0.598772131047014 0.49647307846577077
Ni 7.160941911683948 5.984297167411374 6.982986235476298 -0.04737540396017002 -0.7590950684412089 -0.6950751139458222
Ni 2.2972200099700415 5.366854314914591 2.471951939975286 -0.4829938130324133 -0.3926629885566399 1.8605983430485633
Ni 2.501022657203271 5.133628084604671 11.13076685455625 -0.3250967114708917 0.44049733443109945 1.7826682062299877
Ni 1.1744280229153214 3.492412830905353 3.724711657382136 0.03870204455588818 -0.025993852960600392 0.1541864854791538
Ni 3.7536149895280424 2.486573253090886 2.633667644084427 -0.2024743739512642 0.7452833593690972 -0.256637490257229
Ni 1.1416748338816125 3.1464957250664707 8.112843682563181 -0.7380372193296451 1.2307112357643 -0.20445720870924788
Ni 3.474651916520499 2.5960521446123987 7.150595704043052 0.7689735038971853 -0.01615501249330766 0.09491870095677202
Ni 4.3558755626882055 6.749056987821649 6.213137003786613 -0.4095034571527464 0.6007487951574105 -0.42163083654389966
Ni 1.0627595535633785 7.439570214527335 11.542632777949771 -0.6686431450065388 -0.1856238780528287 0.1520000193507963
P 9.443685374014782 5.436405078478712 7.922403793585167 -0.5183709069801266 -0.05794160951179053 -0.8455453269156535
P 8.615138265569245 1.5554507567792837 8.078147921793134 -0.5312778448497817 0.048044919223368864 0.1856292773694674
P 1.6589761680841717 3.2212489979384324 10.394302351291033 0.7136145675109065 -0.8580645424285867 0.014186318802711052
P 3.946777374246454 6.260934944954369 3.8150389811612038 0.6694229605953568 -0.5264310582804418 -0.11935575095321381
P 6.960894118994639 3.714881176750886 10.35089351841064 0.9275902572335509 1.763297000792228 -0.16234973801623653
P 6.692209394810933 7.9361248463944545 10.083462825166182 -0.5043450250146797 -0.5107871810955977 1.8293095602376108
P 2.41912158893445 8.485066485030957 5.762576173337714 0.6387389012479386 0.6103127846967619 -0.37763000548291736
P 6.686789737288505 4.168901902085556 1.968606902481151 0.5454091420448413 -0.8398634460395277 -1.4394256770880047
Ni 5.419838479274093 3.025924178916415 0.5691490895723836 0.013410874089267225 -0.4372256056583631 -0.11497356272511812
Ni 1.3381849202415907 0.8815131771204907 7.035624772260914 0.9248998548855814 1.126767448490782 -0.9382112272825068
Ni 6.847560846664187 0.8595938744262746 9.136642322508312 0.06930639970530644 -0.5529373321010864 0.7948925377557923
Ni 2.3923761671710126 1.389323324777094 9.10197370526509 1.2534325886212154 0.07188804438955361 1.1445656530144674
Ni 6.446180467682588 1.6792071434099656 2.528152612263375 -1.00747468956502 1.641677907726134 2.157410348642149
Ni 4.519053398108906 6.900228336544083 10.270592108655952 -0.6680075683050689 0.6758085524067263 1.0786608227915424
Ni 7.977554916169414 7.535450199110267 0.26274933965163044 0.46647627499336436 -1.1647146171585168 -0.6063234610317105
Ni 7.617830803019636 3.66140842890856 8.195211619493366 0.770818270415408 0.4327513719370934 -0.7616677142643914
Ni 3.2720345366252297 8.163071874165867 12.701769947421178 -0.3912026019610295 1.33868676990503 -0.8224473074456095
Ni 9.294938847021916 4.850322047305364 9.94827087068475 -0.9218091317753996 -0.15438651730510186 1.2775233110218323
Ni 8.467649388652536 2.3197672329181085 5.892868721227499 0.8719225313576016 1.4237236929717156 -0.720675845233062
Ni 3.6108581341209 2.690330661112743 11.220113392232761 -0.32979128873308367 -0.32463648400502154 0.5019577557294259
Ni 0.8483238820891509 3.320549066901127 12.657460854234474 1.101618202918664 0.7503468899349336 -0.024654051103254315
Ni 2.9210144477435267 8.262154794913974 7.918497840075263 1.5620117620530583 0.741066235963956 0.4432108767075205
Ni 5.518342338116631 7.9434264551099805 3.854143755471615 0.7174136295420225 -0.007513277657909641 -0.9213715300173485
Ni 3.210029673518046 8.31399893114689 3.4489117100337596 -1.0716733357301154 0.750741811380507 0.7335647853805882
Ni 3.4715304109357947 4.215516385483807 9.19979535680013 -0.3517338544424458 0.1603116245402852 -0.4783118341757117
Ni 7.331421355820175 6.158965762520696 11.504269926705872 0.03715578311469085 0.017361116986266877 -1.5609527246609245
Ni 0.4617258678156386 0.26654490948578535 0.5339692692406526 0.33478000019692666 0.27435059126627587 -0.5998777054063669
Ni 4.555850972639319 0.47739673063508153 1.5023806379181734 -0.06447118310019219 -1.3873814068972559 0.24277513045283997
Ni 6.038611364585228 5.798192099667077 0.35747843869724477 -0.591816011444155 -0.8926944737976303 0.7455687518199998
Ni 8.110241523125032 9.090548090040846 11.549281132453078 -0.3580978489872607 -0.6749577743706568 -0.8141375020283333
Ni 0.3805612939079624 4.887771066479542 5.720359846069101 -1.059757558129136 -0.1723022212432581 -0.12438097208194708
Ni 7.941282116490923 8.87452180789476 2.634740718178183 0.14964103220031647 -0.15773332229014772 0.44004739137787446
P 8.610487674640149 1.710521725522028 3.707708952179886 -0.7934658326115948 -0.2626482152276831 0.3957082031408669
P 1.8535047769860333 3.3974828697612445 1.4948980723571577 -0.29310216084216617 -0.6349177277296355 0.4194968209200324
P 4.5968467459851015 0.934316384634503 8.15766940754376 0.35632404491628955 1.1342799548177431 1.443144777810805
P 8.238322778362928 1.9326914925725025 12.581541314493329 0.7661568603839967 -0.7775252501219383 0.07999704664993319
P 6.266046975839465 7.957930146276012 1.44521275129094 -1.2242845063023495 -1.5714459108827645 0.9563621871599207
P 1.849704683230741 3.1874914984122538 5.926796320188439 -0.7698384230006419 0.13728765284128613 -0.44106014891310497
P 6.662025792983185 3.985076890594434 5.938767520301836 1.46119803576809 -0.18078223368981122 0.17094545010504755
P 2.449965683248238 8.594083936596471 10.298056833880212 0.06229808670827336 -0.55781111525362 0.4142790241645188
