# total energy = -340888.39149660856 ev
CRYSTAL
PRIMVEC
9.14628462680413 0.00000000000000 0.00000000000000
0.00000000000000 9.14628462680413 0.00000000000000
0.00000000000000 0.00000000000000 13.38651207194620
PRIMCOORD
 96 1
Ni 6.781640750861674 2.1601511998654126 11.06261321226403 -0.381160387233679 -0.425388503814119 1.8704698365260044
Ni 4.620318826569842 0.45029445565367615 5.947359658884082 -0.002290595806389604 -1.0773127934040803 0.17337925635752077
Ni 3.0001551221055847 1.8496439846115325 4.815182248833442 -0.9799692850558994 -0.4565919260001169 -0.36330381866823236
Ni 3.9359846679050636 4.4729813282481015 4.871458423234326 -1.224225628039956 -0.09750703050923852 0.7383254399940252
Ni 3.8559180926795054 3.0457036193209466 2.6067825685442387 -0.6923888253629108 -0.9245995500363431 -0.1406617115198416
Ni 5.6361600698873895 4.317677416055964 3.30712455448338 0.12830910349175967 0.6440505432688391 -1.0885330875999317
Ni 4.932005912534723 4.823192564869831 11.33318134663632 0.5705673864780237 -0.7362425893230675 -0.8195015945537241
Ni 5.763924519204938 8.215650125240737 12.394691818125704 0.701648653398282 -0.8930744828448683 -0.27417189959656657
Ni 1.928439226280276 6.705415615160302 0.2683382701913447 0.07573235783630829 0.7415907410088582 -0.2950366588607177
Ni 2.8177965001216716 1.562569550455194 0.43053390781556583 1.06364840854311 1.4842867992667534 -0.7153881144715615
Ni 8.196424635050638 0.04540581517589214 6.886302599955069 -0.713535634643855 -0.6784043381583608 -0.9109804165910117
Ni 8.6220927194689 2.1995442475574936 1.023311928563634 0.9099195794266652 0.44447868767635057 1.2682287730937836
Ni 6.778448697542765 0.7295405848367961 4.634985808524572 1.1927288429832554 -0.8525269004398093 -0.2618876829125748
Ni 0.9458355811315281 7.843240855939955 2.5283239101480905 0.09133792558404914 -0.41532186360673634 -0.19559975831861798
Ni 7.867908385455986 3.7541016527193833 3.4510157327748496 1.4983738734874388 0.12611543827455055 1.0237842253583207
Ni 7.772933366362749 3.757257120899965 12.69019912666609 -0.6760543498689454 1.0700540549591377 -0.4820980406910213
Ni 8.334826213336353 7.676595550866884 9.233614221209628 1.0785469229214975 -0.9401526672795938 -0.6232863141382943
Ni 7.193150386747932 0.6082004858092216 0.08725098176424605 -0.6889864845495811 -0.382921850009476 0.3944324217522368
Ni 2.083176068828367 6.520285668948226 9.266745722477284 -1.5309006424705505 0.6113833920531212 -0.9125696154550026
Ni 0.13099949017398888 4.621516989850004 1.1432727678763337 -0.06237727668564097 0.17576601142214243 1.1425823040358516
Ni 6.443429439610738 1.923609988021298 6.95816129939728 0.6766084226002025 0.06028876958772842 0.49288896065893817
Ni 3.5272555025315504 4.9396613527293525 0.32838362846822244 -0.07122752798741926 -1.8341599463513767 0.38132648049789813
Ni 6.654736052294776 5.765872677820776 4.970827317440466 -0.025898722143632816 -0.4841284408574888 0.023256142314463175
Ni 5.418094352897699 2.849671301887844 9.29741412930717 -0.16646710261871978 1.0399996587759186 -0.8308982664264399
P 0.18052845043917523 5.66213551809856 12.678700417690358 0.6098870100132529 0.007050736199194308 -1.3261629264064063
P 4.1365078110676325 6.523861866219553 12.475573327307464 -0.9824313734431468 0.544784878197281 -0.7759357941476315
P 2.617447136366149 8.62032748654469 1.1833170310306103 -0.293241771743824 0.30214910153578284 1.271634456341223
P 6.569163413751217 7.901310616747252 5.642588993319654 0.12255060374142765 0.0806606483758611 0.04012000794933736
P 4.847750338970885 1.5558012998649595 12.50899933893864 0.17384616869161026 -1.6063200970521303 -1.1260174576986348
P 4.107916525466183 6.410347328279822 8.095265812951919 -0.1935127938826022 -0.6327821694438716 -1.2072154666352048
P 4.721870024277103 0.9727713892237451 3.445193208010331 0.3622710065283438 0.10836942714503917 0.12332579134455535
P 0.21679438343287635 5.715055920686529 3.3100696581185898 -0.9677714574381269 -0.07036646553870461 0.12192762544544809
Ni 0.6165107999798798 0.22072911505979378 4.4354733298082465 0.7555274056946084 -0.8752215138238475 1.6423703058074683
Ni 1.8158393167986855 6.207464443695253 4.628721518214772 1.0213601892978603 0.9222685879103213 -0.031955726970990125
Ni 6.099849259310523 5.8634909731580365 9.066109165385905 -0.47045248603229295 0.021427830856472777 0.9729416887851566
Ni 8.854243714713943 2.722547092490993 10.124794349568097 0.7450051660070459 -0.35107642336410505 -0.2994273317292456
Ni 2.4236648049400698 5.562587356714625 6.775369143524209 1.1220595014921515 0.7725303680105083 1.2393154324935431
Ni 0.8615306176309504 0.4398951300846266 9.293104400012414 -1.106924959843558 -1.0707112289271625 -0.04848612052584553
Ni 1.943283646155885 1.3735615795806049 11.362511652031946 -0.4355605592511143 -1.1536786710593292 -0.9291131216359806
Ni 4.353860117859974 6.993432116628525 1.3357718755756425 -0.18318698647656195 1.2594484557979924 0.5506097124091743
Ni 5.613276065864732 8.052745650561457 7.696240855519268 0.41749110334391326 0.20017297951159718 0.5814506090494309
Ni 5.361817263868358 2.5320848623679617 4.843682071589078 -0.04806985892403334 1.1989365144558641 0.1945065252544392
Ni 0.8123766550336012 7.669690106007929 6.919635319483516 0.9405488742767479 -0.12933754475627401 -0.049468281933456745
Ni 5.5079291600561895 4.450490614462444 7.099723833634325 -0.23045980342059663 1.5106583472817467 0.4057702153625592
Ni 0.7458557272730938 7.559934691031153 11.635155078375753 1.1405657878264552 -0.6194152612186622 -0.6498712637156743
Ni 4.978240381093689 0.7033758085347909 10.350825565799726 -0.5715963419631704 -1.3911853540243782 0.8768544214415802
Ni 8.663315024077262 7.201135093187491 4.820402948072504 -0.7822779343155754 0.6681353521321848 -0.35306491454904354
Ni 7.487569287423132 6.574367649678033 7.301806418318023 0.4768550471245272 -0.561454111322846 -1.9169471541519372
Ni 2.130764187505381 5.485109180025603 2.358836854455579 1.4992693887185147 -0.14203853726271023 -0.4032973283420345
Ni 2.3083575952223856 5.3559727880208445 11.41765094325936 0.5194481992047054 0.5936818610083002 0.8767695750372576
Ni 1.3421989697509908 3.55977054421842 3.865689983126271 -0.47770428249869995 0.1697429451565141 -0.8246548566198894
Ni 1.679111508591367 1.343808715837317 2.504027719786065 -0.0015190077476877064 0.10187456344931488 0.046571162891319795
Ni 1.3397934969060834 3.7745710376125516 7.981854628027959 -0.3606455551097789 -0.5439963208577148 0.9423383620770028
Ni 3.918515264354593 2.8539243242181938 7.050086947211078 -1.2018675720597303 -0.7356121548279202 -0.02294529594226371
Ni 4.3993994687907545 6.925905097564064 5.332797932148498 -0.05000024317752679 0.23526236701556258 1.2479769648232828
Ni 0.9177107560437293 0.3289580151399342 13.274935734010194 -0.41178608253933596 -1.4005716803352846 0.9069101031763801
P 0.22158063415432191 5.8983840488360695 8.154755077126248 0.4911262123315607 -0.38948356238739373 -0.43056567713968424
P 8.671263145378497 1.8045802404789846 8.056551419575777 -0.051536477316395116 1.1622047062524694 0.1547960940386947
P 2.070115174446131 3.3949453497770468 10.189277485123869 -1.6264893729111536 -0.5088107740955172 -0.4712716394994787
P 4.239787656560779 6.031023467835503 3.341634400837453 -0.5656221266576065 0.343612253776576 0.10957578874831451
P 6.985685213588081 4.345692485728786 10.449712450808427 0.3268877419330435 -0.7675120888603104 -0.3384991009197267
P 6.380338368568255 7.815180054844227 10.21317215359277 -0.578503610605965 0.7711627982390203 -0.28089816257680655
P 2.493496687719043 8.826045719349494 5.829759475621842 -0.6940613279693272 0.003509298704839117 -0.058678744788131204
P 7.031663586178769 3.9808471937768206 1.4172433201129033 -0.5443801865596948 0.6116219904264887 -1.019374012105767
Ni 5.2020774036542425 3.202964836413503 0.29531432193571994 0.37284543961008043 0.956524680879714 0.20785800686068073
Ni 1.3113028204350285 1.3688969744440918 6.979071535207272 1.9604232230577012 -0.6587785935076332 -0.4297634929533631
Ni 7.227266028236547 0.6350676967670781 9.106938179757266 -1.3149829985301869 0.26427675197004163 0.14458495783364778
Ni 2.8511347074208673 1.5480543968245153 8.968240261851113 0.913498297916859 1.3832406452560049 0.5727975613601233
Ni 6.361058000670669 2.0737096642866204 2.122940455674453 0.411808194026523 -0.08629342118160623 1.5757008295043766
Ni 4.11895609095593 7.039913534871189 10.236933286306785 1.1719599858670204 1.3152344524193607 1.0321935324679385
Ni 8.620043951722668 7.565120634388806 0.4608547558313582 -0.04447442826329114 -0.5173969731026314 -0.1777467892975971
Ni 7.964136445536875 4.019343905579924 8.058051410247128 -0.5235678778000338 -0.015366969374373533 0.2421524092671765
Ni 3.5275847687764808 8.751521792580263 12.438827214373239 -1.3805268458692674 -0.2355395319363492 -0.1871076616872068
Ni 0.2546828673113175 5.132538201981873 10.269382474744669 -0.4210518241119781 -0.642318391069081 -0.6411166574514959
Ni 8.708534255047693 2.309080151704316 5.784392074841191 -0.5306738927171957 0.9254536705065223 -1.02392306492903
Ni 3.2948118261799024 3.1431206963974168 11.880275505157218 2.3114240559888644 0.02743289939997211 1.1299836414352347
Ni 0.960680001007137 3.3717869572169477 12.248751872088002 -0.33882948767595195 0.7179003393704539 0.8695427182715154
Ni 3.161587044967259 8.480928963239604 7.959512998680977 -0.1297286095471056 -0.03371333309204517 -0.040260390181943564
Ni 5.822268668549676 7.841576232146141 3.4030919454536983 -0.2692538934696589 0.32337407235283017 -0.3747236304693998
Ni 3.142187775370114 8.414526937178655 3.7783292459470483 0.12365746365236124 0.4882380921504882 -0.7572729276308056
Ni 3.579672859467542 4.588398293380763 9.283987383541676 0.9936560385143726 -0.2762040995352469 -0.9437586394632972
Ni 7.687717432917864 6.406716253301007 11.290223991842867 -1.057863426430217 -1.0329134413530985 1.0841424147314038
Ni 7.987368008373625 9.289332472251047 2.4756879570106034 0.030241572493360822 -0.6103454377069102 -0.2671831269835592
Ni 4.936268081149653 0.5087721407533022 1.2412331342569387 -0.49707960170151816 -1.5117950319893512 -0.25884863897593485
Ni 5.934328947240964 5.73534237988807 -0.12905864858581623 2.0858511483469235 -0.19277694415784216 1.4502883308341217
Ni 8.077861348021976 8.82581706223496 11.240052047771607 -0.4163186803023669 2.0320027350679006 1.109802024281037
Ni 9.235095004683357 5.025883377478191 5.921296406340931 -0.5029602288520112 -0.7119106974459224 0.1109346167690541
Ni 7.254229275182507 5.9812676797126985 2.4074841128871185 0.9951197675440926 -0.39531456724687397 0.21583691130109922
P 8.910136659790867 1.8590372188766282 3.5059007572909024 -0.5565301916586674 0.22094954993731625 -0.4868460968989679
P 2.115489892254446 3.4734662029083485 1.3261298623699331 -0.5808903656705867 -0.3405284726449297 -0.24633045190426608
P 4.887216556939617 1.0042163156145913 8.170618393104224 -0.8059598513135475 0.23306150270950185 -0.37650026275384835
P 8.704208062440692 1.5861395258214566 12.283383364027005 -0.22230117886920422 1.197728610190692 -1.5145813364852367
P 6.646376348187378 7.626501350214568 1.2194466843840488 -1.3555984580587042 1.6626038592455237 -0.49611955178109396
P 2.0577676902612434 3.621937840518182 5.865943092054309 0.09798885524166351 -0.5038022651373323 0.7498293268685666
P 7.078199882128922 3.7893057020731837 5.919221114369411 0.6365285238601812 0.6651497871412997 -1.1464492431904256
P 2.379598005826894 8.46271871063804 10.446887163501232 0.17655354032044432 0.5124529988337949 -0.4637866439763432
