# total energy = -340860.9319796167 ev
CRYSTAL
PRIMVEC
9.33795535648232 0.00000000000000 0.00000000000000
0.00000000000000 9.33795535648232 0.00000000000000
0.00000000000000 0.00000000000000 13.66704155920520
PRIMCOORD
 96 1
Ni 8.033069350803881 7.189020917132884 11.886977933413108 -1.300886925448437 -1.2325768282181289 0.25543575663964396
Ni 8.508016428804238 7.899639308777474 0.26846154337169714 1.5319946468656775 0.14897074560616927 1.5115201810614098
Ni 2.577191596956401 4.981957850920459 10.665663036033967 0.6609162086759263 0.6462611777669128 -0.1676354118952081
Ni 3.0892663848802653 7.848999577661986 12.112183266855562 0.7043552536961676 1.1727115193210642 0.444245488619622
Ni 3.2706655028314846 2.4896762807081347 6.033274339866894 0.7591189797006088 -0.6536024486233325 0.3616773388084029
Ni 5.132616420313282 7.167945152219062 2.196238508530501 -3.6432367244818806 1.237875357612907 1.1462489542541616
Ni 7.525700892306941 2.562101461333567 1.7959997412049475 -0.2424048915976148 -2.0376859014956072 -0.3004228628732955
Ni 6.568663200568932 0.715607661114442 6.67760725643804 0.2907300610655638 -0.21321747140038116 -0.7069731509349889
Ni 3.6577517602407257 7.8909363345197505 7.206726614010641 -1.9884425910887629 -0.2904179291417837 -1.1663614087333203
Ni 1.1306116032214464 7.554545835957271 5.279168157003801 -0.26378747103844896 0.13620007620406221 -0.6884969465076723
Ni 1.789656468229334 4.939974404286634 12.980012671065342 -0.7500532699539146 0.29570797389612946 -0.2619925839215552
Ni 7.627680701178827 5.513689034565898 5.0368239405649655 -0.9741264531218772 -0.3394465524346606 -0.3431551116344993
Ni 7.556861648849884 5.23216836083001 2.251207315682341 -1.230291888838694 0.891626180434116 0.4534559514742965
Ni 7.420312729782619 4.690118736675146 11.795763853105308 -0.3938721783733926 0.2511872657759351 1.4249135995147588
Ni 8.670963747256248 6.360987076650724 7.147015059406549 0.5911930331481754 0.7811121961422484 -0.4969068235690797
Ni 9.45673400244822 1.0984423475155907 0.36803122600332794 -0.021429887739001802 -0.6897920111700121 0.9661028114864523
Ni 6.103567665317393 0.2391879875771291 3.609425040631287 0.08487520067784092 0.11293519213885066 -0.6340366106762629
Ni 8.099172735750688 1.6577391749472956 4.783928768531922 -0.1605221978891945 -3.1735380858964763 -2.1613328236250067
Ni 4.587083738864286 4.660246617951478 2.5163071951776645 0.5920265847930642 0.017098864463815713 0.3302815981059409
Ni 4.240888387329049 1.3520892249432124 8.103844514743326 1.2076556394964169 0.8192681383866792 -0.5694307017704193
Ni 1.0088820190758632 6.933898642781743 11.62234308408735 0.8240868999315614 -0.21297141682784612 0.4821646322628987
Ni 1.9763688826962669 2.8139554513604565 0.7511086992399926 1.518996949054429 0.38375874408847455 -0.53407726197179
Ni 8.743575686985924 1.4837824073001593 8.289238409934304 0.37347947364965356 1.3804751666957258 1.342627499720333
Ni 2.8904986702344475 9.255566433312879 9.242076823213408 -0.0011569964225786526 -1.625352688203549 0.7636232953288655
P 1.9695428374361854 7.195081250065568 9.568282414025996 -2.031734311897862 -0.3287088543021823 -0.47439398717854425
P 5.260891911062582 4.423697536517303 11.478387298945806 -0.5962077127539473 0.40981970284158453 -0.5627849143191276
P 6.8386981893938765 7.898257291406075 6.9667336946942235 0.35718562158563644 -1.4457747592344843 -0.9748368489253404
P 2.026737813110602 2.952726803768213 9.956097965737305 -1.194906824471181 0.26372216501815227 -0.6686644851627774
P 0.7605857899848033 6.465170642952677 1.3397267060378473 -0.15162720939240984 -0.22675355821360305 -0.20827735378628648
P 6.967664688828876 2.4631564879056294 7.760815663820529 -0.8138875908010563 1.2533683110421834 0.8935779048438481
P 4.428245120705619 5.9907464904442005 7.91284784642506 -0.9981071323071906 -1.0856812199734334 -1.4480311593688289
P 7.264733057992993 6.029218865918257 13.962386102884954 -0.5418859593829313 0.9363101536050519 -1.709413620510211
Ni 2.8102949729172937 2.5908250115661398 12.194731724726488 0.4930095453972026 1.0243565529220229 -0.09670664609513023
Ni 6.578141225109263 0.7436934290060245 10.234836862615495 -0.35878947573764663 0.07529115653383163 0.015142512068393276
Ni 5.326378990965388 4.168014984853433 5.667407651881742 -1.8550804985541278 -0.8888157075685145 -0.7765713708491012
Ni 0.7717259705528978 3.860926989746678 8.289060988785273 -0.7338213814760847 -0.19958676799082403 0.43110612302418655
Ni 5.7915305539482 7.697799406866858 0.27535575570482723 2.1791533967461953 1.2731750613554653 -2.238592930959751
Ni 8.876268030550571 2.3184742098485827 10.81687534617087 0.6398377907390722 -0.8507104160563607 -1.5462164468920145
Ni 8.983215631595321 4.678175491958806 0.3886989222743788 0.325225266628956 -0.5493449867641378 -0.5079147446438091
Ni 2.128913719041944 10.0556704497555 4.956790194032673 0.7885259721078162 -4.514379183140348 0.1510602811453463
Ni 4.980099597833241 0.4901408649260456 13.473926069897097 -0.2818931795002242 0.6456934781889009 -0.13561823555866323
Ni 7.921994373555361 3.380405152484668 5.877633971368389 -0.04118264488589682 1.8360736184343216 3.2691108754974794
Ni 3.1009014770746037 6.3462797971915865 4.531635894610062 0.4696207341596171 -0.12081819443135319 -0.4019025048770369
Ni 6.311701349040997 4.069798371932042 0.5714202946836388 -1.1098272210920177 -0.14572215676188455 -1.1779696823962098
Ni 7.43786808558146 7.857795931471831 2.349774101924187 -1.3755718158568373 -0.9114524711314238 0.1742701436029063
Ni 8.086183640050589 8.729811541003217 8.442623662249074 -1.7593598705213507 -1.2422068951087253 1.420144974481522
Ni 0.6458447315199929 1.781420391732218 6.378325791888643 0.16206871644070797 0.23689784573645656 1.666969335303071
Ni 6.769186450794634 3.191003406916636 10.013868159452793 0.15223244707657654 0.6228011469717596 -1.1327370358106554
Ni 9.045135612607087 6.7388007445342994 9.77926043890722 -0.8389350206879874 0.2599403293782168 -2.2943984679651455
Ni 3.9487878103377945 7.1145880761368385 10.044933668852572 -1.211522835761307 1.1265522471561824 0.10779401425754338
Ni 7.316371950316181 7.700386020460623 4.7948084201495975 2.0143688240362208 2.7908203814780066 -0.13099359230245824
Ni 2.3680214002042486 7.84115569528378 0.7409256590811434 -0.6547440184269433 -0.7927662354414088 1.4061738570134104
Ni 6.5106184709702095 5.254859591995533 7.217168315528866 0.7291342604130604 1.5672501276338622 0.6684459413940682
Ni 4.5603398351366895 9.48857642972165 5.554298867988016 -0.775275020635181 0.17171729527406554 -0.32508282751382084
Ni 2.5886866198225578 0.6145261635339642 0.1584594971770527 0.0059413051850994445 0.9274717293778156 -1.0482608703434462
Ni 7.930351843470234 2.4346010208668756 12.945243728628423 -2.1918024529687736 1.582963938824693 0.45523001265558377
P 3.984645558352449 6.5010190530121195 0.47146121931966134 -0.31036223347419456 -0.8777154838902949 -1.0985439348687145
P 0.29366748587585273 4.859275795343237 5.39491397944944 0.6581707847203052 0.06815608815094713 0.44987183366746386
P 7.216016945651208 0.24873884816811578 1.0857614043374915 -0.6618885998915247 1.1416801039365563 1.1436040604321465
P 0.5085459746491926 3.065604006372678 12.544539931133306 2.011179627674962 1.1292789020587262 0.2343218574791642
P 4.219877988101712 2.551923090152324 1.5394963832779291 -0.2938251550511198 0.2780650640033856 -0.6351087606945192
P 2.932108598659786 8.201143206667362 3.502247725888318 -0.5464314126617686 1.6699739264573497 0.19378250260422109
P 2.8846344343612174 4.295571453051397 4.987253405321269 0.23277611025859912 -0.4637110535434014 -0.04543344974245079
P 4.308000271438768 0.7655162303368183 11.293869303953729 -0.8460855156898395 -0.9295388963194895 -0.4075887566285368
Ni 2.201021409190164 4.19354495440345 2.790208097460438 -0.5579340139847294 0.5152189916147062 0.26418573491813213
Ni 5.3908669096604935 8.448673723431027 8.433930959742085 1.4172583969623462 0.7398207935926291 1.468615925498716
Ni 8.58083380354858 3.7676314792220906 3.544834404428848 5.239455985654582 -0.7664831333751638 0.4722345176333803
Ni 1.4887128476521745 1.1536950285058805 2.6788221663033536 -0.19470938529386467 -0.775139266388265 -1.8378769901916476
Ni 3.8593675512262493 4.378529847156135 0.16320878119795204 0.9820554781609668 -0.7413076625508007 -0.39889379995770013
Ni 1.8759765262104457 6.120058494222049 7.255012246617145 -0.3075504750570123 0.15041082048680549 0.32960796907768397
Ni 3.424956536801834 2.166489650815634 3.621329065935736 2.0841066548519915 0.806644536085398 -0.5577856613323232
Ni 1.257925284583895 2.579544761669863 4.400308760097431 -1.6223676374332963 3.933118064393904 -0.3262364815022898
Ni 5.133027290342617 3.673066006788651 8.14863214932736 2.0903572637473937 -0.3611924287521844 -0.42057694135808854
Ni 0.7390552666521498 8.647002554181872 7.476295638870498 1.069452673929713 -1.0836197094587143 0.7191583801472711
Ni 3.0665658157595295 4.085934358538637 7.647215703482644 -1.0933173963624525 0.9435706918222072 0.5940482432087835
Ni 0.20836339742182303 4.704359118373674 10.803235394992482 -0.14023773660854558 -0.7694054492282814 -0.08178730578113656
Ni 5.749463065717465 6.193492174010394 9.51895746700438 3.7395299371886757 -2.1402916866839914 0.6860199457220895
Ni 9.169694597181952 9.191526736467958 10.624238932917349 -0.6735722068770399 -0.5343819376964022 0.4803003253606502
Ni 7.351267888943984 0.28745494427320956 12.668609606855053 -0.24742548474065776 -0.7758774301058702 -1.7183420333480923
Ni 5.145465446685201 6.554301425452646 12.019055839524794 0.4972307825674017 -1.050021818898611 0.019705448848727353
Ni 6.552611255559246 3.566015688236567 3.7668554951439615 -3.314947217105304 -0.17284215290712815 -0.4836134488942833
Ni 0.18130106942149204 5.992604743531418 3.351760041075878 0.6028858961050714 0.49607661435830047 0.8464344143888262
Ni 1.855227589729049 0.9171608878000442 10.971026310813036 -0.23125016053237593 0.24429953751716635 0.5670963972102878
Ni 5.343514138779682 7.011244925803978 5.665508311791592 -1.386802394465334 -0.882308502577616 0.24205110780262187
Ni 5.462974599808713 2.3711963049763796 12.014996630394075 1.2831931077130998 0.5056375185738582 0.8822748211262031
Ni 0.08186865473147986 8.421313514659428 3.0610760318903067 1.9778473320714194 0.4065603153640224 0.6512110655730204
Ni 4.0696956544247085 0.29310160578999644 2.1278902791506926 -0.2194521394561834 -0.406761375631235 0.30935693213813176
Ni 4.156669369270671 3.0594129420670226 10.0475847143373 -0.10247337337557835 -0.7347454359522507 0.944094168425845
P 9.084905963855633 9.273532659141056 5.7039806872656476 -0.38342450067750744 -0.5612599930341688 -1.4157892686159876
P 0.8826776867926178 8.785587147485387 12.82355243009921 0.7404838810979247 0.18947744747096398 -1.2611680095922602
P 5.549369361431522 2.0137767312761388 4.7499806323581515 -0.5148860337553197 -0.6397699136156143 0.9469838312688141
P 8.086351723244407 4.944353905281132 8.643884610936537 0.8838899881321229 -0.3695166323471636 1.72055703872154
P 2.41954823706489 0.515219811239316 7.263991624349149 1.1035652993427059 1.725831399746602 -1.499869741306675
P 6.079914624765018 6.267850311364742 3.6166955725594674 0.9017720106188664 -2.0038805229103875 2.6072670128009614
P 0.2340838612581681 2.933976189702216 1.7456364135637392 -0.4313465211697668 -0.09661845725669813 2.247286859189323
P 6.966516120337781 7.956974353780073 10.314393439636447 -0.4042792326393295 0.6844759982737374 -1.0825881828704065
