# total energy = -381169.2012933184 ev
CRYSTAL
PRIMVEC
9.25466778012304 0.00000000000000 0.00000000000000

0.00000000000000 9.25466778012304 0.00000000000000

0.00000000000000 0.00000000000000 13.54514177236308

PRIMCOORD
 96 1
Ni 7.428379165224729 2.164712997412227 13.855731849576475 -0.1941673967474656 -0.6019857528883052 -0.2972323809604558
Ni 4.979196198746185 1.422544193348713 8.048942564039542 -2.0491720477583355 -1.7372080170146598 -4.577946880589665
Ni 2.989248342066872 5.76244647176296 7.949874125043375 -0.7257411755711114 -0.16781821732997548 0.7638138140731168
Ni 3.350800436592015 0.20501957419881062 4.785728300498593 0.22572357428719192 -0.4705494166214734 1.264099067196126
Ni 9.359060131348352 4.4667374962571085 4.0770197467167915 -1.0762193032295853 -0.753105169406361 -1.8834006856550596
Ni 2.2012411699642715 4.042670122890045 9.966013616163918 0.3435217509452987 0.6914169483679448 -0.32735671114966197
Ni 0.08928533000078748 5.405503201643929 8.017775620359908 -0.0411996141667613 -1.6319997612064214 0.548791428253513
Ni 7.964039319091553 7.971646655761881 5.609259513731425 2.436051082643347 1.4106393489839317 -0.6759970142684487
Ni 8.318409791650549 6.326666529479699 10.713313207879535 0.5610260226464918 -0.6895873513583736 -0.24524981724557762
Ni 2.6775418866005882 0.4212946749894117 7.229394559691028 -0.46271860772314505 0.6480159556744904 -0.9244226581388466
Ni 1.8660093497583627 6.103462459145212 13.861149531920526 1.3777384844908531 -0.8054181198774644 1.752256169597034
Ni 7.922291514079576 7.338220194613625 8.414255755429432 -0.26875381390478875 -0.45448362140786247 0.2547834677676257
Ni 1.4165749328227268 5.137256664673819 5.754219997838078 -0.40706630846616343 -0.7151739415782264 1.3656622700526093
Ni 6.6387524263127515 4.19246617075612 10.381564844513909 -0.9557348379885668 0.983381653171558 0.7618878006949975
Ni 0.938238189340337 4.692810513511062 12.001090007886436 -0.24952170514805413 2.139339607183367 -1.0101239542624088
Ni 5.140773438317035 9.136763018427118 3.1687231830814535 -0.3855898837599424 -0.0544420809989643 -0.4851378559586097
Ni 9.127804500304396 3.7373308786514796 9.953172765032436 -1.2089383628635826 0.5610810442541434 0.10184628131454072
Ni 8.878909473039462 1.9868567977402736 3.810681522181502 -0.2927427206202184 2.376605377782204 0.40072699651169696
Ni 6.0224193360040275 4.318116791161266 5.163854579017517 -1.241155056805443 -0.35950398530616795 1.3876503442879262
Ni 2.1936615972963907 0.9067704689675317 11.538469540722232 -1.1050367416819098 0.47628709043619905 0.6531432495987267
Ni 8.314143389941277 -0.09715920109460045 3.610796437501788 0.004995396332062365 0.002713799386737262 0.1405102735436419
Ni 5.01577064463564 2.2987761105586473 1.552733302687106 1.6575292729360938 0.5824492255172743 -1.138897913205729
Ni 4.6966789645186 6.673883144074992 2.1607890183997953 0.7382938154251414 -0.27431331027043726 -0.548951350870145
Ni 0.5961449586631625 1.8439647318158823 1.5462318987808958 -0.3069969165463874 -0.9234798346096031 -1.2430774706391365
P 4.467422341650788 1.9339478637448237 5.682755455540917 -0.47247568710990895 -0.3140360827813559 0.2257508279807015
Ni 3.0301817363404204 3.433379834535237 6.722575651565574 2.1595266236542034 0.5999880057319861 -0.5750061389756678
P 6.508428198829119 7.214661129059445 6.685042422124967 -0.1307879040495554 -0.6713644005924437 1.2229025383531584
Ni 3.55561548263947 5.914667242509359 11.160167423521148 0.987990612698479 2.2235056976093253 -1.9502899912784415
P 3.3214723953410825 5.0811178517270985 4.865184248166589 1.1068974490397325 -0.019646313476017776 -0.11822112312813833
P 1.2166741152082932 8.761190102666518 5.321331075427029 0.04123201006659351 0.9031537214577414 0.8106333455298168
P 8.187058296076398 4.172596399671944 13.028637589363015 -0.8233168545347562 0.36173827395332536 0.12007848805185127
Ni 3.9629411625313247 2.049621952604213 3.493142775267967 -0.8472823642114181 0.8532910322993434 1.0752803363550836
Ni 0.4149968737678088 2.646372166520708 12.484462215945864 -0.13833589160014242 -2.094818641952857 -0.11566364681360726
Ni 2.084863726376239 5.488480550288882 2.8558034407082595 0.8191274990437569 -1.1187247806919633 0.15224710236459585
Ni 8.20068116661012 5.708482505674545 5.553995266861768 -0.7568924043629353 -0.5958174192940642 1.4579299065397795
Ni 1.7825785224067832 3.072318237386648 3.331535920761172 -1.1023890196464174 -0.5269061981446475 1.6332793992497938
Ni 0.6427135199665915 6.998324021996714 4.0813953535023515 -0.7136801306415193 0.5209055004765223 1.3018811710409062
Ni 6.181747691376716 5.267691948167236 12.470049922275912 0.8539140105953229 -0.9659017512192396 -0.28377342724207255
Ni 0.5407020967111 4.059134176340789 1.0991518692527187 0.057502207981526776 1.2125091109339763 -0.46296851895042196
Ni 0.2130554019735612 -0.09783201542055274 8.324193958826891 -0.37016352190254315 1.317214716074183 -0.3462746311000875
Ni 8.38296109733854 5.880221370140798 1.903688802945187 -0.14881339409269856 0.00046691233408951847 1.644750890224503
Ni 6.3198736035478005 9.649656690287854 5.184416599229357 -0.454848718056765 -1.0382672494658443 0.26095385824439576
Ni 5.3049512394503715 8.705597315101246 9.206943938344503 0.11370883708008159 -1.3486166274242322 0.560326425476306
Ni 8.24088344215258 8.291996970656493 1.4765692402425106 1.2602645239413846 1.053145195018941 -1.2062975828066258
Ni 4.142879662386762 0.9379512946483903 12.873464579689811 -0.5229261304509768 -0.26574690875766493 0.24801889535028251
Ni 2.7781956501364484 7.067188002731389 5.776433976195481 0.34580797587631407 1.0183535412610525 -0.5982985338447051
Ni 6.729133508943424 2.626335811421854 8.775449694323015 4.259231390054768 -1.320769523304977 -0.5771147006782383
Ni 5.948141374792294 4.608028504707089 1.07127866172998 -0.8624012221307276 -0.16033219336557547 0.26486167793923415
Ni 8.812053755148412 6.396733616987054 13.204819619687447 -0.18554443096514497 -0.3147454501435547 0.051186293065827976
Ni 7.816353335411408 0.5079202135558294 9.887181433084217 -1.3189574097969028 0.12332502001360696 -0.8109290223933646
Ni 6.985506307533936 9.371368839099613 7.694141749442628 0.09850050477075939 0.23511709968694988 -1.0608495056417344
Ni 5.379830754048445 2.818573764361068 12.744189831498653 -0.09737539002738069 0.9997202424305814 -1.505700231945523
Ni 6.852137294448677 7.454486582191873 3.1764850726987324 -0.5974780948259388 -1.4162674938039868 0.4663600611304743
Ni 3.614040198454281 7.985639712994891 14.021388546573458 -0.4281334135491079 -0.34158082516884397 -0.6384560799001973
Ni 3.276068996673656 0.7911019329086317 1.5692584369432325 -1.3791847300190763 -0.1754420524238204 0.0948053153073593
Ni 3.014633894970409 7.788876227656906 3.107025091378206 -1.4418800521657684 0.5808816239198383 -0.12952189285293822
P 7.027226348543468 5.217068917039878 3.729992852804883 1.424245884023773 1.0950153528901658 -2.7017005465911987
Ni 6.545234011405628 2.396116703135898 6.21834434846813 0.9639037469526044 0.09416125396545719 1.4231534222905426
P 8.251572583094463 3.4289375941438047 7.323776435074235 0.5474063749805281 0.33190884929671866 0.334110742044044
Ni 1.4208135705295513 8.733759268249427 0.1846296908021384 -0.6147260832731091 -0.019003794796012434 0.8326836404616368
P 2.4628521103496794 2.5336040432507136 13.179733918010331 -0.4157208988173679 -2.6480447089389556 0.20233116350518057
P 6.781700020242035 0.9943584929520929 2.0485400819755495 1.3236836116279784 -0.13490398310045798 1.0037705012405551
P 4.414198748960945 6.08197312125166 -0.006868814205251511 -0.3181385349855037 -0.7509801526435582 -0.44234184383900593
Ni 3.18951009171311 4.297090186641822 12.442539497718473 1.1427905633919155 -0.7892268548295828 1.8400403163915535
Ni 2.764193338235956 3.3796472351338753 1.5227851987148695 2.2516932157871348 0.7538351055938501 -1.6282996866470152
Ni 4.70942264164152 8.25276643519966 6.8470148359973075 -0.6044072178456042 0.7709475969044206 0.18082774221576597
Ni 2.3447995719473775 8.7649845163342 9.30665002393019 -0.16612437456732038 -1.1331242439467453 0.6616911391687378
Ni 4.842884201401601 3.555846849326524 8.526043809413066 -3.124016325017265 2.6875610218660233 -0.00953159363951907
Ni 6.314792791100102 2.383141659325924 3.7386487433009377 0.29009242748156494 -0.2640798054678871 -0.17733824100526877
Ni 4.688803242491291 4.535185016955087 3.1317859542266975 -0.6802804721351511 -0.9201651684140733 0.47630508815832817
Ni 7.452848506047532 2.313722398542319 11.433088493036491 0.7634255774957627 0.6604343839435013 -0.3644029652696821
Ni 1.4456901167215697 0.6163654816449115 3.313304225821337 0.5939747096583706 -1.0275246662373594 0.7251539356090737
Ni 2.8689746834688545 1.8685173646460254 9.318311830424449 0.7038446326083362 -0.0518195557744527 -0.14128340426424052
Ni 7.70111421592368 3.5848324678806165 2.0431223996314993 0.4371543861007955 -0.1954480632321021 2.16110810920871
Ni 1.3905322985279573 2.326132907635882 5.5258351646470825 -0.17157896992398836 -0.7101692892747834 -0.8276820734819874
Ni 1.138962672360682 2.8463192574725524 7.77776877574483 -1.61346544984766 -0.22069501072434894 1.3102040890843047
Ni 8.685958910704123 0.50542608066939 12.735792146225352 0.019000195251586634 -0.7618836869299395 0.06499388837288161
Ni 6.634032545896855 4.994309070744535 8.129455394734 2.4165646917839605 0.5676052185259064 0.34328958032983464
Ni 3.7215053972570034 8.564102703966658 11.219711028634551 1.3520979011046133 -1.1276087134451547 -0.07591516327107571
Ni 1.624860479175988 7.093869209082428 11.952165208242052 0.32409115302451286 0.6876932196594544 -2.153505614271104
Ni 0.5621905091379035 1.5841214329195648 9.983418869297598 0.4000981046784464 0.19658243394686145 0.1514562310321843
Ni 5.649706112495412 -0.21843791658117948 0.7343217715053987 0.46620733760269384 1.01926422600078 -0.3630909313264779
Ni 6.377891113993398 0.28254777463027514 11.61929332824409 -0.5280863344956777 -1.8602265615314413 2.449805970335594
Ni 0.2015129806898241 8.516654023785676 10.817529092929275 0.5572729833619628 -0.07880302634183203 -0.3423763244869458
Ni 1.062611665632947 7.328789688449315 7.309351184869808 0.19840971696358733 0.3883239948616538 -0.8678162224987119
Ni 8.686708538770176 1.0499142618474375 6.230318037256535 0.590772657781305 0.1737564371912814 -0.3861488415872059
Ni 5.068457466611518 5.70505827870615 6.746171351778063 -2.3141450544644537 -0.16317069125563513 0.39685465804048425
Ni 4.861236207018704 6.761922795832682 4.603452071637165 0.4471554631775654 0.2031986537117984 -0.5777309941059985
P 4.232335278269221 3.3953431511836016 10.606224674043338 0.23423212597883533 -0.04433661713384622 0.5861109906395777
Ni 5.281851589414925 1.4078385267195774 10.144065089319746 -1.24514000959512 2.7135975551391005 3.153609722403665
P 7.643142978815494 7.876138487346096 12.20619102315909 -0.6886681819782139 -0.05563095910074291 -0.3071285570282452
Ni 5.895241695464326 6.526382253744489 10.687658344152268 0.5620894309139998 1.6013601819436938 -1.0723137975275918
P 4.672792667747172 6.749919492108334 9.00940213547127 -1.3958709324255056 -1.267714038240894 -0.7564555739358327
P 0.9725544963641481 7.174958605561023 2.01791453634362 0.12338544093789718 1.2626877886708965 -1.8242709693724388
P 1.0955860458718463 6.820106890292957 9.56514491777436 -0.18305611732565247 -0.12474426895863677 -0.07764011638198241
Ni 6.511972736474783 6.944415583913191 0.5823342183795506 0.2448710937499202 -0.4058224087567333 -0.4497841590496641
