# total energy = -340867.4788936741 ev
CRYSTAL
PRIMVEC
9.28097357213626 0.00000000000000 0.00000000000000

0.00000000000000 9.28097357213626 0.00000000000000

0.00000000000000 0.00000000000000 13.58364295800844

PRIMCOORD
 96 1
Ni 3.1284583600824143 2.9419943232949883 6.664501804648624 -0.5554004489295983 -0.2900276356819005 0.15066073171408245
Ni 3.7601028484442978 4.179584284645485 8.69512031670163 0.7748135076177302 0.3333476386257743 0.134885985378329
Ni 8.405183635459506 6.0030078496043595 1.1892045345729567 -0.6100363911069235 0.4205681996073402 1.3976799606097865
Ni 1.1694861784653183 3.145683846732031 12.367620985222937 -0.25723064375653765 0.5532913730063955 -0.169484806399121
Ni 6.810072016395346 9.119419506200133 5.381838795930741 0.2887413127703092 0.34798878557771684 -0.37360340082202753
Ni 3.3574756599563136 8.427142418548405 9.640677953013947 1.6154053471828502 0.647085473440421 -1.6423301965981523
Ni 2.180091373118784 9.226995268999548 1.8111754643492286 2.4239586702551867 0.24398072072516694 -0.6486481899418507
Ni 4.445985345416291 5.367660252851743 10.960247680595444 0.015507094496663616 -2.5522209796694106 0.8278021439996194
Ni 0.632694166454595 6.826536463225315 6.835126004116598 -0.9168960107444982 -0.9302868302291076 0.09955028619151242
Ni 5.352717885661073 3.40953263981499 7.039410437949244 1.192505671228856 0.07791471019960776 -0.21539108201293228
Ni 6.266095602867668 4.3809350027831195 12.235139730276837 0.2365854567023603 -1.1507980070774246 0.30674726242942657
Ni 8.13118145746562 0.15900070836884656 11.129553981839146 2.266199122712794 -0.2129667888421558 -0.9408630630830571
Ni 7.859573770611607 5.407364257101238 6.215018693801126 0.3994026212733186 0.39862460545671347 -2.6636944996610703
Ni 4.472463962556032 8.320513315036846 0.9489015710320667 0.4635313334324275 0.11713200382901763 -1.2661153262952063
Ni 7.811498328345971 1.7698909103279503 3.660425194017094 2.8991170464035814 -1.3235923374657528 1.1118090274087369
Ni 7.428518960567707 2.1784579217985613 5.9426397580567105 -0.46565583597459803 1.5164896092515432 0.27664452950677515
Ni 0.7917746911947706 4.34323568879026 1.3403451865605744 0.38114084684965327 -0.4755453271741682 -0.3871672555493913
Ni 4.910720807966365 1.1370213334758994 5.970472469217022 -1.5199875951024726 0.8630239433163911 1.6895906722470126
Ni 1.0113662344731145 0.6493201022219034 3.694927212670086 -1.8103900976252887 -0.5830932868591764 -0.5547368472036704
Ni 2.030519205637516 2.1263452560994227 0.9497600610725244 0.601025445857565 2.443634294307243 1.776625599580334
Ni 8.651231521541407 3.283775450104691 8.080678112555837 -0.569398048760271 0.13448797860896194 -1.2068789092313925
Ni 4.5380897255406465 8.093509986392993 5.453723647383298 0.3365124095070011 -0.4085688611536189 -0.7469494342176104
Ni 8.167692806861954 8.531117163664604 3.620570837998351 0.38018953867997746 -0.8185567141419515 -0.5169835397142967
Ni 8.330369708798642 9.285521087325243 7.2454062832787605 -0.7578002608891852 -2.197418770714287 2.4968052219032675
P 9.22230837742732 3.7590169745552866 5.739469041033305 0.31610093573018466 -1.4156252322342975 0.45017008163417305
P 4.369612215222487 3.0032580287767363 10.583478212126046 0.7525467257997297 0.996554185997774 -0.5664032277980052
P 1.0308934025284995 1.1694583355450874 11.458549639678747 -1.6123922713881393 0.372538707002939 -0.10496605789044502
P 6.318700160157555 6.905879504910433 4.921815283581104 1.2136439958693679 -0.04781866214517571 -1.599381460950768
P 4.831498418935583 8.998646199211194 7.667055754868607 -0.9590685303474903 -0.5854147359035013 0.5663672323537472
P 6.994345743457929 1.818680987546182 9.87945141213681 0.554410059991871 -1.506836145322179 0.9979284406374813
P 8.74461667599639 8.280484476717989 9.31032356066707 -1.8880494972809807 -1.2216051596979736 0.3559399221039934
P 3.3940055712994672 4.361612016142762 1.0148261813604944 -1.3253556000137625 -0.6207877160861567 -0.44766582715508063
Ni 2.6397501432133947 8.967257947137377 6.534505994381815 -0.7076856036209812 1.2824153490068109 0.3872443886442299
Ni 1.4109399827090923 6.029152351701327 13.156993760499107 0.4740471453620868 -0.7293869998538148 -0.6003253344667467
Ni 5.495524223526193 2.730128262283423 0.8757099585233317 -1.06801105638718 0.8124374886180912 -0.6549440502528914
Ni 8.69768279346023 5.473184920527471 9.529808372751198 0.5069320690155656 0.14080312219371235 -0.915661881227081
Ni 3.731665945914973 6.010302694704897 4.490561860706222 -0.23711587528453357 0.36458268538065597 -1.1536832990450194
Ni 8.754770060907317 7.559464214414394 13.016362882801374 -0.3497327648520171 0.767593335720207 -0.45905838526273846
Ni 8.64399236228133 4.548586506467757 3.795256391430696 0.1987773847156512 0.22301311733456433 -0.5483489413994556
Ni 1.8519811201425327 7.780555562995851 4.466478662803695 1.766092561259494 -0.24545267728500308 -1.3994298534213576
Ni 5.299556469966564 5.6744149860107695 6.298178071752581 0.010661079258271963 -0.4342271851516715 1.1403493009402748
Ni 4.215919295547022 1.6616097935493481 8.734961679357598 0.04442326331038156 -0.18883672856317155 -1.3601765643476897
Ni 2.9527973763446407 1.0073197300662 12.766450399391404 -0.5383787175606212 -1.7579897296467015 0.7233477356382703
Ni 2.8758859496930356 1.4425231352245278 10.557437656931276 -1.5531609965306477 0.7633021645440209 -1.163295882434119
Ni 7.976402663901144 0.9452207369775203 1.4720050753598588 0.3491799776723406 0.9560104602474567 -0.36014444710364424
Ni 2.8199680848956516 7.5791862829113965 11.63760931587939 2.0083447293293286 0.5886720664985347 1.222575751141359
Ni 3.3278415118570526 0.618752288197561 4.124129540421278 0.45755506124433454 -1.1019930697595797 0.5431326873058387
Ni 8.663603059097408 4.953626748042433 12.806902450097775 -1.13772831837766 -1.1861969554020086 -1.3748981868285806
Ni 1.9613759537303772 4.185951032404988 3.525688662532277 1.3992922994022288 1.838897975256994 -3.1852723436142694
Ni 8.513873115068165 3.323265991965748 10.556839962243648 0.32746855413717796 -1.0475008522489702 1.3271394313870628
Ni 6.148969718428998 4.39720454917147 4.401317876586939 0.21094847286054635 -0.33173761382617706 0.5719128447623247
Ni 2.68942191290561 6.071232285143872 9.75893704430602 -1.3445977360728263 -0.07984458023246895 -0.9516102742972321
Ni 4.96770598470594 0.6091390559391161 11.020246389401361 0.4443683873507314 -0.3764372707263969 -0.14786825657060984
Ni 1.359328489574113 7.972012763478047 8.525039982275503 1.4166451888583795 -0.3428823175890869 0.37300510511639634
Ni 3.2539278396169924 6.692417116472287 6.929314890868918 -1.4644867338216907 -0.9224969018710436 0.9700643672373616
Ni 3.7190809459705325 3.5045976504572476 12.648259059205225 0.03542851601093898 -0.20346090623424956 -0.1133959338253531
P 7.984857630677977 2.8988934827773036 -0.06542529395895066 0.8105808950253265 -0.2474833345617867 -0.05030106224739724
P 5.188231193909366 7.210193342062535 10.940836524707686 1.0658269042516677 2.941886576160624 0.25887460711786386
P 0.8385127451919732 5.0051547124167195 11.10131383594612 0.8592979006150556 -1.1847262843937532 0.4036233442228855
P 1.963250710359269 1.4084990867021694 7.766379804208875 0.3839189238154227 0.5502204473905556 -0.36050105911211466
P 0.5742444521108665 2.6132344021800127 2.6918024825853655 -0.45006415218392815 -0.8027449439206755 0.0008402365131082303
P 7.158628253794608 8.338926766282988 1.2112041539448604 -0.6249403048019496 -1.8537826056783107 -0.18891026211358436
P 1.6308155237737931 5.197345109798334 8.031708912550785 0.8531776466499306 0.5165068571881943 -0.42692062418792925
P 3.829422438846233 3.8994566642007653 4.782895817380241 0.435637692345953 -0.33916193131470623 0.36028482933625045
Ni 6.399064108917813 7.658965530346801 7.133396071383878 0.6320368066374148 -1.2150722436754622 0.1598745370028666
Ni 2.4938903650962687 6.201342251383628 1.7267121096336184 0.6253257131658263 1.1312920758340128 1.125343828670378
Ni 4.875787224049793 4.618574326955238 2.4845564901374755 -0.4986713716686702 0.34008495734960786 -0.12281388470514333
Ni 1.5430175153118424 3.443176168427524 9.262495920391494 -0.49778356974707827 -0.5373009111154101 0.44538988663671036
Ni 0.736911144976803 0.7403933662003679 9.32157117234308 -0.7239018083695276 1.706000995284236 0.9688911728648669
Ni 7.619354335831409 7.0372702454808165 10.973043358636298 -1.23561844325793 -0.18387912744758012 0.05831287680828021
Ni 6.472188898417993 1.3117635008460478 7.917891695132908 -0.08152531036900153 0.2724538884641953 -0.22695950357682204
Ni 6.509786121703338 6.4181829141431415 2.5429662962955395 -0.3623504536160276 0.9975355760744369 0.6805620079313118
Ni 0.8128248669867949 7.0973923912330905 10.816464984327553 -1.3978717649056183 0.7662661322683513 -0.14564862321147173
Ni 9.561258807346864 8.18881630234392 1.5974365029034543 -1.209537429900162 -0.953907554971841 0.6539130378852157
Ni 1.7226600366426579 2.4764792589784443 4.7566789236906715 0.44978673015282533 -0.2432207026306908 1.641918048761398
Ni 3.855223544927018 2.4649801329230154 3.0392180883524946 0.25043778920442034 1.0519827992797237 -0.35417691666629975
Ni 0.4664013972772332 0.8300187983268171 13.476236971479107 -0.48943365512048614 -0.9230741145307523 -0.5008748070778922
Ni 7.110265101353252 3.3014835473716464 2.3423227883317748 0.6047494316763713 0.992435021623078 -0.6919226843597697
Ni 3.8399934675606264 6.221370592003172 13.297082629349676 0.4452821574142525 -0.9485352349163341 -0.12325277201477483
Ni 1.2946215429571237 5.625819809234155 5.087237497452574 -0.5433828556434319 -0.9056708314526402 0.18604939562602152
Ni 6.1958943199917496 6.598205955383782 13.258600001200984 0.6800637281386547 -2.032199424459739 0.8399009841456825
Ni 5.574737331583565 0.8111180959766308 2.266526006586753 0.22489027975261913 -0.8394266156124252 0.5019413006691936
Ni 0.23162246911018586 1.2403092865597312 6.004322963536605 2.2691682326434472 1.6160146986320747 -0.43067649168593564
Ni 6.35682639892729 8.662303722819958 12.645787535986049 -0.27380783138892845 1.187901082577309 -0.11166763828033673
Ni 6.851279538337319 1.5982114641832188 12.131687503963642 -0.44794299207586724 3.0933245523603627 1.1831070036227753
Ni 6.4511860555903615 8.596761488596039 9.350422934383847 -0.06123776376455905 0.08030326503644235 0.5971392234292813
Ni 6.435408400792759 3.7660148285066937 9.395873717369033 -1.6660614787768213 1.047196947855306 0.2444795147384564
Ni 5.0619728316349075 6.366246586938799 8.768268308635337 0.5339469070415127 -0.09478680336459805 -0.0199576740688495
P 5.883357540398073 1.6522174484580698 4.286060252095774 -0.90455445846001 0.9399621485353425 -1.2274089108639443
P 4.960457544472454 1.1732078488028703 -0.31624638466579513 0.2602720016860227 -2.14245218467042 -0.5293901409087657
P 9.489795312087136 8.41627439868488 5.520012071869412 -1.609078633633874 1.1235299153900908 -0.6362454454021236
P 6.463789617481622 4.679448231553751 0.8913168434101832 0.06331161557445225 2.6521762146088257 -0.6597707822175733
P 7.172187755947135 5.305895374805837 8.053007818430208 -2.380312651430462 0.3592265632750652 1.4726232468858962
P 1.7278852246726872 8.1041831058149 -0.213675850826584 -0.19347037068044098 1.2560312025863272 1.008166830536038
P 3.8483277816831247 8.156425705141784 2.928171241497607 -0.45891363215475806 -0.5508177146549224 1.406176685226888
P 0.6414544772566283 6.270002892673427 2.7971303936247933 -0.45019245023167626 -0.5388731406985365 1.1513855041497785
