# total energy = -340862.75769204233 ev
CRYSTAL
PRIMVEC
9.31731206436501 0.00000000000000 0.00000000000000
0.00000000000000 9.31731206436501 0.00000000000000
0.00000000000000 0.00000000000000 13.63682801453503
PRIMCOORD
 96 1
Ni 5.580128845028897 7.616501923146953 11.582030974899004 0.6565093378574822 0.09331844634918768 -1.6207894943128989
Ni 7.446246680801895 2.4960985699665494 1.0077343784470494 -2.8045282179824023 -1.7216209612096802 -0.6149543972338312
Ni 0.3079241176689592 8.381937739331008 2.026228388802383 0.6151001787830762 -2.2078834176910362 -0.43369856634171117
Ni 6.102233740779332 8.05489077049426 4.405909008675732 0.44156717045651045 0.2162338896292018 0.3290986335414332
Ni 5.112949503573002 1.1820407880537305 1.1355287665035454 0.058324703882822126 1.1619992751098827 0.7575464930071663
Ni 3.681297926791416 6.174452226163043 12.61721601798771 -1.5390237857983173 -0.37834734326491615 -2.064540045573973
Ni 9.142276985846001 1.8013438826846795 2.525063297809711 0.9204405335626471 1.3001189369341608 1.9580845476221955
Ni 6.267690567439625 7.737440633027042 7.510210027745409 -1.2614387467551438 -0.5397701985915091 0.628078336210299
Ni 8.160959050407582 9.040559890641 3.863204467804044 1.9009561780403197 -0.42291433124201366 3.0226384986987105
Ni 3.6513986725537273 1.9084650188550476 4.290023077098262 0.4125005921078574 0.35395323069126783 -0.2795403629973315
Ni 7.554141153869032 6.015797037269502 3.4622674878091257 -0.14771090505713916 -0.6572711557241713 -1.722220542466892
Ni 8.27106172642091 1.7761312363876438 12.4159909622551 -0.936712017029161 -0.26609837855981266 -1.1922621877594823
Ni 1.1988864881664576 0.23139358028736676 7.749291322171609 1.4531391700193554 -0.8058007000278639 -0.7484316751900917
Ni 3.466040067441672 5.059896728992323 1.3328852742899144 0.4503659996950631 -0.3155136957681469 -0.029585426966600662
Ni 2.8871554723068567 7.056112192350503 8.93369032189488 -0.29403907083413877 -0.5419679775737762 1.4522876206523376
Ni 2.731220938520019 2.494132617132597 10.313314960148006 2.006634945727073 0.4687483588569927 -0.05584256089091673
Ni 5.625681183442129 3.370314003858619 3.5435703524018574 0.25409852588545917 1.0401906917408021 1.0245437292321646
Ni 1.4942266442357215 1.9755869345696975 12.16151374146481 -1.3342786135350053 0.21937500636134477 0.8968555471538554
Ni 3.155270442685087 7.624347099858744 0.7675992960326027 -0.35738256808779095 -1.5816007399285794 2.201528422007286
Ni 1.5043266104537503 5.021332374586029 10.732238079245585 1.5153871202159839 -1.899327898408277 1.8649378509641816
Ni 3.202630339628114 4.363614002540935 9.03951262477116 0.030191435981715746 0.22547597705276007 -1.6121487879187655
Ni 0.9570463376543178 7.125610022627512 7.199890429158871 -0.7775730726407383 3.7363877920152686 -0.4991531964010952
Ni 8.8690561284867 3.852941448625853 13.483795914688196 -0.1742770855814418 1.0645305540377472 -1.5454751978506158
Ni 3.838294634147309 1.3293195389839736 12.196792811656643 1.3180541812563429 1.8002589227285575 0.564895275793911
P 2.3403224304838686 1.0417220691943982 0.2937226707044576 -0.26186608564602 -0.47777087407057717 0.19800682509821382
P 6.153041043165781 1.4029542557930905 12.349633997856408 -0.7702451715207573 -0.38984685926408347 0.2632236281151789
P 8.574125934145846 4.878470029548171 11.115310045193961 0.1687903514352577 -0.5598829101809841 -0.37911713155140514
P 1.7124287741803894 5.385536783715674 7.660242976105587 1.0579505868273844 -3.0745902091756534 1.4632358921337252
P 1.5015220995389655 6.015927479637632 1.3338300497276525 -0.6312852731833708 0.8562843105997123 -0.3559309232429289
P 4.94797717713719 7.874060379018701 9.493141799372 -0.5289209145818311 0.3105383540407426 -0.8286647491102309
P 0.976780404489913 7.836353217317259 4.076879315843416 0.6758160086058941 1.1626207107439654 0.7529298201707614
P 6.012657103122385 1.5319710751852005 8.252790477570768 -0.005703221032364371 0.8056983701220446 2.2476064473122714
Ni 0.9972971255342855 3.779530347304958 1.6914163721371247 1.0169216939105326 0.46010456713906567 0.4398355324773845
Ni 7.245561097434621 3.4739131960894896 9.24312384410934 -2.66814816455705 0.7287262263413643 -2.962519164809311
Ni 9.334176343988553 0.9335201248309569 5.9362206705920855 -0.38611850256990277 1.6852689049432075 -0.5556981826756753
Ni 8.902356201607768 2.792948130581312 10.27378160529275 1.793895442404375 -1.5851995130234313 2.8693349300451425
Ni 5.594114130354785 1.2758195334268498 6.283045497630872 -0.8397935120335408 -1.2630374587008313 -2.0321426030798744
Ni 8.814624391728652 3.3187147299513824 6.918262561173623 3.0675538711541623 -1.0067892334622208 1.2204998424489368
Ni 7.617983375756425 0.5751520799439084 10.163323007960669 -0.9204605881673051 0.7985242209711086 0.4189885138250462
Ni 7.233197024398343 8.381825931586896 13.425634457932844 0.9524499965897082 0.3705795263940392 -0.39766198443312806
Ni 8.501367044665598 6.430622402545412 1.163799354602017 1.077188866231706 -0.7472569381557002 -0.055540199159149505
Ni 2.817555151597746 6.938937676522152 2.9487326556448012 -1.262973181121799 0.03450651841730186 -0.4872633869420447
Ni 0.4043368671470941 5.287257776642085 5.972166860323779 -0.05079522827499639 -0.6823946902646764 -1.544733691698901
Ni 6.716542756173322 3.260239279781318 6.781499328577022 -3.1194289627568987 -0.3201249692879132 0.5913951218566524
Ni 6.902842409798311 6.777254361225606 9.639928596228154 0.6969671887622125 -0.1732599571708371 0.5651708980528007
Ni 0.12152383707426946 0.8411389762592253 0.3897021651741623 0.8830852328426405 -0.44379991644177114 0.11910815371878196
Ni 0.7980734284212626 3.0761944156625667 4.792690196534995 0.5110463482942554 0.9891211267584966 -0.7390458630998175
Ni 6.966982785670001 5.696809543320758 12.338656340847107 1.3154923340664377 0.42389623553930866 -0.07376983479329877
Ni 6.24222635371834 1.1744378614541808 3.3466545534735257 -0.20614770903779336 -1.110435544099978 -0.19901135510332824
Ni 7.524251216943352 5.328552103467089 7.514178270930149 -0.32972006917551605 1.1314849085711094 -0.1149339677364343
Ni 1.39250023171871 0.9298863731473488 4.224062098459965 0.8258995276602679 -1.2858104907312888 -0.5706769154726947
Ni 7.9092891357256825 4.000294738052171 4.9543818974123495 -0.3007589060564756 0.7802868720274755 -2.3117274461618957
Ni 1.724736943344611 4.837539077891528 13.135265087820517 -0.47895152464223967 0.011524712810147894 0.41808708505669934
Ni 2.6286000640501195 0.0893595442871313 10.350011193496446 2.108135156556105 -0.956543192822475 -0.3696395310782731
Ni 4.940420837097687 0.6874135771497807 10.136036328010373 1.1185751424879766 0.13412391040132385 -0.3602573185324247
Ni 4.349619399903039 3.8133149206505053 5.845385264082689 -0.02701458091563089 -1.5605639738629382 -0.052978866189876496
P 5.427231754957075 6.655085766160297 13.549579864398318 1.26358278968134 0.4717989727578585 1.833197582438107
P 7.91204706008042 0.22312073895435208 1.9811996833240708 -2.1518256554655197 1.050028246656514 -4.25490910853033
P 8.690676190069576 8.26834107131421 8.249967332031966 -0.8213900698256886 -0.5570341278782794 0.1933960657990798
P 4.914295094223745 7.157857239491533 5.829430298998046 -1.7088538913519988 -0.22758839541007256 1.3511645906570666
P 3.055593838810111 3.650513527912848 11.975084577202892 1.52724067712046 1.3555876594254268 0.8481637383751071
P 7.608274736642784 1.9120708186026278 4.859552159244586 -0.06653423627680799 -0.7127385926638564 0.9606047644863586
P 4.75296583678355 8.70045005036728 2.7495117537253813 -1.5432349956661873 0.5034060581401782 -0.4458681118247096
P 2.062126128511628 7.104133618446187 10.952800284322194 0.0711352253839291 0.7759167679842379 1.3717318732854569
Ni 0.21323600264373682 7.191753620581191 12.868529079619655 0.4508293124847268 0.40112063240568985 -1.0442738606712403
Ni 3.5214967085207385 1.8569309661318756 8.258789894773527 1.1819006420195 -1.4648667428689286 -0.7551898198495317
Ni 3.8217377707068687 5.689858828561856 7.094205090769129 1.1098213075547467 0.4770211403887462 0.2555748533206695
Ni 8.20059489569494 1.1809133933006108 8.01421418145547 -0.23309261305775342 0.13708787812565423 -0.21862707245172672
Ni 4.778392781256797 8.795458680925622 13.376119466722077 2.5972934465280173 0.11235000905934198 0.21119067077833953
Ni 2.9611442469723257 2.2378599503181267 1.9054471414952507 0.38545258685112976 1.4324587588518685 0.5238877230332978
Ni 5.840035263526976 5.329530421228061 5.108097047478584 0.5365033549147792 0.6718215427345203 0.29571157344055526
Ni 5.22867051872791 4.307654226613369 13.132673943350744 -1.4330719669558354 -0.8661645458279018 0.02196287742433637
Ni 6.710337426375159 3.4061390685341917 11.456053462684311 -0.05055097347467423 -0.23877217994103395 0.9032262265668897
Ni 2.5851813900870058 6.545393051875375 5.20444084884785 -1.4028069974237065 -1.846186024277975 1.115880112154317
Ni 4.992989111453886 6.398608118481622 2.9426642903331754 0.4238980353115216 -0.8933591039648228 0.5064996094638374
Ni 3.6883138627343826 8.440664756925322 7.343418030274189 0.505317159119962 1.1178336363362618 -1.2428057050349888
Ni 3.5702448849531443 8.460380189136899 4.684850695608714 0.6536351016334807 2.5754218432659064 -0.6195322464125008
Ni 4.8198082331379215 4.980923192401904 10.45590151275039 0.29254500278711554 0.46283636424793184 4.200293220957662
Ni 0.21848723969215114 6.163467115304134 9.469208420013834 -1.973730995910201 1.3026136783315565 -1.9762473345741514
Ni 2.3126220618803632 9.324299993258744 2.3011738806145954 2.0067149070353896 0.31341207604411186 -0.1511153027529978
Ni 0.6813377579885476 5.811412481034555 3.3961974966203203 -0.3918911433876218 -0.8172937882691278 0.198629032063245
Ni 0.5629547867925969 8.5614916590613 10.16706018180758 -1.6626395975794657 -0.26929117446549755 -0.1735101255084302
Ni 2.7882615226406586 8.687731919474652 12.619752190316628 -3.2346519224886614 -0.7504769877548946 -2.546820634589446
Ni 7.819516834516541 8.63956141638682 6.2215708047250295 0.225157931591709 -0.7985982687421537 -0.37831571869603237
Ni 2.273535938001552 2.995012676125956 6.744120136258305 -1.08321090405607 0.37667946864419 -1.0881980728580163
Ni 6.52540741761553 5.283111572797968 1.3826788531297578 -1.1340889218528598 -0.9312702771882995 -0.25256100619501015
Ni 6.603868502045439 7.821659816278669 2.0242372792260057 0.3088743360747584 0.23769463060613905 -0.6467476304850281
Ni 1.0442470607489054 3.455259937446967 8.824950768628506 0.37741763236179515 1.0410155016349425 -1.6956350786688796
P 5.44123567490698 4.979982143888971 8.611793031405647 1.78594353454715 -0.32501469328004673 -3.0684288175599477
P 7.868423405253104 6.397844098896863 5.4184576422379624 0.16877955280198031 0.753738689225302 2.288828172966219
P 4.977699402446703 3.486836307846322 1.5945955243929846 -0.4280020301775661 -0.9142524024740643 -1.0788832232149934
P 8.244507387194544 4.0186218907743685 2.1184129420907194 0.6071708966336704 1.6511827618927757 1.4615569617694053
P 2.891879349495548 0.8945923952563029 6.011291185181829 -0.4799750808107476 -0.029531433800213655 1.285998952593011
P 1.2951995424060936 1.3671012391814896 9.426429845385757 -2.3851427258292537 0.8051689799811359 0.3275932526405004
P 2.755138478447768 4.227972574310248 4.435446751207463 -0.5710224717375714 -0.24178936950080293 0.3240027070757646
P 8.081286715416471 8.2629929342209 11.348568019614381 -0.6112383818348246 -1.5304229315031836 1.7006132486097614
