# total energy = -381170.6098131878 ev
CRYSTAL
PRIMVEC
9.18687813479623 0.00000000000000 0.00000000000000
0.00000000000000 9.18687813479623 0.00000000000000
0.00000000000000 0.00000000000000 13.44592477414575
PRIMCOORD
 96 1
Ni 0.45920703022481557 3.710387218594507 6.907911444286759 -0.6056367193773311 0.6284822565169369 0.08600597184817446
Ni 6.167270828333076 3.9359067069612155 6.663962159374001 -1.3200077054382877 -0.3978208786084955 0.21536459965037102
Ni 7.900292736634538 6.308096485705296 11.146497311720076 0.0298106556035293 -1.800544058069144 -0.6228587396825724
Ni 6.189199906821398 1.6101749717510458 8.428968184456817 -0.1380705537538977 1.3833296054253852 -0.38865155340440166
Ni 7.973365166586827 8.254924612548328 1.162835550906714 -1.0041998754684898 -0.5988484928109041 -0.8221140924759067
Ni 2.7128392258940544 5.6456398787868105 4.154925560246928 1.9824884303878567 -0.4245562377208108 -0.47772999353031265
Ni 3.7041768888676088 3.2321826427450575 3.8185085079271057 0.1575687716878254 0.9184558990324504 -0.4345758267403419
Ni 8.668563807745942 5.91683652603242 1.3114957780882526 1.0659593160644738 -0.17407859641739054 -0.2551575632775928
Ni 7.677887600009572 3.9055900085902633 10.428134875629896 -1.3177765021149241 -0.42069804031698516 0.7548013261618614
Ni 3.5969384585390856 5.477556753515615 12.070944395145526 -0.2564487712851906 -1.02882564443697 2.6993266470423833
Ni 4.006333315964768 0.48456557038037307 11.179708795441538 2.927039226735146 -0.07022814018862744 0.4165379954020246
Ni 8.442777899908702 6.663564367543859 5.502852822898771 0.5292235334239144 -0.8322174994584958 1.2270965218298477
Ni 2.829971924145462 3.102785461970856 12.380241782740788 -0.2986621714284469 -1.4737481045189587 -1.5049569260215951
Ni 0.11797421630315817 0.8843932127504461 1.43470743370695 0.3460406607124105 -0.6245723799395695 1.169139999919722
Ni 0.3466907383162583 3.9970729426441856 9.317071058662473 2.425622688221171 1.9329023919296129 0.04065248341403967
Ni 7.484586493820721 8.871933732545267 8.621298237609968 -0.07430513847147847 -0.35049021184333184 -1.0917603362879778
Ni 0.04025781937313648 1.9960697945000925 5.27950235649733 0.7909500081682764 0.90318303203378 -1.0732388804450226
Ni 0.035364887993630655 7.237385972679635 12.756579496000349 1.4881971900647533 0.5332542518498623 -0.02418791010011318
Ni 1.445619607744834 0.521956165037881 12.807901991591056 -0.6937749070771599 -0.022942210618470165 0.7456484560179998
Ni 8.834377774078463 1.5660136477906919 9.724066303477702 -1.6486872491644315 0.7669189353610018 1.5394847845951358
Ni 2.173312237430633 6.038939325441005 8.637702327492143 -0.2797877031214472 -0.7541336106708754 -0.6454093712895788
Ni 2.084962028875043 1.265584353812848 10.783269273786377 -1.572230097346957 1.1381872602919494 -2.1517220400081203
Ni 1.2037474760143996 7.969221884476131 1.2170188403982412 -0.4171951693700493 0.6560642799002636 0.9838459944024862
Ni 3.7102586022983877 1.1683320601901506 8.429559819418966 0.22241893539399116 0.23130029704402097 0.17522016622100148
P 2.7624299949262974 0.976868329660145 4.821681626207114 0.8841607252950063 0.5617747278870583 0.8115460871520733
Ni 7.160859276488716 1.7587635412818894 1.4891626547959866 0.634756519561423 2.9423123508441322 -1.752938283265723
P 2.732857433697178 4.444473915573089 10.310483118754863 -0.8848826910626955 -0.01205795960579859 -0.522668763024532
Ni 2.935446473841493 7.998132990468067 9.859224575630213 -1.266017881485394 3.440650250432784 -2.1230388131408144
P 8.115210567449708 1.941885586320736 12.793972846721346 -0.47126624018283997 0.42187740533706697 0.15262479741898877
P 3.7624676316444856 8.804483672109045 0.9582897056857278 -2.0571620079423476 1.256099079709785 0.7387933807693793
P 5.984378455251584 6.589178213995496 2.987012421706995 -0.08486363071361513 -0.3068063978021361 -0.9981320720078553
Ni 4.9991500663436925 2.9525432543470513 1.7903250616617097 -0.4176173445091324 0.7490417979702648 -0.560374505105422
Ni 2.857679549080853 6.595544720653396 0.8021072625568754 0.12405161376698637 -0.9618941727217434 -1.0687124533295789
Ni 0.6273801869032943 4.780272690983711 4.67654640422707 0.6131836784866537 -0.7822843620734785 0.023590128615114208
Ni 8.02699816206853 4.275637466281767 13.000770395812248 -0.9012709026127317 0.6565756723190435 -1.419096992832982
Ni 2.393062366228567 2.9556116716973233 5.826414676421481 -0.028519961816563785 -0.08074060968417707 -0.17114291082783428
Ni 5.574037349361597 4.198871911255198 9.008742886727251 0.9457949531670355 0.1371081898406284 -0.40921600781931466
Ni 5.357833355585235 8.948487989371069 6.853064862182389 0.9835120081018353 0.10163339397278624 0.316861468045293
Ni 4.836643376197093 6.872409671806545 5.549496441374226 -1.6834292806313074 -0.993524655142831 -0.17514997510469835
Ni 1.7007116573406629 4.495056867461108 2.1767738531718983 -1.1852163366562942 0.517010022076858 1.2619691653373168
Ni 8.693377566018652 1.3574990711465993 7.453197686752834 0.031107777148398044 0.5212405152184378 -0.12228423745391845
Ni 1.956189555824849 0.8164608412037772 6.934399970472507 -0.31373603504243386 -1.5808427787166321 -2.994505745018236
Ni 3.0830612342731487 7.671126057585021 2.9454776262509608 1.132539317977553 0.6322597212814982 -0.37885642169085076
Ni 3.5165165259514137 3.7491374712395604 7.862195671036204 0.3809086762341891 0.1450564981534276 0.4474999910011777
Ni 7.937490406847867 5.387084376074058 3.4609405057104814 -0.2597138151897076 1.4716547123250396 -0.8846759743685281
Ni 5.071239500318499 7.385083415015938 0.4244392893203098 1.6882598692507313 -1.6051170778829644 0.578503610605965
Ni 4.481791015204243 6.195244872739 7.748201210410105 2.7191331402453494 -3.5565000451152686 1.2626736476035092
Ni 4.266854810632485 2.8956489170708974 10.47929660085045 -0.29443013562497033 -0.05874250814653109 -0.33815765841990797
Ni 4.684278999687322 9.241723957644533 4.4149289149788515 -0.19156364057603137 -1.0737119634266992 1.0611043019650177
Ni 7.085214520614042 1.253301497533465 5.722195972988271 -0.6156403675572623 -0.2656435504105812 -0.19996677703806207
Ni 5.3690321602259 3.933343567917126 12.913614481434907 -0.37268217455933883 -0.9148296151337729 1.0029788585771953
Ni 7.870270018369 8.657263947444042 10.968217670230116 -1.5010887013154406 0.13503742335452873 -1.0279532691343458
Ni 1.5133360876515887 2.3865580563962534 3.5240019943855505 0.00010824344309013617 1.8848932110401861 -1.0494842012275862
Ni 5.786686021238092 2.0802767209449864 3.9772504153487303 1.7159408801057674 0.33889402236530025 -1.8578999702807937
Ni 2.5222666225585892 5.488764745034573 6.395514226114023 -0.7905499445163804 0.5508547385404449 0.6562519704310376
Ni 7.756683455139166 3.8363760675215497 5.080381362909086 0.3249049071750598 -0.863915344782409 1.2460386101499896
P 0.6759310013126304 8.649298923962947 11.029880916028805 2.5416419186019836 -0.19661945783238396 -0.08219945361789069
Ni 7.866236978797835 5.3396433365626645 7.5504646793808 -0.11142775435538875 0.1793971804168265 0.2841696342392267
P 4.181628140696932 4.411428714348751 5.585706522170926 0.6842862508604345 -0.05486734146184099 0.8112663511281254
Ni 1.027837130436522 9.246501134357532 8.854208569564383 0.189575406501409 -2.3679291901644444 0.23562180723751033
P 7.775975899557045 3.247001077433647 8.31583361563906 -0.870703828459152 -0.2043224829035965 -0.5242919004502519
P 3.077797153010556 3.794686013822343 0.8295714352174699 1.9354752948631122 0.4397542856174878 0.47484932954840803
P 5.115667243749386 9.036617712847598 9.317931869158642 0.709940461093429 -1.0953444540948105 0.6812767746101492
Ni 6.565604684292507 7.791483350117702 4.5808246445281915 1.4359426036354108 1.7206920216375075 0.038464988844417625
Ni 2.6725363908172763 7.7429306983327075 12.07815150116735 0.23262004429670907 0.1862499416726018 1.8348538870946078
Ni 5.3506584036374445 7.657207936969265 11.657388800540389 0.8439481576318626 0.22300411847349982 -1.0546734587380093
Ni 3.8845888048096584 1.1425904272097238 2.589295005281106 0.45011840246063123 -1.5571091825451182 1.3932990579332716
Ni 6.827577705730712 4.2789171818328064 1.5507726167005678 0.014407433674581638 0.7132343013533523 0.49645585207459014
Ni 1.665103317072235 2.3416893428072436 8.444053957303769 0.16678643363135146 0.9495114827866742 1.1301669610906344
Ni 6.379120241797973 1.9156937963038918 11.004750210454944 0.31660744305295796 -0.33556650065396404 0.2734175379290452
Ni 6.035466685445787 9.279298289867924 1.955562092037353 -2.9367315143222457 -2.4879539421602246 1.2430486742837301
Ni 5.8420737104739935 4.710323799651459 4.098237009044565 -1.6363827207654658 -0.5534993752521434 0.17759046622539093
Ni 8.831245048580131 6.83956658190468 9.046794936621943 0.6634616008055992 0.7874538220895599 -1.2979764366698614
Ni 4.086231596489668 6.370980667629286 10.25016483193845 1.7278139773942693 -1.9728125978609892 -3.167728678303551
Ni 0.2555890597115464 3.002685236076948 0.8321483545790008 0.8653528485598838 1.048877677991839 -0.5732580459363095
Ni 1.4751462345824828 0.20233272623990672 3.3841106425358527 -1.0951662766457333 -1.8080305962541765 -0.7359823936831453
Ni 0.34230216655510554 2.8703666280051823 11.540381962521613 1.2822610828171337 0.5992570411032324 0.9195450183315712
Ni 4.362490213675398 5.438117484998495 2.0548869454032284 0.5669876395465654 -0.9598010376381405 0.5365264948432309
Ni 1.4995741439668349 4.911764480008995 13.125871792296067 -1.5005976206116352 0.6671714455570188 -0.03920778054771312
Ni 4.831627340648446 2.0249992742486165 6.0180061045597775 -1.5542514013813489 0.16080501923693596 0.8912752248526006
Ni 5.880649412431456 5.111992492431694 11.086124822321727 -0.3517410535312975 0.6243240113741892 0.5609851421062274
Ni 1.2145236842535287 6.474480038492059 10.652506922897654 -0.14991434046636115 -0.8383549798148013 1.7622173945748036
Ni 3.4173441747652227 7.889286856438052 7.42614416755199 -2.7650299027774636 2.6002152481605028 0.16440919164842652
Ni 2.3782898659314484 1.681621324245257 1.1946598160057493 -1.3460817768175204 1.0159747566162312 -1.3170601927741898
Ni 8.646478552326618 7.739044648814248 3.3516120605700213 -0.07427891321923337 0.7432411321280877 -0.13119002458398052
Ni -0.21377773921885593 8.953641828094131 5.548258968867994 0.383949519943042 -0.7688336358852115 0.23207342776461967
Ni 6.782369077644817 0.27671428634912365 12.756713624423446 -0.9800145364715379 -0.08801477474808714 1.6062447637295048
Ni 2.197161373482449 7.938528524095115 5.275266286915862 0.2014096801321757 -0.13749745485924708 -0.4148703778916145
P 1.152300957566723 6.544236005380133 3.0871438829871036 -0.12349368438098732 -0.19054008440752349 -0.7029678864303377
Ni 6.429271410406164 6.946005753821605 9.380012199231887 -1.5158128948994924 -0.30434945162121135 -0.5886196159940443
P 1.1290122210908549 7.625880681985948 7.137486939420371 -0.40138699869319905 -0.014073190263614473 0.6024809473571688
Ni 4.540394111843123 1.4140534939258667 13.380282175522465 0.3226950440079346 -0.24509477972495208 -0.25357402084055686
P 7.696151114058497 0.5945168858691819 3.3292107765373755 0.4126725989093474 0.5687336757033947 1.0029413204710405
P 7.087015148759711 6.930029772467943 12.986572075408517 -0.14566507827170394 0.12035385320042498 0.635146298800674
P 6.776599718076041 7.213610331654173 6.963926597310157 -1.6712170548358315e-05 -0.18909203910708725 0.07970394088954659
Ni 8.446085176094623 3.122215709563148 2.9472791730844587 0.41349535192095876 -0.5042820329872283 0.7486270790303494
