# total energy = -340862.77058493206 ev
CRYSTAL
PRIMVEC
9.32670016560781 0.00000000000000 0.00000000000000
0.00000000000000 9.32670016560781 0.00000000000000
0.00000000000000 0.00000000000000 13.65056844966752
PRIMCOORD
 96 1
Ni 0.3471481733192836 3.6087334524840564 3.7109205099210176 -0.04478347486327771 -2.0063197284795 0.4459581004353546
Ni 2.194852344441618 9.288675185625841 9.001253334676571 0.9116298772495525 -0.3671486463356193 -0.6340674639141983
Ni 7.331513794305776 0.0462595000348276 4.755584606767923 0.1756019750404524 0.20682750871363736 -1.177501741620856
Ni 6.867025473828652 1.0609681013653196 9.671823488823637 0.13384134616389853 0.5669048500247721 -0.7921388862700551
Ni 0.6215816616506582 8.653685459850893 4.744677963621745 0.300735766128024 -0.9932958269614762 -2.0760423897866183
Ni 2.3449189497280902 4.055463735890611 10.623854799859153 -3.297463972718876 -0.8916817162623999 0.5798837787829433
Ni 5.372533696457999 0.8020486460503229 6.024241532237671 -1.4420266050459618 -0.005334524839035975 -0.928212207088266
Ni 0.44957679228992564 7.491905056649558 2.1581275299620644 3.467846094121285 0.8253289998687786 1.7672246179814084
Ni 2.8734630467811924 7.749629761676351 1.1365861881074661 -0.9294105982717412 0.6890471625841875 -0.15139272478410057
Ni 2.8206086370758823 6.407303097124144 8.688832196666402 1.2096927245311038 0.07355874722375719 0.6829117391104109
Ni 3.9157777478623017 2.6994827823303624 6.00401098695943 0.019165002964225058 1.0481829659176591 -1.2309431492694478
Ni 2.0195290351703243 4.735538730152497 2.628390010497165 -0.3072547981934644 1.3914869444251972 1.2639774540165973
Ni 0.29729602838971714 0.5856262999328283 10.34149361640699 -1.3989470002476683 -0.9794404091356229 1.8142107569229595
Ni 2.895399445515424 1.1543376964879348 0.40552119149867744 0.7928084015332539 -1.3984898581055916 -1.4696685351329462
Ni 1.7491013645499838 5.731331850924786 5.624334081554526 0.011988796930759998 -0.9439180478592969 0.9593325826421544
Ni 8.26017332745519 1.7445685882809205 12.228028570900966 -0.5751933152858094 -0.4074895120465111 1.5733474987808516
Ni 3.0702470930794705 1.1128898410564194 11.047951047360849 -0.838990299405955 -1.3607625187581467 0.17443880797028666
Ni 7.853128153153293 6.4729817195248485 2.2921895178046845 -2.712322802191735 -2.11310047098118 -1.2075972754546558
Ni 9.281232478912441 8.535516169050421 8.215226094130356 0.1724523736678772 -1.243728216849258 -0.943148516683124
Ni 4.005715117332622 8.21587150178019 10.314164519650593 1.237919580587281 0.6834133613371779 -1.7581326829824688
Ni 8.790862565540976 1.48725425806038 8.175379633113241 0.5902154997262545 1.315414943861283 -0.3263899763610185
Ni 4.224743343469821 4.917530630025396 10.226268764841379 4.093597067749989 3.2793202119303135 3.4232443962515107
Ni 3.274968161198679 3.5765656636939354 0.7859013300942961 1.6235518875493846 -0.20126878367893722 -0.7324383850856289
Ni 1.9641004562257929 1.3518865321978653 4.815633632962853 1.0815456005385051 0.7720493146090317 -0.6478303220262456
P 1.402745028072765 3.5215754396560834 6.100657051841967 0.9321729915082269 -0.8644511626812209 -0.33563283511552516
P 7.713386204924131 8.234329041361416 9.644808701862031 0.9202407588470151 1.4950617783950704 0.22846282759522588
P 5.351604581339114 4.822836643482601 1.435821237456727 1.1592944745842098 -0.5234354659872275 0.7477050814367122
P 1.001155973353999 6.537354603905659 7.766886954949288 -2.309285155268991 1.6928636865713298 -0.6590989529615294
P 8.925493482092266 1.974826161389214 0.7580676588602115 -0.20004596701542965 0.992563576781142 0.19464202239103898
P 8.046629201001549 3.531760196211262 8.235674884191923 0.10600195535412711 0.3043836472932564 -0.02278665887721237
P 8.11773596288496 7.542763552524458 4.062136057172274 1.1662696203504623 0.8717492390045309 -0.6856713041334191
P 5.768265583487522 6.62303899811118 12.216412165873972 0.5815963905986758 0.5198762878810594 0.12066418535199218
Ni 0.2846639457172498 4.08425525922929 12.583666839359607 -0.7231320200830385 -0.37716643558293755 -0.9640017059830495
Ni 2.5217625111225472 7.138618981966755 3.7888786657288183 -2.8978057837913256 1.8612740289593495 0.052146342986252134
Ni 8.64329551589259 7.178649178976671 6.15166943826921 0.4887068042567906 -0.08061308296737729 0.7770074299452554
Ni 7.255240040543639 0.35801098097479356 7.187160725526356 -0.23439667658115765 -0.4576910726015666 0.8177959247165271
Ni 0.17377974039777522 5.880195311892926 3.8842553667220145 0.7783798848127498 0.7795769904446445 0.6645021262549717
Ni 4.377598632098783 5.477962714864355 13.303270254163763 -0.9867683102556037 0.027717263409610327 -0.7173403531019259
Ni 6.1538873275630035 6.80818332263211 4.1950378035172164 1.2322634107427681 -1.5788602010689645 -0.6231500456707462
Ni 7.337370961995017 0.2583542572863852 1.0581812833628585 -0.4264166879683173 0.1180005224769 -0.7503633449951658
Ni 1.1874847887929767 2.222459376862249 9.234855462455824 1.670284515719233 2.2199454910618925 1.3582081277674092
Ni 2.628674474851499 1.9028613430927304 7.621030422106962 -0.09625978836569873 -0.6052641665292608 -0.9153728892317526
Ni 8.89463143132204 1.693896626408863 5.15674836396021 0.31903173622373443 0.7696363342921649 0.7822028581032657
Ni 7.304046662387275 3.2880535214980533 1.8807887745364242 0.6320450341675308 0.026015450227155196 0.42686508835964554
Ni 6.776220721245115 5.771949630043654 6.547385469908494 -1.3122257475000239 0.8128154407828002 0.6533967603704295
Ni 2.238762448710649 7.927657813988855 6.710442303152891 -1.9556494558181416 0.363864833378025 -1.4579962410013407
Ni 3.4425689627523104 3.260922150784669 3.4986951788674707 1.0463137739194046 -0.9200821217819637 0.5831812185872924
Ni 3.742674193224829 8.254390773367085 12.549459301248408 -0.2683990016685313 -0.32032371556228056 0.9484521882842245
Ni 4.7574191686858756 2.377254619120769 10.280570678408743 -0.036495780933188754 1.157775466836522 -0.6917964431945506
Ni 3.549667460484104 4.005920304735748 8.579232277956496 -1.1052159475722514 -2.3054004755026036 -4.344373985461383
Ni 4.439770415246056 5.121720076236505 6.38674611734093 -0.5788432533335708 0.3722134624530364 0.897910213670615
Ni 8.967827374037281 0.6802680569548267 2.8634387094684577 0.26620893599574796 0.72186343778326 -0.052026529578936206
Ni 5.7493137287987635 2.6512823959959624 13.77383305444344 0.9747787419938955 1.5942194571338544 -2.2336988360922434
Ni 8.46671310210211 7.327633887046659 11.86538781597563 -0.3481919027274584 -0.8513146252992629 0.22549603165741808
Ni 6.0125784937099676 7.168305868519076 0.8764794438643793 -0.12147819661285529 0.534323316544325 -1.1118769045321948
Ni 1.7706553685783888 2.3795303339554428 1.9356782702127415 -2.483963590053909 -1.0234489535060889 1.1500287330115677
P 6.5477818546645326 2.793701107165909 11.256039986901373 0.0399819397095763 0.18973687177993773 1.5789818142484937
P 0.9141276016580011 0.3496412002672683 6.491760097590964 0.05103382664836372 1.6579540191783382 2.443904260139178
P 8.622441014374841 7.629380616744189 0.5085653726786984 -2.1039347453215123 -0.046266487166707414 -1.8921810029508508
P 5.0056306395677215 6.165405802238504 8.241981598828014 0.2734239656869485 -0.02399533447333287 0.45798546391353384
P 0.44572486513123616 5.597363130083586 11.149046880881182 0.055779311753149104 -0.6106174604213742 -0.4676294147612011
P 7.838634461132461 4.573216840879297 4.235388839012019 -1.9194776338832746 0.21793673125292146 -1.0127760471732752
P 3.3900876210526842 3.0307112111770866 12.21032462869122 -0.00454056818283089 -0.3822834450945287 0.5190185678664545
P 1.5928418303691532 8.78941692701895 11.856201016335657 0.754956363682487 0.49929897795034 0.5065152931931212
Ni 1.116667154613972 6.64235459410548 13.052810115877655 0.4341675355583297 0.41384579328184207 0.7040282093740521
Ni 5.405531561560766 8.72304812880773 2.758070314613024 0.27722508460059353 1.1646637093159231 0.6145731026350125
Ni 4.443314561300056 7.714831843446158 5.127563253875533 -2.1103499048192367 0.7647805488617603 0.8824990213218672
Ni 1.3158481628487706 1.9804221814744771 12.343730949513851 -0.1466827209029409 -0.39019935750749574 0.5356978282943483
Ni 8.151088242593127 6.169612144002593 9.08977677640535 1.7073253705226143 -0.642216575383894 -0.8686536307983428
Ni 0.05065890449185863 4.716801389567007 1.01978512421784 0.506596797163334 0.22402124688410452 1.8952611845380714
Ni 4.214829061218762 8.184729650005702 7.485767155286038 2.7209012878893657 0.6636963425242247 1.7278535723829533
Ni 5.571434903688534 2.3255194134325117 7.825665684584864 0.14503927176224699 0.16947092244205006 0.0270721736264437
Ni 7.068351623096135 4.952953437165111 13.671180594669387 -0.021475653375272692 0.5476521724427472 0.3518413265545876
Ni 4.715943333153933 1.8069362321311782 1.7817951792281195 -1.617290222910389 -0.4914977367383665 1.2938701278109717
Ni 6.227931999991177 1.6585670862705684 3.323381196296319 1.6653045460061384 0.46575662321852046 2.1125831650251294
Ni 0.9254035821298063 7.5039644799333 10.177823086293241 -0.8013912581062586 -0.05241476615629038 -0.9133188349162011
Ni 0.7004771508227404 0.06767453623111537 0.7280384824126755 0.2168848929496394 0.2578479656255624 -1.0240521343077267
Ni 7.1087828682121605 9.140949582075036 11.554181946993978 0.5266598864617963 -1.3339109457829412 0.38064565238078957
Ni 5.3658184723556825 0.7577542817354369 12.389024203413957 -1.475638379563136 1.1400975899407848 0.5101528899457086
Ni 4.267683470924073 6.74616076668711 2.572408358234207 2.2750863979000946 -2.7571165614676576 -0.2645364333893315
Ni 8.435440676525632 3.1590652585327383 10.426631465984183 1.623056950190837 0.48169412038438325 -1.5932987450917977
Ni 7.170189861947782 4.982658977117716 11.31985699995371 0.03923503424122275 -0.06357386809690341 -0.07372252649513109
Ni 5.5956936507581485 4.198414068968658 4.540042701143844 0.7431046065502235 -0.41816936035786045 -0.4207152667081658
Ni 6.254475788595608 4.510569396024777 8.93582560050969 0.217975812020973 -0.38517207949623344 0.11274055962954131
Ni 8.639480895534467 4.4334655659499935 6.284366929881041 0.7264402585206651 -0.8150427874514221 -0.6920674374677501
Ni 2.733254763544925 6.51653740918848 11.08559920515447 0.02146176941820175 -1.2781426897733859 1.7499403769796633
Ni 0.8256666488201759 4.564356475744297 8.151764428353431 0.48334425439329654 -2.247977971719077 0.8472291423759796
Ni 6.207711714083093 6.874850575247877 10.153688384335517 -1.8412502775392545 0.04277312930146827 -0.2998615910531868
P 2.452399842165711 5.507425760613266 0.8335728925306384 -1.009450839454784 2.233330654119547 -2.035774286295191
P 4.851870661024975 0.48843089241192167 9.040061733967871 -0.9412793246848692 0.2994990655074455 -0.662848906922265
P 4.212861127488779 1.239891516891466 4.207460035436486 -0.021043450933860532 0.3052812194068613 -0.2209215249128582
P 1.9671875939728298 9.27231615357659 2.720912741246877 -1.0154402242689995 0.23354718409666872 0.033505073735981
P 7.009173710694477 2.6929634189310305 5.615584704151217 -1.2805556700902527 -0.9987586498482606 0.182725216348795
P 6.336858530950824 8.120123598121339 6.128763995390215 -0.7292471318418409 -2.490277705197395 0.7934959145185818
P 3.6200747198568566 5.473504552196429 4.444092408091908 0.7102870457995704 -1.1455005061239112 -0.7822637932481882
P 4.787488449944023 9.259389347179631 0.7515893329415052 0.35855961911502765 -0.6669966105420512 -0.7100047386724612
