# total energy = -381167.6342342122 ev
CRYSTAL
PRIMVEC
9.25050721797910 0.00000000000000 0.00000000000000

0.00000000000000 9.25050721797910 0.00000000000000

0.00000000000000 0.00000000000000 13.53905236910997

PRIMCOORD
 96 1
Ni 6.024624005650405 4.443527333667345 5.765064027185786 0.09407872155397991 -0.11097524019900241 0.5685989498977433
Ni 3.9996417509087028 6.26253779752223 0.008283829099934647 -0.6072734836498058 0.1947204410374582 2.233475150117212
Ni 9.171008232998112 2.106506973734135 0.9526579224559573 -0.4043226842827553 0.35267847774390226 1.1833913676324135
Ni 5.74211351909317 7.76787281643051 7.965187057730919 0.5801462884157105 0.523122305622183 -0.4777310219715773
Ni 4.313132185713488 1.1532607190271944 0.8301969344339976 -0.5341906476212026 0.4013558883449475 0.41136416451056895
Ni 5.810678277651199 8.742793009251518 5.517705467574114 -0.7285768452476936 -0.6353139347267898 -0.022910843159902477
Ni 1.7079303747069055 2.6139897927429736 10.260503356546053 0.9003792440363977 0.27279790206717536 0.40756998757545937
Ni 7.021199635571297 7.103529148680643 13.475554098029793 1.5305211476439449 -0.8577529247254388 -1.0782766999792461
Ni 7.0248628363793095 8.379377587676942 10.027916006657193 -0.8412135323095189 -1.1832170468380783 -0.5534610658150404
Ni 8.327028968049326 7.489016280174196 4.262715997017169 0.5875983738183815 -0.28061251301558765 -0.7329639185717958
Ni 1.1891619370471231 7.032290993573332 5.319480051325248 -0.5981676646937957 -2.2500968178342924 0.5125710124688978
Ni 6.1606527124226425 7.960588630656014 3.226491768653809 2.138849040700194 2.790463255248904 -0.42172956690529306
Ni 5.662161386306195 3.3864811388929934 7.891033142788545 -0.12846671211554647 -0.9741331379900964 -0.07785788881974333
Ni 3.4553419136779326 5.156611923279363 4.997602181741109 0.05947835787129112 -0.196217594408275 0.2863686987730746
Ni 7.084454603059129 1.0244751593071606 8.310527913500511 -0.45742599186563804 -0.5657275418872192 -0.040476619957807713
Ni 8.571455116913171 4.85635896412171 5.224490294211246 0.45336493442238696 -0.24344541704698716 0.4710988613670402
Ni 3.65431107069691 4.280810913937752 9.171801001455805 -0.6200318117567386 -0.9230445468443974 0.08877582128382776
Ni 0.5585298922887595 3.5536193010120543 2.905805364382983 1.3587722278009953 0.6978709315234045 -0.2890914970208763
Ni 8.92167931537607 4.1923113125987514 9.78503839268037 -0.00985555263784109 -1.4913938426251798 0.11037720160368732
Ni 7.547831004258377 0.7964159326393115 0.45432848021360167 -1.939480816478079 -2.737076869207964 -0.05944030554450408
Ni 2.0646946816830973 2.4855650027994867 0.7963891061687478 -0.45613041298266604 1.0573150101259146 -1.1335744441102864
Ni 3.0381995469191914 0.6361240708182535 4.41325689931367 -0.526221513372797 0.5877919778864263 0.7688981705745597
Ni 3.3035688438369193 7.582945929175576 4.93292633636411 1.571606604830345 0.5482944340124363 0.1137882841677653
Ni 6.884967417643059 2.48323387501257 12.54677543457838 -0.08660606732601858 1.4970911501202733 0.6674270132112505
P 6.245128343177085 6.308901339062009 1.950733984627 0.10118525069177411 -0.7929210158517183 -1.3545175662896995
Ni 7.004511720779246 3.101889288240297 1.2674203019857464 -1.238039651104913 0.4704074917269705 1.0019653297110163
P 0.4682717695517719 3.0307806402322592 12.634332409244815 0.45983408708649837 -0.1931260999671448 -0.7177126488396801
Ni 5.468992297233236 6.166933806737389 4.081211797385882 -1.3664749957618918 -1.6950838341510999 0.6519983373610062
P 1.4403779581157166 4.442158258617886 5.092782499301184 -0.5513226793157989 -0.5757491877892794 -0.010667764126491305
P 4.408495663313964 6.4559103977511905 6.450668135382755 2.206169006103091 0.8758257230667498 0.3345429444854561
P 8.948330026305062 0.5404636519401583 2.804790752000653 1.4911709279810963 -0.0983765775983854 -1.245425916266655
Ni 9.36012559996524 6.289049750844857 7.142933533735909 -1.6113437755189668 -3.773911499992339 0.3822374223479417
Ni 5.100970123127373 7.168014433611568 11.773492245021378 1.006005561218661 0.27342679390042585 0.22140334964528322
Ni 0.8266771164858959 8.257159887991474 7.538842286518113 1.844733865212481 2.4089123174450258 -0.31683961366842206
Ni 8.212544692291882 7.976999030235337 1.8045935485536582 0.3191772606626632 0.2951107066317627 0.093637006030871
Ni 0.625632145675712 4.945783616169804 11.514327263209543 2.5085621053288794 0.6613571528680868 2.1614950602344836
Ni 8.190250970202722 3.7841974407607655 7.808282731606562 -0.5159754101647566 -1.0056792882274939 -2.504311814692958
Ni 0.36890467248233816 2.403651762509234 5.160206670334902 0.06243126985202797 0.37192909844339817 0.5676106178425451
Ni 4.001047827986525 4.715862262424549 11.81077826395282 -0.510981556494591 -0.06232225507798943 -0.8100144809988953
Ni 8.400440992323007 6.334497492182633 9.447929563171003 0.5926853014229857 1.2606221643911193 1.1081860859441688
Ni 1.8591669151366448 6.810325075926283 12.334117377166233 2.9098015227006213 1.7077138642102847 -1.7372967200737242
Ni 3.5757002614381226 8.35409595179741 7.650918655279785 -0.6341055162409853 0.1892373064356999 -1.1582956010060501
Ni 4.041944319835561 3.1547744372791873 6.293317009765906 -1.1483549448535708 -0.6182556936929223 -0.21749347306791575
Ni 0.7961606186436017 -0.017270696738780553 5.123041833046351 -0.2355894113376781 1.4707640821899701 -0.08127771313456969
Ni 4.4829529948889215 0.08934047243356653 12.406374938154965 0.3482224988550777 0.49573825718227527 -1.2363923453094772
Ni 1.5254918738594336 3.7303594894915086 7.271932780169744 0.10504524786781264 -0.04391778442887275 0.011492059799999562
Ni 6.925281127545365 6.563031269864248 5.855532136433737 0.2669393864038693 1.1029040116096231 0.513297092001645
Ni 6.057546560387052 4.939104750050146 13.14099008302114 -0.737635355905536 -0.7713898266481618 1.300735230361921
Ni 0.7210631519779519 8.955055144960172 13.55218529877112 -1.6707956510276967 -0.770134614084822 1.3110019023952517
Ni 1.5553432602418893 8.115756636599402 3.38225828240598 -0.9076649790645337 -0.2749774262169974 -1.8331960397762106
Ni 3.7129500351463642 4.973313125272434 2.5380311038671577 -0.3244508503567767 1.1874107732044517 -0.07474582555332289
Ni 1.8026833188393796 0.7995518545431395 2.068943439589965 -0.44556600720325845 -0.5435049830435931 1.7057521124982236
Ni 4.881335333267241 0.553355158622089 9.431709724037752 -0.43206180206923656 -0.0820071351014265 0.5730649560888971
Ni 6.577156794192109 4.037929599758094 9.790603497746279 0.2086905300643051 -0.4094499782069916 1.0415824298820062
Ni 8.829794028441787 0.8203442193314399 11.952681042727802 1.02417477592852 1.0705569627374854 -0.5800411302964139
Ni 2.371867020144772 0.14631619570806959 9.270134816883182 0.6401951740784909 1.3793495377317146 0.2950438579495693
P 6.667265983764933 9.303142476285064 11.942093837362226 -0.25779217268696253 -1.2615824714218595 2.2580014173933503
Ni 6.170421247910673 1.0491277607045093 2.412307461994224 -1.0706168694411433 0.42521726834357737 -1.4219334338405125
P 9.008476823410337 2.1245917150969182 9.549553783970625 -0.9312355672956221 -2.145706172831343 -0.4868545815394002
Ni 2.192592192722401 0.9622284970922413 12.41818136035513 0.10360054500148609 -0.0118170472395861 -1.1838973607345546
P 2.7476503696999313 6.902728391257659 2.2212706148057255 0.7218369554206988 -0.8600185808311639 -1.0785276396477876
P 1.436844264406978 5.137537377657849 9.14684868362871 1.042271999749863 0.08214057535549725 -0.5130083571166326
P 3.2973155010434456 2.751951855497217 12.368100040015502 1.0064403347632345 -0.3791194455442503 -1.2215935897337478
Ni 4.131701990138929 8.679010762859503 2.881069508421816 -1.5126275551929753 0.017720300097898514 -0.8712553300872479
Ni 4.129981395820014 6.690031481715731 9.626915774772137 -0.32097626154461495 0.03496777432443655 -1.1550349279769077
Ni 5.521821943229581 3.8556576080382587 3.5941716739973066 -0.11452490522347375 -1.5667364212222372 -0.42254177839394325
Ni 0.23175202909855133 6.665739650094928 0.047468052086437354 -2.4949959366086705 -0.5076352657301774 1.4030841623444932
Ni 7.678605423002962 5.368994315580201 11.682022305855476 -0.6720300592009006 0.6138182267468589 -0.7696959838855066
Ni 1.9063630023146085 4.915802722688075 0.25433621711036647 -0.5021323336340772 -0.2880347736215878 0.30642973118900774
Ni 7.456038222395002 0.7110328271392481 4.166020446395597 0.25026423974103346 -1.6217695988379812 2.372037041685231
Ni -0.12245913792054143 1.5332715503229122 7.461168553627636 1.425343745073642 0.1639530779476144 -0.3813930720697754
Ni 7.028637043272411 2.180437026404909 6.251995919641397 0.24359736924381922 0.02787384359213264 -1.2682393146167448
Ni 1.628339011696478 7.15570200867353 9.93807045653646 -0.3762984311556874 -0.6296587933235415 -0.5148657220403455
Ni 3.852725197290432 3.6245984419208184 0.6600394068004545 3.461814286104909 1.7864459281048652 -0.6317485859730346
Ni 5.048121976116847 2.6317507663575737 10.963274555802386 -1.0325758555080218 -0.2259143501417593 0.19067918108854903
Ni 2.1419179148782446 1.0970361369284753 6.58829255462818 0.903622947784676 0.6753776355168949 1.0672718642283103
Ni 5.433081828706216 8.242766098957976 0.8600076185852532 -0.9480778356639414 0.8468900138690061 0.4822037130309502
Ni 5.235685257892698 1.5413472430133006 4.47477832177266 -0.7306326993354578 0.959387861360122 0.5983131891327244
Ni 8.105146304966096 -0.2663887027991491 6.1773683787359674 -1.0757958425389214 0.10530518639741863 0.9160465182600095
Ni 8.539485364406891 4.438217542597147 0.1768798711365275 0.12842943111970784 0.6132261016888148 0.4125317024561089
Ni 2.806113574514657 8.49310332185293 0.6216525775251905 1.3677559193568443 -1.30635180521775 0.09171870596223558
Ni 8.744421098499522 7.648439519379415 11.567982979489107 0.4676394420635301 -0.06031653750187031 0.3825423551828702
Ni 6.765793134790509 5.621107635836615 7.953475915753792 -0.9830170707432877 -0.3801509721325582 0.15994935610486002
Ni 7.096239749092984 1.5025136142455446 10.590084123384816 -0.09822128296744374 1.3885903396036925 -3.338194103448386
Ni 2.580743470258144 6.235165547040146 7.512806734310669 -0.6256859247187224 -0.7892319970359053 0.3119115802391854
Ni 0.17971700166131807 9.016515514072363 9.62599534931659 -1.9806637184742921 1.4255108667791256 0.5427809603933749
Ni 7.6074597729665605 4.988372950816481 3.14061376102438 -0.9898544053800952 1.0281766979990614 -0.9648563406738608
Ni 7.84512380114693 2.7464478037781097 3.4908148332195514 -1.0068990195672076 0.14629319877400612 0.25649890779683565
P 4.193023601644754 2.467230497745248 2.4584073640819115 0.6218138433578259 -0.03138545628981691 1.0906131100574121
Ni 2.8546694862349886 2.9790888066081 4.084257989370927 -0.2232000365343898 -0.004907978824578644 -0.24071130594527576
P 3.265123736366982 8.233080818033763 10.923496450260645 -0.24593784445153774 0.5517919056427336 0.7478146104313831
Ni 4.982369371714462 1.0742151359351324 7.091809681247134 -0.2815661351781086 0.10977093547825612 -0.4027203727926419
P 3.2983515578376306 2.0904203419029947 8.267540807048924 0.33519060537178397 0.24785125942416672 0.24120701463477168
P 7.974131373037147 7.801692670354979 7.9034889505864925 -0.7803133543900367 0.26579755948994227 0.6933820425141155
P 6.053633595887585 5.993422045232672 10.303313778312205 0.8024731783165276 0.17365359306482994 -0.658000577691028
Ni 0.2188549721123661 5.890038377984354 2.1665057627259565 1.2720833709531834 0.39562361384686057 0.6670467470536964
