# total energy = -340860.1856229228 ev
CRYSTAL
PRIMVEC
9.37283743933472 0.00000000000000 0.00000000000000
0.00000000000000 9.37283743933472 0.00000000000000
0.00000000000000 0.00000000000000 13.71809501339533
PRIMCOORD
 96 1
Ni 2.7502904578100282 3.5548923214794437 4.295080296608231 0.6802971843056994 -0.8362430756781212 0.6782099627593674
Ni 2.1016807289089137 8.38130378029397 10.655558130819628 -1.1782005674600933 -0.21230935776381504 1.1132496165100054
Ni 2.9219071127164513 6.627270967667644 12.170968810425904 -0.7164705489024629 0.5869396571884601 1.7242774249959205
Ni 4.887512986577224 8.13915652308439 13.334167001879608 -0.468673025534367 0.22797071845015576 0.2405470124532696
Ni 2.0477587946829905 1.2226772810424915 10.032907412701082 -1.7278846827312049 0.772532167782721 1.4227279047173498
Ni 6.820285810621656 2.4546524169002297 13.196149157614533 4.680366775019488 1.6361641769967563 1.800465125202093
Ni 0.7699729781851301 1.5687036964349181 2.2465163751826704 1.2573275528002477 -0.36236922266910493 0.8389658739259228
Ni 6.430235177419537 6.419372058739223 1.6162661604066628 0.08966465164668427 -2.1324881314791724 1.0847556228353705
Ni 0.4423182616065798 4.200596470750793 4.8885393122851575 1.1185152357843187 1.9899819105514245 -1.5176903144278635
Ni 7.230272469218967 9.086881615613503 12.529737598420477 -0.6913243886541384 -1.0722706029944824 1.3392503557179838
Ni 8.87091269358435 5.492679613594599 0.9358590802346564 -0.26204297754351646 1.0594122589745754 0.6709314268200831
Ni 1.867603484800065 7.032111938469017 2.9412695204557027 -1.4076033903710854 1.2287780232973289 -0.25445950876930373
Ni 0.39196644119026103 8.70991546358284 4.356565173425306 -0.25997272527804904 0.6061877067847946 -0.8889614891177593
Ni 2.8343179461353194 6.311209513811855 5.559765698110859 -0.21594129808944745 -0.9624366754887748 -0.8290097911544754
Ni 8.90398943717609 3.856791417849509 10.925502412248541 0.6675882213794632 -0.33940927143882194 -0.2173345788925483
Ni 8.469773993601548 2.4608009983103125 4.1781616468740035 0.5193474119607829 0.20963258226260026 0.7829981003110515
Ni 0.14179228593251622 2.9636912223599703 0.3920339256203717 0.17996745109799972 1.7311178449565219 -1.347230288599667
Ni 6.17566891050209 3.565614847597027 3.2613397369168156 0.2360414112734322 -0.9349094166027835 2.0637142072385686
Ni 3.8299944753930664 2.1273435580259967 11.349309319762266 1.5452342854844034 -1.1563094238139568 -1.605133790053513
Ni 4.658309617976369 4.683644397780413 2.1324508171881216 -0.05413946215688095 -0.5443459908876496 -1.8311998352817882
Ni 3.784939245456683 4.25525885914043 6.840322125378263 -0.16668847460090647 -1.4510038688439075 0.07302344354557747
Ni 7.9156237211803315 4.01999126466713 6.047937755410132 -1.87046083766494 1.8147540310209391 0.1669406998210286
Ni 1.1607321979034115 7.119073124936619 7.667619377807395 0.10927137013401828 -1.8407599681663975 -2.2003202606317975
Ni 1.7742687688220113 2.2800177083138573 12.350250571852396 -0.17385850998678443 0.45695882242123237 0.6756118630148881
P 3.39872210279835 1.9707890530067727 6.394401882314526 1.6580771750197636 0.6253267416070908 -0.570345757385521
P 8.904523688914466 6.488046839214339 9.120653823748885 0.5669092209001463 0.586615698190138 0.8794363232361435
P 5.780922485704771 6.037278964587652 10.422994599969511 -0.4179708711938092 -1.0958347634676675 0.1309192874210971
P 2.1910694802929966 2.784754381354043 1.0548285068172467 0.7734870754968227 0.9492512871467524 -0.7621269132889972
P 4.662874189846353 0.061875724141466096 11.537453099059542 0.059903875444483924 -0.7150243033742395 -0.32474755566158914
P 5.887669732167319 5.101851034878703 7.213386365151277 -0.49291827123497683 -1.2900826357440813 0.9127261956375249
P 7.973416637300103 2.0373736907159605 6.522350487236841 0.3017099571158352 -1.5501646329064853 0.41594329924081913
P 5.806210401321239 2.9661750243015432 1.2096846536786856 -0.8872465633091817 0.4376742631600075 0.12716599102625198
Ni 1.0388384460160256 5.224457122417258 13.009651248584957 -0.17127840796443405 -0.6362176774879817 -2.0842467799742814
Ni 2.123959963682948 1.1443203594139988 7.813277959215002 -1.2994468505678007 -1.7508397488654814 -0.9176169480709229
Ni 6.243453271413245 3.7629411958081103 11.598868616879004 -0.48019516724135364 2.595938218051703 -1.6315122800470419
Ni 3.9762107406328373 2.126012615098814 2.341513832535951 0.23552744775149115 0.28734623219499544 -0.1297340088637443
Ni 0.24928935939629387 0.5453735473718236 6.628501621233411 -1.371567579793451 -1.1229246777059243 -1.090946582137431
Ni 4.2243472410147405 0.5873694831431903 4.842556171434753 0.06866182414277207 0.14605819994506458 -0.4855212074399574
Ni 6.827137354845393 8.684777513366619 1.260816294176283 0.3155252657323727 0.5081379163982088 -0.23588200287743244
Ni 3.2781311753256004 6.208052064117693 7.943586644623687 1.120589344704528 1.1380414787427047 1.6267261715123082
Ni 4.155850544452417 7.561742867950025 10.359836671655943 1.3819946886640457 0.5688735437153686 -0.34243571696997155
Ni 2.6979337874491716 5.34842227139554 0.7545612214586073 0.6576992444005254 -0.6047021233782037 0.6640236439566565
Ni 0.3743108271625587 6.504468050541266 5.295006470395447 0.04106360280952928 0.07603266268554648 -0.05147477084052425
Ni 4.390565141512311 7.007048970952917 2.3686078939416304 -1.9337601119442178 -0.051820327105401076 -0.9727102895006409
Ni 9.015282509833593 4.59463993273446 8.04481235250593 0.9186844701034889 0.2672605171887139 0.33199215303914437
Ni 6.064872598232902 1.4708512727744563 7.331800919752958 -0.816220095588975 0.11045947690484847 -0.1126629123140705
Ni 0.9641369310185274 6.016236944365647 10.619342423943989 0.5435587190996639 -0.11088859402246708 -0.041612019113831555
Ni 9.061631191347098 8.08431605078196 11.462538820650444 1.0561055631988456 0.9373463081790502 -2.4547792551804695
Ni 2.1677592333922715 3.7744604131144994 8.701593321152945 0.1587946736751265 -1.3906341095065986 2.1128515881951677
Ni 3.9466769296219066 1.570044012199616 8.827031880188642 2.9313085435344615 0.5136254218753412 0.34511814889814113
Ni 0.2564014685029566 7.734540500383385 13.5574148695232 0.3099729684555758 -0.8336940840040223 1.2741469383504314
Ni 2.7816425992989404 0.7634166783431289 0.3529117018312177 -0.06441898970601809 -0.4281696661036819 0.21026507364027658
Ni 6.6154893109108235 6.5770700499353225 5.90753264942989 0.9168021654791113 -0.8393476827453739 -2.0810259590441382
Ni 7.498176283920786 8.959532872292172 8.243724584824614 0.9238783555996023 1.7436758841271904 -0.7171197524506875
Ni 5.161265451888633 1.2474121992455527 13.389272725483725 -2.3776171068761696 -2.0480405052570534 0.8406959692431522
Ni 9.3345869654697 2.1437835150279554 8.508360091084823 -0.6515854181933036 -0.2883944709538517 0.3926689020939108
P 3.0849195027837646 5.440838449297087 3.295703371099416 -0.01486637558887117 -1.1460769474526713 1.1924102833015722
P 2.9017648848959214 8.522177528149982 8.597775086413948 -0.12774371790659292 -0.4664467073070096 -0.38687903488501113
P 4.504773166637094 7.722327693100858 5.248008251242128 0.4499728780217025 0.270705795424837 0.13746017386340842
P 8.420369767058032 7.935391035500247 6.165062607569697 0.3817211448331555 0.8863222517226994 0.3718049141607081
P 7.875339265539273 4.9067179306462165 3.812203892505143 0.16023114901133695 -1.3731588355399706 0.8095131158824446
P 1.5521887567328365 1.3461925338200362 4.320651271917663 -0.03737869775877434 -0.21203322128429292 0.6485301763067476
P 5.324390316006132 0.3222859552497464 2.480602054845283 1.0355920166265262 -0.012391945906449627 0.6334280305579866
P 8.247450287736974 4.621202554253018 12.87338987407026 -0.062222753385647665 -2.2654067087184857 -0.13447692286536841
Ni 5.13900496278963 8.59045864944945 8.347420035392158 -0.5227659507240288 -0.09038224653899918 -0.4663901430374613
Ni 7.965309132849307 3.626566409959478 1.9064314014912367 -0.02143451572469212 -0.6920808072041887 0.029884960484890467
Ni 3.6120291389731385 5.252631871988459 10.543302467749298 2.231081195963738 -0.7332601096559759 -1.5972644146077652
Ni 7.978974729946717 0.9822546259357374 2.6259175903998266 -1.7585322324137327 -1.2830997766683452 0.04681618902259034
Ni 7.11366499769025 6.726313741692558 8.06762583901834 -0.6570371853364942 -0.7798006764196763 1.6316032970989514
Ni 6.6403554488391 7.930479668642193 10.35448665600217 0.09915125098088085 1.5913686179486206 -0.3546052624529699
Ni 4.960921049997601 5.642926198965979 13.114306477714074 0.28455092883804545 0.1477013919754424 0.028293704738370624
Ni 6.314883666117879 1.5306031119349395 4.77960350826277 0.6930745385760257 0.2789641787788873 -0.49118457637332175
Ni 8.674308053861951 0.8940196708497965 0.395322854304515 0.024586688200428624 -2.084808566015022 1.1331054748936678
Ni 0.454117726754679 8.71619526471814 8.85103852891676 -1.0319109682305132 2.258938841605955 2.1359125837796893
Ni 3.315800609299872 9.101493869299965 2.593309488683855 -1.1988375269841547 0.2680326194680481 -0.007760360671709216
Ni 1.243297523576305 4.440550483981779 2.461410232748811 -0.43500982895396695 -0.6117957970001916 -0.09171947729318398
Ni 7.85829944693633 6.154120757054255 11.452359919108753 -0.8262512545727319 -0.6846017252183243 0.03311580871736232
Ni 6.379790565911817 8.777709197331513 5.91841170193398 -0.5937865049069644 1.7786212898541238 0.767755058109052
Ni 5.526356218787322 3.76192892935645 5.566885305487534 0.6230140343135141 -2.1285923959691924 -0.09412782962436048
Ni 6.455204416560483 1.3945001383742528 11.205365030336221 -1.7630198358714413 1.0672186423928718 -1.685700336053671
Ni 2.5074589834618237 8.65835548441079 5.7860184974618765 -0.6662016254445816 0.29391694343397773 0.5016983314204521
Ni 3.898472426280359 3.5441697953618605 13.032752481209089 -0.3667529535590974 0.49473192740494804 1.9762177668877963
Ni 6.046520582377807 7.771778783831949 3.6457347999621605 1.0816525584300145 1.7104842278665702 0.4028432715237513
Ni 1.2533170868802357 2.7338411279705537 6.300501984234296 0.4848658332441456 -0.3752345086675473 0.4009936199095223
Ni 6.986044442080973 3.3003635459120577 8.869585499792175 -0.16498666141845134 0.3826835087464248 -0.2976856664477906
Ni 8.361133433960894 6.723783075563408 2.8418134042963605 -0.0342136697672314 0.5156421951950539 1.9242107776928863
Ni 8.95921419581665 1.4880035654275834 12.004197912514927 -0.15281248794976263 0.04675139722292594 -1.7924743936871324
Ni 5.208476434453552 5.655035905035836 4.426170676665698 -1.3571971700043914 -0.016392839535726605 -1.4225875224847435
P 1.2924018193193283 9.349517895631685 12.623377868901532 -0.10085794925934242 1.1671936748266285 -0.8250415505353468
P 6.731796851639049 6.8840398514012024 13.41476028253927 0.7289247155054156 1.1686252650668325 -1.9972074817655863
P 3.0034601719376846 7.394672039238555 0.6181526933949196 0.04823595218825241 1.4797578010481485 0.09729851404285823
P 5.012930925370389 3.1920697812594736 9.818849612241312 0.2610525886057891 0.1814689753441907 -0.22370165876115666
P 0.17433758963713522 8.114449723393873 1.9157180089014652 0.0985454990760819 2.0265476254906 0.3689548463064226
P 2.1173146218845504 4.020084993042284 11.013791729792072 -2.4694926501312437 -1.5244538584039422 1.067885072332277
P 1.73064758302548 4.85343334937134 7.024227507551087 -1.7633509939586147 1.9182283348572058 -1.9715453011127917
P 8.021349328353704 0.372723068487455 10.361976490460702 1.5740208706987924 -0.6643473458446623 -1.7418910243126255
