# total energy = -340870.22679323214 ev
CRYSTAL
PRIMVEC
9.23106598912548 0.00000000000000 0.00000000000000

0.00000000000000 9.23106598912548 0.00000000000000

0.00000000000000 0.00000000000000 13.51059816553200

PRIMCOORD
 96 1
Ni 3.361428131494746 6.664128219960875 12.004383083909637 1.696578930639388 -0.42448990325924957 -1.5278032344921493
Ni 7.991749388841523 2.525518164752628 7.710620037690374 1.4488323151138855 -0.006480722628337226 0.46885197431439246
Ni 0.7440027025475543 1.679195555360984 6.328229106958517 -0.9616689440848146 1.3221111249345359 0.8871869137158398
Ni 2.2435737104579028 2.2808395246211415 4.275631386031145 -1.5500137091509179 0.5872222214258854 0.43194558820634643
Ni 5.981740114836004 6.379211362356623 0.6848389531953051 -1.3973742564439098 -0.9629485821281867 0.04696891255037072
Ni 3.1328853950435525 2.0431949569177923 13.077975465726437 -0.1961404613134364 2.904871175278539 -1.7331803839125055
Ni 4.065546166404176 6.834949099596925 5.462173247396758 -0.7666883074074344 -0.20408902673655174 0.27304344241907813
Ni 1.1212699155229466 2.388436831999569 9.04094129342828 1.2322425848071616 -0.6302028387524694 -0.8625850560067596
Ni 8.959571291276653 7.079600046529875 7.063124439614208 -1.9835772925766615 1.6960264005700276 -0.3409817581322644
Ni 5.93639711776644 7.68181634189311 12.18811360959654 -0.9884703805483752 -1.5348868808118084 0.36916747653786103
Ni 3.4346212552253186 2.9304481137456015 7.908117775476126 -0.5006058696872218 0.4473074153743974 0.3374860862741801
Ni 8.855103315332789 5.381148487120213 9.147661649519733 -0.5760672332503305 -0.7340291266115164 -0.4497527915910964
Ni 0.5740809287573052 3.7490867556674523 10.827082442895477 0.34347007177175687 -0.11495222256887944 -0.6738154332360977
Ni 4.831023098203141 3.2361717945165474 10.15295798821374 -0.948796716107837 -0.026906337472540755 -0.9184019058660634
Ni 2.8421714278791033 8.142308078215422 9.690990204409461 -2.102354545318586 1.1433253528494631 1.268635778724215
Ni 1.3061220157505558 7.178160140119398 12.786403009407373 -1.9048791672438095 0.21054352411264382 0.8870812413759109
Ni 7.383043653954693 7.186338864753688 9.869775647944456 -0.5151716833165386 -0.732332455635384 -0.20225660151350328
Ni 0.8110682445487342 8.72565607430948 10.894365838058475 -1.3040748362581154 0.5043213708655959 0.04770784759892428
Ni 6.933610734914414 0.0006166352207342968 11.012042546597376 -0.6678607583145595 0.9591322937058901 -2.678389125558768
Ni 1.7235231351508955 9.07610427071602 5.450216247375544 0.8565126245604345 -1.1249357945986818 -0.4865424496156202
Ni 5.170634022915937 8.284097254719594 1.479342972593057 -3.1160412772315884 0.39821348606122386 0.2875269807472339
Ni 7.26640913278736 3.226506868227493 5.411765164314965 1.1498101892428585 1.6160342390161007 0.6349624649246419
Ni 8.95553731535658 7.805346469495899 4.385067521792361 0.3297056709978128 0.5389510451243235 -0.4470441344106817
Ni 0.9925150044630368 2.376639529423245 0.7363316865530902 1.208161632598558 1.4933887615680217 -0.5251048832698505
P 1.3706840926040837 0.12795734694207378 3.2059705152998346 -0.8199816195139361 -0.46411240274687815 -0.016864636965822567
P 2.0354039370630055 0.5836175432264759 7.753853736138114 1.373651973126305 0.1045251136982845 0.7675771377702909
P 4.685181483646537 1.261582121438535 1.834887640636833 0.7816729537417247 0.6929668093535679 -0.08728740966375935
P 4.224154345485863 3.2204235956157583 5.801599550785981 -0.20712344268750135 0.015905101266030675 0.4555174619890155
P 4.621967142455092 0.08654401474476425 11.009840937313767 -0.133390374669409 0.22311416168880283 0.45662252212773624
P 0.17674999344260178 7.5271775212682455 9.159482952868123 0.05623465412301283 0.30209150882497005 0.7670027533240596
P 1.7320341781676172 6.89555104905981 5.836888993680369 -0.0741632135769755 -0.11495402234109235 0.27418372667110846
P 0.7726337774072773 4.597061725905076 1.145923323966286 -0.11361473470437852 -0.09021409639225109 -0.8340977472003442
Ni 8.66448179874352 0.9960043474785693 4.230965949219095 0.318069115200149 0.5273183459814015 0.26628452642868977
Ni 5.422106727754914 4.441758268515348 2.0441808347856725 1.8216751836208045 0.27886004910085527 0.5162960267289689
Ni 5.5152389544313865 2.337665968016955 12.125505749453033 -0.4265246743010912 0.5969229936534171 -0.4514399494855322
Ni 1.929634380787952 5.251359696648294 4.425045423198889 0.00251171067826019 -0.626456998556792 -0.04664161111793903
Ni 4.123766500792967 0.8682528533122794 8.713295676696259 1.3912845986064037 -1.6138742552503045 0.1534974298319292
Ni 3.7685550742382405 1.1041370566953588 6.424762058415206 -0.23758484450115208 -0.585589828028785 -2.286687729584449
Ni 6.029760121097378 9.102994366494448 7.045209709481289 -0.08231052527445824 -1.0985287653600628 -0.07392307254171139
Ni 0.14119931137535743 8.06436095540284 1.7700098613199948 0.3443416757434328 0.39393131374610224 0.5799236308819432
Ni 2.639466445661971 0.7520088062443037 1.32220530235363 -0.7107110207108663 -2.064753190026044 1.2829789348197647
Ni 7.19182211806381 8.709483246364472 0.6402445955928303 1.5370031558238626 0.15521955472935847 0.4721231888664966
Ni -6.461746325059996e-05 5.658735878178613 2.9182354131912382 0.8828780019278407 0.40737226974235646 -1.1256150800538938
Ni 2.752150070504839 -0.019857869563527232 12.26562410297887 -0.0293357728496398 -2.11693912800098 0.20969711695194854
Ni 5.448941437136271 5.451692294857511 10.802277644966807 0.8905645719388211 -0.12173453559803553 2.0697205613336482
Ni 6.566980479496688 2.680267758171636 0.6600156931342782 -0.47631691523286995 -0.2802458737047883 1.4313156463863608
Ni 0.7435346874922963 4.127329692337929 7.337376646462258 -0.13503073848630937 -0.03953893863488675 -0.6965236734668907
Ni 7.085461773553323 2.6045914776390044 3.1667892549045247 -0.38074232585965395 1.3267190560201925 -1.0448880972164714
Ni 3.5687763399997423 7.864212978517196 7.575190142676677 0.9852845266212258 0.4094736323560755 -0.9860509724736051
Ni 3.0532582181864565 5.011361207069387 6.758812188861979 -0.35621991523825747 0.1291729941539517 -0.9183576828916894
Ni 5.307752279933711 4.8845078956422805 4.747827191161376 0.6204853543543895 -0.6023657619355433 -1.3667202790034787
Ni 5.384314742819492 4.701898944496085 7.1277732884898155 1.461490113087212 0.6331084424350387 -0.5744294405365914
Ni 1.564850338605958 6.161672056790389 10.376910115454287 0.25513313779756064 -0.5084433634537695 0.7034345416541112
Ni 8.118713473062774 6.023815314478323 0.3473807131153718 2.8914307335029172 0.7632453431641565 1.9771312798410012
Ni 8.748512194167835 5.687850660906097 5.280293550478676 0.09267952721360813 -2.8579822240364843 -0.22471647317891624
Ni 6.469315799326495 0.34496955862950657 3.020672554575796 0.011081197514826077 -1.494750932022871 -0.9036933960112953
P 3.207435485502388 7.3128598577983634 0.5225900416127557 0.1331846864165061 1.0992476458039584 0.3773824082484855
P 8.184549437048956 8.01864871568613 12.371209037930349 1.271620572384152 -0.8568520101777243 -0.22616888935472662
P 7.267119924883117 4.98123100706225 3.2606211963973384 -1.6023078905689436 -1.9101375874292716 1.047666431292557
P 3.8090517615640094 3.9488101035088783 11.94223400775521 0.03570285271824818 0.500894347461918 0.644901835525541
P 6.808539019259787 4.536367465780406 13.07008567346354 -1.3265035975752766 0.28038959837150423 -0.6049641187903387
P 0.37250121350735144 3.535221414440324 5.08089052063365 0.4265843238944331 -0.5313629483644203 -0.7068597652855761
P 7.503952158762744 7.193594482770113 2.6160573849395146 -0.6673025718182444 1.263344705528605 -0.4955976178393529
P 2.2250469606373375 4.283288555426341 9.104941198351527 -2.2160417851321124 0.5131898769998194 0.10059672517815577
Ni 3.6061898512218398 5.170292473467327 0.427937458336659 0.5449190897823003 0.6966609703757034 0.05480383521375722
Ni 5.819061035569529 2.2596265345425874 7.271471449479736 -1.6014116040069195 0.270067904730522 -1.1589831139913782
Ni 5.075978670319987 6.905714452922511 3.295978026074831 1.1554221361129973 0.04085251523998771 -0.143025840876644
Ni 8.539216230699141 5.727590400805216 11.702555836172703 0.11360162207825597 0.5785753443841648 -1.7972237354466596
Ni 0.2108892454911295 2.9974102678055807 2.7416377323405845 -0.21442820387903072 0.737917148812013 1.8998603738729798
Ni 2.255112543181224 7.072196731454593 2.5946025409270796 0.7068250553928989 0.2366222234775667 -0.1804734442001408
Ni 8.707590877797848 3.5621945898143603 12.888867843990466 1.0162310956014111 0.15718490598584542 1.500915666072686
Ni 6.051499281948115 1.337941500868387 5.007446311903018 -0.031689874904113166 -0.9483683703211666 1.3548538665831957
Ni 1.6726322673079586 6.5553401050454 7.9870203136381965 1.7549925946915903 -1.392428739513176 0.8466354746560387
Ni 7.35178726387376 3.5564528666512354 11.074948570178453 -0.943796434679768 0.32666894105401806 0.30690178572941984
Ni 6.615720508919997 4.117729383512125 9.0675572265412 0.834193392237944 1.0837922304808367 -1.5970402144121012
Ni 1.755656476518801 4.753454449103884 12.56622084959419 -0.09349173870225834 -0.17675280081544398 0.6282747684918212
Ni 6.859845285080763 7.039878768763114 5.69831130509975 -1.3285900477906603 0.4825420702069754 0.49083310657117396
Ni 4.490645994997516 2.486683069339017 3.754162918959096 1.0192606264563542 1.3922479909609378 -0.7845111945214682
Ni 3.155907674093123 1.5946020648997699 10.577704266972438 -1.6808877451563764 1.082954822181206 1.0053969811003847
Ni 4.933349466793556 7.562984826975257 9.854968094687273 1.2497425413641379 -0.6234320956875392 -0.3030425598843297
Ni 4.897237535902649 0.4877196891228784 13.223295525043946 0.7415735146176776 -0.6880328623870602 0.4659353148882298
Ni 9.187578625889483 0.41270896846172833 8.564138263168282 -0.04801046644100764 -1.929193318509142 -2.045042598970994
Ni 4.0565643390123425 5.2083798525204665 9.003408701452477 -0.11540473672526577 1.734894795500451 -0.22730428851075046
Ni 7.703546271677669 1.3488895453562741 12.54525248276937 0.8297849787576032 0.811529374981525 1.0635373368865426
Ni 8.43639138453508 1.6369726586598061 10.216092942236047 -0.5813202541191537 1.1123595005955682 1.021425495318157
Ni 3.4545418960388607 0.3998768633667771 3.632121762330924 0.9378633570247848 -1.2497916494345185 -0.12288664692460771
Ni 3.553646622532923 3.232617834037764 1.5255629209495931 -0.9885220597219169 -1.5303815367422868 1.4027576322430098
Ni 0.57975341892409 0.36129100673999026 13.35744230185881 -1.1384819087142326 -2.5898251631754303 0.35162792499220086
P 3.693404964477793 5.163443022362763 3.0755530892211485 -0.7927178987019766 -0.18012737371463172 -0.061177599950584964
P 4.9567225263579155 8.636733213810476 4.863720457714563 1.1899438240389506 0.24524698903210018 0.7359142594493713
P 7.743747564885721 4.81865346952374 7.157726252026322 0.040730130729510504 -0.22190548609268235 0.28781263030845267
P 8.141883449171203 0.24582052301778595 6.351426776265482 -0.1733329765006176 -0.3537904798611584 -0.3521794266202967
P 5.832538392190369 6.7972863495880045 8.061801180751498 -0.04509920633148362 0.4695001494213527 -0.6162877713332741
P 8.3360404641069 1.4417725332459221 1.4469040829346378 -0.8104965628416364 -0.24091905108070766 0.12108327516728178
P 1.0597540905083753 1.779564937921523 11.936545824775921 0.5696045083441222 0.9604720955632362 -1.8312903381130654
P 6.2475209722519 1.8050796048393312 9.247004537521207 1.5081060131735382 -0.2585120815721225 1.7048658532385281
