# total energy = -340867.16312216327 ev
CRYSTAL
PRIMVEC
9.27350581711834 0.00000000000000 0.00000000000000

0.00000000000000 9.27350581711834 0.00000000000000

0.00000000000000 0.00000000000000 13.57271314368834

PRIMCOORD
 96 1
Ni 3.9563000793701217 7.139950214027897 10.498561725301757 -1.289656089729624 0.2336747108134685 -0.3562916490164574
Ni 8.772791996897997 4.103414973185584 13.497601400702566 -1.1464317596889289 0.7463891908387662 -0.7133433161273909
Ni 6.459015240308675 7.923422339847319 1.4323420990125635 -0.7621572523063004 0.7000280870757234 -0.1612451920981481
Ni 8.707868183761207 5.907937166368697 11.710645081943635 0.43227597496257164 -0.10475471321058734 -0.49020730006171703
Ni 1.0282741282740708 2.153484211228741 10.049413388841144 0.8600720597769188 0.25457675107345834 -0.05995426906644514
Ni 1.7272738910220697 7.195683983054052 11.432051352208719 -0.4552678078720546 0.7550764342001189 -1.17337126439225
Ni 8.72118493789125 8.454024513286507 5.557998648176905 1.2359727412735553 -2.061697691029172 -0.14375654839508145
Ni 3.6080150272377907 4.548635979998513 7.242494784932626 -0.5936787756845066 -1.5681602981529574 1.8432076583759418
Ni 8.399579761547313 5.5649194654521486 4.629679928026846 0.013050148315738816 -0.9023294257842331 -0.6034358550712704
Ni 3.4220719652172518 3.5421453165235177 4.903522840811331 0.9301325640394302 -0.900243746899798 0.7728913508943528
Ni 7.803775569801486 1.034376094999397 4.564870179009693 1.0714738181247998 1.482003145438899 -2.591150566855073
Ni 2.232346103374901 3.864900407569492 13.163102342086752 -1.3287021478884924 0.5076962008750998 1.0302608342215998
Ni 7.296366434021934 6.597681970466429 6.555728630853396 -0.5770936176323157 0.31567413260541116 0.09113300866209466
Ni 5.667586446631611 6.465766352430314 9.115080800269546 1.222847773855823 -1.9850855016910718 -0.6241723162876733
Ni 9.106925679390743 8.068348686326646 12.72167698114111 0.3747747954223094 0.28592621191901724 0.29145356949514967
Ni 9.385622345038502 2.215616699161393 12.130815567912911 -0.04146006691699956 1.3488035466240575 -0.3996597315894472
Ni 1.7614745799020133 0.48924512024019584 13.152474904598572 -0.9492273758873524 -0.37208002219896563 -0.681344137512975
Ni 2.4924308431598505 1.7358426102533786 8.373562941413722 -0.5327320607978051 -0.3555385729005167 -1.6443729380597936
Ni 2.94079556839206 6.094529373785546 1.2860710942123066 -1.1157597845263687 1.5431072118390714 -0.5050765038640657
Ni 2.796212341622212 8.940002577482126 5.702548490326371 -0.25969684590884307 0.14939317785556852 0.8722035529331301
Ni 5.427458291030402 1.8326394623490538 4.563050717198889 -0.24678116628843952 -0.3560252827289482 0.9106479729522575
Ni 0.369585367286437 6.609579878230249 7.442258152440632 -2.1714765969272283 1.7045310956069288 -0.24462555339801742
Ni 4.453443444382294 7.1058979012385395 13.139607915493116 0.8772827672282504 1.2244135756810461 0.485286465721332
Ni 3.373812641754338 4.117380872711938 2.1407155212832976 0.8119381803841694 -2.382651069755651 -0.8765309766638903
P 3.860310022267005 8.141303355366373 1.5197634368843715 0.11787659530452602 0.18530454704019703 0.1928147393743131
P 3.949548967248484 5.464709963273008 3.7472632062005258 -0.7624619280309126 0.23934707860789745 0.12904315344430678
P 3.341206995848188 8.786822810963983 11.93509730357449 0.7452874731341551 0.27553741248552543 -0.3294819850227809
P 8.620400478361091 0.08720526518989276 2.6721550922837274 0.009450346779622434 0.5654596329378132 -1.0130655533892359
P 7.1561695754300185 8.72625754548814 13.168259338585164 -1.8588687619519666 -0.4838641314525087 -1.2086889658569377
P 2.7625680630819645 1.4088680741313813 4.347068915639329 0.5556125649404043 0.4513067663417775 1.392176514293054
P 1.7419260299673818 4.346835223296656 8.432441356209722 -1.223677725956286 -0.7288300989090802 0.4580553979195208
P 5.761591973523147 8.524456788786281 8.80580011294986 1.3068302875160656 1.9410931552705217 1.2263753273931073
Ni 1.7375303882837883 4.345870778707851 3.6986997117519116 -0.7974240459283944 1.9896499811333026 1.2765650608736208
Ni 3.2997358785295576 2.0490274434565925 0.259362333693912 0.4827328460615429 -0.47922611845986507 0.2160911934037504
Ni 5.59688523946765 3.990714058880282 3.34270095761027 -0.5068773045182302 -1.2199776513968794 1.461620210907173
Ni 5.7536074851485175 5.729468549911401 11.491935015018434 -0.2060461504629226 0.5468175923565938 -0.39550637154270596
Ni 3.9811530745431827 7.8202174953394845 7.885923065003548 0.17979904384093548 -2.75037821430256 -0.8219762813464617
Ni 1.105466789401145 0.05522001681250311 3.8789182387275507 -0.33683842538785214 0.2240994084202076 0.3342724644328888
Ni 6.388035827974867 2.9463040307550443 10.555064267947259 1.180852917481276 -0.5834704676929371 0.4608653565644901
Ni 7.822276213596358 8.580858250220071 7.812765306189831 -0.5478671166670307 0.47831929037487947 0.5416545600984156
Ni 0.718995295655519 4.521520249444025 1.8451290197740833 0.5701848063276245 -0.19802842236476864 -1.0051768946697786
Ni 7.223625055612423 2.0998184339651202 6.527850618133526 -0.23236679063532237 0.5430025894858778 2.3948620099995463
Ni 4.614904451456235 2.440378655881347 8.883843154546103 0.6954960035333247 -0.0915227879013456 -0.06771874350321241
Ni 1.2238894566996479 9.022731521489169 9.596939573250284 -0.007317873817651914 -0.3155666604932694 0.266588945042986
Ni 5.089541018227728 1.1827058180565273 11.77804770314377 -1.2329288122409088 -0.20436413477480933 -0.6403273287809811
Ni 1.327632164535854 4.9850842504555795 6.102359921966194 1.395561371604887 -0.9785441225735985 -0.14563731035756208
Ni 5.876212503500398 8.236959566265673 11.038429985598006 0.7779584810046151 0.014997758960412881 1.3779881386078139
Ni 0.3524340185653265 7.018476563366732 3.2119417457301545 -0.38207055775277426 0.1703003603218809 -0.4083037804176904
Ni 1.786763429841169 2.0963037753193774 2.6061370054788693 -0.16698852233982855 0.3417929411796501 -1.458007039634618
Ni 5.30606810192019 5.948666403234399 2.126341587507833 -1.1824338888151507 0.71685261483223 -0.7333099890573048
Ni 4.919307274797923 0.4943650227159596 7.129121541466859 0.638019763693727 1.0933307660988913 -0.44393284247520964
Ni 3.445988336318492 5.405711920253974 11.899183798198854 0.7583311936919908 -0.7242144545139398 -0.17568605011382646
Ni 9.187697913703191 6.375479501309075 0.7898541524157273 -0.3616896801035771 0.5855543468051594 0.17515717419354995
Ni 5.68333285924499 3.892006864618319 5.910278726548248 0.3718316536335854 0.12800057111240537 -0.30797187886514704
Ni 8.446883913927083 4.55753854543364 6.839290177571227 -2.142411304130156 1.0354076685298619 -0.41698048225608186
Ni 8.185296866224956 1.2041739836631076 0.254119093592849 1.3597646736212516 -1.507375819875733 2.4469846988367148
P 4.8894187660506185 2.4775468665729994 1.6149763742130472 0.5937967893196097 1.8179074890482563 0.5415661141496673
P 1.6343719113042625 5.9294887935262315 13.071092473613591 -0.8648982775209686 0.1366363924105324 0.5239645990178202
P 7.244750101509525 4.377632535598796 11.942534655115086 0.5652786272752587 -1.2621900230988712 1.2579903831952268
P 1.1434417950853555 6.986102755102122 5.299927186471086 -0.14901214036706595 0.12469130423351428 -0.19132709908519308
P 3.0103004933256763 2.9458125349549804 11.35966885846831 -0.028026310009596895 -0.43387777223205276 -0.4190353079025816
P 8.147896817891763 3.3108826323347893 4.991718516405881 -0.28575034846278524 0.3280339397223448 -0.5547736139788768
P -0.04852083632257058 0.3534420486307413 11.262257172947272 0.04592633021846929 -0.6132505271688471 -1.1978785055049952
P 7.75159355344372 2.201205671363282 8.868926720689435 0.05353756690682392 0.7893811210192598 -1.5022516112752902
Ni 8.740269812542802 3.924770160120716 9.885115616385322 -0.4044810642374905 -0.2541360639916139 0.372776534045358
Ni 1.6186625927135292 4.589652695539725 10.850474572848903 -1.40029837206924 -0.4054423997094953 -1.4626689638866615
Ni 8.423199380467382 7.721195001885028 9.958720358171927 0.15187609217842232 0.37957684479664305 0.8611786625775362
Ni 4.161958614427201 0.7904791866973184 2.8866308765238458 -0.27795784900156 -1.2438423738296192 -1.4376670425256852
Ni 6.639607489562477 2.4542332733397623 13.036211109418087 -0.7737583268803384 1.6075904791241216 -1.086907893291683
Ni 6.576519830546681 1.2282387308549336 2.258282244009236 2.005068886791534 -0.21687769386078778 1.928856246884697
Ni 0.1723629403297065 2.8486632896441644 7.583957318949725 1.8651198850680009 -0.07336771425887365 1.7607588077514063
Ni 8.6330495400835 2.8441656393982937 2.776163022381855 0.8728365585314388 -1.1137563809430948 1.4408963480962604
Ni 6.920233044387849 3.5870569044425973 1.5970330681084368 -0.1962726160159265 1.0237891104543273 -1.4210394612713333
Ni 3.800755568908275 0.2264590082560249 9.702019520602892 0.2740307460330119 -0.3087568366602876 0.43020829380026554
Ni 7.2601719414247485 7.976021663959857 3.5792875613993176 0.32731557349908147 0.4834758948751544 0.5644162792749635
Ni 5.115766492238705 4.375750013949494 13.54932716058178 -1.6568325039793852 -0.9817652006140576 0.31415409641645897
Ni 3.716746881119932 6.227520718478408 5.754532053662978 -1.5023881368531546 1.6508310349803117 -1.3550271589362661
Ni 0.4210533237082608 0.7397392004699294 7.060647830362812 0.9619756766919562 -1.5570377058772347 -0.11499104622661487
Ni 6.007831369355343 6.299232737759482 4.404413492598901 -0.10188459075164388 -1.992891370888736 1.4244533720488888
Ni 2.731752203768501 7.551220916613747 3.8400056816209536 0.056490221777244644 -1.5153549814264675 -1.8529012315146216
Ni 0.9651308282243053 2.6627573216462723 5.044488473022592 -0.22546312153695364 -1.0190333409368966 0.5800439585098913
Ni 6.733548101914383 5.888518445513328 13.879320222796627 2.093923126721781 0.06484784971332058 -1.118283579389487
Ni 7.169968551854464 0.7108475935812462 10.20327290332428 0.0728627495979971 -0.5254632950505337 0.021679541855962662
Ni 4.831756107846854 8.211262682077408 4.49549971990817 0.8627987146794626 1.8628346885782499 0.5406569720718365
Ni 5.335993704690141 0.6963531042321811 0.5170535816676054 -0.957674478213441 -2.0411702604997815 -1.5582556374447358
Ni 1.5680199782955866 8.296207993937571 1.4355182747016584 0.15590372528057667 -0.07423237625201409 0.5345621720280084
Ni 6.414316943019813 4.163247631714161 8.202221014057358 0.49405906970763946 -0.008837652896288005 1.14264349629109
Ni 2.118207795692053 6.449500623499884 8.693770600454458 1.5747911732059137 0.34877760002759933 1.674249671014568
P 7.961647730184392 5.761536332489178 9.300185537378276 -0.3315560939429903 0.9768006575199305 -1.0607183793805088
P 0.6959478520347697 2.499942382745739 0.6285118462142543 1.4109501953561314 -0.6197135091853714 1.4568729260301747
P 4.8027207616204155 4.186793062588938 10.086411894379188 -0.9416557341876813 1.8480724426674107 0.02520041052502757
P 3.9464701633688364 2.410805446326537 6.77331289419128 0.580071469313717 0.3751159808118121 -0.8029025525444624
P 5.335724773025955 5.792982790187629 6.94018962857159 1.6638225621439733 0.9527847542213075 0.7916300649544367
P 7.4634471855268 5.815174289235814 2.5160819919991697 0.665450349100854 0.32191985640480686 0.08050766773776458
P 2.150349766315123 8.680947196825612 7.798433103189844 -1.2140070356357415 0.8577495822913291 -0.7927891182595442
P 6.7424321203381865 9.282964637364703 6.00432412951413 -1.5929896984918115 -1.2133580891978328 -0.14773944430222943
