# total energy = -340862.7769025991 ev
CRYSTAL
PRIMVEC
9.32718382954006 0.00000000000000 0.00000000000000
0.00000000000000 9.32718382954006 0.00000000000000
0.00000000000000 0.00000000000000 13.65127634072289
PRIMCOORD
 96 1
Ni 3.3165227104507453 4.157769399832717 9.127434707033867 -1.2415810885992682 0.01445448486243317 -1.1776367245368236
Ni 7.575734561401823 2.1367552118659603 5.0749169801875444 1.186691378539924 0.9009788252936095 -0.32189157427003273
Ni 6.65202623995499 5.541970113166696 3.228458239071173 0.020986886664312244 -0.1905416270694202 0.971290783445295
Ni 7.797451047751084 4.168094592310469 9.579195922156401 -0.16230422949028175 0.06035176161517994 -0.25196142493779833
Ni 8.43405932434004 6.765528739739777 0.09855102413723811 1.491088138459303 -0.5126301478416074 1.1637967333299375
Ni 2.931459254035665 2.340022528638895 7.564854401487373 1.6200449028373907 0.7446048452448337 3.514867714286463
Ni 1.6692114690183992 1.072905953672771 6.436385481139611 -0.018784993916987 -1.0483891683911946 -1.6566682104873791
Ni 0.32641039374381314 8.662239549069682 12.257904351151549 -1.850928424058967 0.2082614129466865 0.7323723077343839
Ni 2.4281457612764714 6.3947638561055395 9.019657232671705 -0.7896459446448724 0.775946849891225 0.36859874851858454
Ni 2.6515784494467853 5.440201210614982 6.988333708439672 -0.49820034556952264 -0.7603340830546325 -0.953175561901823
Ni 4.229374189942653 2.823935479073136 3.780120121828265 -0.06704999957096193 -0.4971503070384535 -0.691375553607048
Ni 2.0494994073227217 6.751668544598007 4.287183142479108 0.5161075648672466 -0.3247262155053504 1.2297293314670048
Ni 8.48479920426684 4.998428476634655 4.953693437644779 -2.9496860176003845 -0.32388675032319053 0.5037379875583001
Ni 3.7742822374815397 5.8613049052721875 -0.16899084898929526 1.6362081428608144 -2.846127124470111 0.8355943863505287
Ni 0.68115677190263 7.807216609200231 2.0121570942207105 -0.08442345785240299 0.004930090311765703 0.4912629950197411
Ni 5.483992338603278 2.7441787303131964 8.093951028452754 -2.9030660037490006 -0.9260293405043344 0.8880598032390964
Ni 2.4383683547323116 7.405923852955623 13.244864036888014 -3.6705652370935042 2.0729542377795975 -0.6302357488729339
Ni 5.168108604507514 7.5680582891261325 3.6502558762038473 -1.3163842497530878 -2.131271228352936 -0.869385880978677
Ni 6.94451739705509 8.05276405018423 12.666855658022609 0.07482861507511629 1.2785283552475788 -0.9488337399933595
Ni 1.2823012302089243 8.06277211841244 10.409248125529524 1.1346278250754653 0.17408065329991956 -3.856875856800712
Ni 8.384261489978057 8.629211991198211 9.52292595494861 -0.04927056410035385 -0.46471378377630285 0.34028010407954945
Ni 3.61858355813998 5.65769248269828 10.947190653620378 0.3197413606962493 0.7741784451368925 0.8597972088489773
Ni 6.098066139107097 8.632495159899356 5.3004352266577905 0.20949399980220698 1.7468026026816303 2.2247084596681748
Ni 4.903645634756686 3.81744844415456 12.672971492446873 0.13050765380497523 0.6921710529251499 1.0804204857951263
P 2.258391015933131 8.981434433418022 8.406934008383585 0.10770711097069192 -0.2837168629725243 0.4921988765704491
P 5.197507887876867 6.295905034902568 1.6193418153410783 -0.26996171816996084 -0.0713411707471481 0.4192517947887618
P 7.199905016958716 1.7567377618921303 9.010088474800948 1.3296508849550068 1.518752951364423 1.6040487845194504
P 1.9480383018367406 2.372788925363684 9.789862493845868 0.8314412834141035 0.5415879685265382 -0.3218807756367553
P 0.08321713395347703 5.992034713554179 9.487814704213967 0.4179716425247575 0.048502318475761634 -0.30811560353186285
P 1.6942642847322569 5.109179457195468 2.92306572132498 1.4465707727732182 -0.3662772994742595 0.23820550880428654
P 7.913145435731238 0.7328480245780581 11.715293567563753 -0.7262479400042008 -1.305755566394648 0.8357537947465283
P 4.150960555651364 6.536499741283418 5.638140839995604 -0.15342698160530996 0.30909159429188704 -0.27870166914612
Ni 0.29171606812548223 4.668162225103757 7.694501323729015 0.4024900019493907 0.7599864699072267 -0.38604445479885774
Ni 4.306631253441492 0.18892863710170868 7.563967386307034 -1.116268348731671 -0.01786299632334988 -0.01599868942110148
Ni 7.359577076603367 3.5217300814561754 7.350338501039489 2.460229479661763 0.729323493605731 -1.7522150319464533
Ni 7.771698693251471 7.24347229253557 4.489249117977305 2.026931234082264 -0.06521268925190704 0.5927032991451147
Ni 6.32385860478136 5.739920935167889 13.353773831364721 -0.43129149956211527 0.9263754109898434 -0.03147364512824902
Ni 8.364739694263573 5.780009171183585 11.46417779784514 0.6257170350669741 1.8772963725295344 0.2596233123584302
Ni 4.988280500649295 3.533323770932097 10.381822474254383 2.773193669535179 0.7852578428795057 0.15916259853750653
Ni 2.1945184612017465 7.725286626612544 6.676483981341765 0.8309661435498978 0.004130734338921918 -0.024737354845679974
Ni 0.26700556005745407 1.743940865704709 8.3575978696202 -0.9169152940182079 0.9364597918090389 0.7547177653091195
Ni 8.18437994092818 4.065141137414876 0.1408302156299209 -0.0775321300492084 -0.013477208550828401 0.2787461492308103
Ni 1.4455642556204533 3.1888522184584573 1.7910888471462503 0.8247283901703022 -1.251655699226451 0.29957028506501315
Ni 0.920784249322375 4.432240437811754 11.248610723781862 0.251554933527999 -1.1813655954516364 -0.5812546909885409
Ni 0.8780554875700466 5.209689189932822 0.9706054016438833 0.44525001862473645 1.5933205994686688 -1.5131050090500262
Ni 8.14661417368119 -0.13746869858477037 0.7850961101269476 0.2684882189482279 0.6111846457787539 -1.1324264465487723
Ni 2.6803621386846723 8.701712190953913 3.370841430805471 -2.908640926733616 0.9535571136109577 -1.217003399259904
Ni 6.641430559146746 2.2954945531296036 13.165441201308477 -0.7396755262640164 -0.7555682862348729 -0.4661435742442939
Ni 6.872744717636573 0.992095233142293 7.094268131280965 1.0940946408481094 -0.7537201772825406 -1.644185504639336
Ni 0.09437617666384913 9.03702444892606 7.274970192262188 -1.329250821303111 -1.7926212036776419 0.5223563739904359
Ni 7.196463286132799 7.80201204063421 2.383075876387814 -0.2762820039610339 -1.5727936831599107 -1.7690706700512115
Ni 0.4250024574898156 1.0538505171487906 10.566797318139 0.2552516656532959 0.2055393860298331 0.8054906249866127
Ni 4.5471326879842415 4.273221281033809 6.409970896589484 1.1353839865151996 0.7033995746511176 -0.022735751034618907
Ni 2.7772249425522872 3.093388492162353 5.580532421911064 -0.4636647736864983 -0.5324687798340894 -1.9637929108608825
Ni 6.065383687036598 9.25598941605135 8.987400100182946 -0.22214408446604966 -0.36047072009481146 1.8520249995572555
Ni 1.2467273511573034 4.628642947300475 4.9368746597984545 2.0306089400441674 0.4283833247763848 1.5464370475432527
P 7.4207634023974505 2.1656321729419483 1.437902906838859 0.826445372861409 0.1910604756873677 0.6715379500558305
P 1.1384294199385383 6.485769188540428 11.692523113728221 1.0537725441902948 -0.09910085735891964 2.0253227519445636
P 0.416825315443524 6.540417158483649 5.907917506363031 0.3522413902064837 0.3876742770927969 0.1412461232684019
P 2.1634962478494417 3.8811904183126034 13.422385528190004 0.2801833958979691 1.120358973861277 0.7256038786622987
P 2.2369758019052015 1.6659469546848733 3.362582209541651 0.4918373794659723 -0.0933834952591682 -0.05283282753031546
P 4.46085623774106 0.16015987135791754 3.1964053719078547 3.1266493917647376 3.044015678822906 -1.1482662417945062
P 8.086267294430014 9.42204126942209 4.702168204556904 0.05671545041417329 0.04723347906566704 -0.2791721810246353
P 7.274792975769797 8.209134286760113 7.548432028952975 0.1112197521096407 -0.734278009397529 -0.9026850093514388
Ni 1.0502035882790517 2.201523176243112 12.76092683577587 -0.95289351188503 -1.0328769316882085 0.5411174566480229
Ni 6.856077040167972 0.6289562549911718 2.892337314262692 -0.5588156452587344 1.3351309342329718 1.0771029913861192
Ni 5.721844852943966 4.17972559052163 1.5843807322657792 0.11512217248784044 -1.2663068734807221 -0.4591902828549124
Ni 8.177953511283038 3.691680697659527 2.895709091210034 -0.4766930676253662 -0.019960245172010786 -1.2430412180845622
Ni 4.106059492789669 5.222355505546903 3.456270972758698 0.014405633902368738 -0.5279004437371168 1.1058157859397795
Ni 5.57668589130779 0.5878485577850343 11.416453396444137 0.680144717888235 -0.14337731067879178 0.09003000540590302
Ni 6.523637554809326 6.247403679090186 6.287231686677581 -0.8269176845121372 -0.6807658964120018 -1.236881883351386
Ni 4.062510871580435 1.4532032191609037 9.758369257711156 -1.0039602486538581 -0.16723946200837006 -0.5793001383653313
Ni 5.806600972226105 0.42636795719961035 0.7173938137231471 -0.19480245922830322 -1.2547140264368004 -0.49749097820732385
Ni 2.8113251265619166 0.1298987562045146 11.453434747532697 0.5709666787989714 1.1969318253210097 1.3735038775842152
Ni 4.8607685707817785 6.901099356419197 7.840651765004202 -0.5723918412812723 -0.24347627028492258 -0.14262372034221887
Ni 8.048501527183026 2.8585952941113697 11.472860473253936 1.8399217885358186 -0.7266312914855485 -0.4526385977793237
Ni 5.352889442968883 1.98342563721216 5.655204922776133 -1.568383212797041 0.07826720844302004 0.29179629754654907
Ni 4.604420250945713 7.975180535252037 12.645190475468569 -0.06834377868172102 -0.36583944060589246 0.010348176003543468
Ni 4.41144081791529 2.077667502429144 1.493149681982687 -0.6271954193847133 0.009713370633021983 -0.059890248597729116
Ni 0.7535413145790875 8.68598655905013 5.004394143399577 -0.6905731123104107 -0.18492093844853313 -1.0329260397585887
Ni 4.157778727016527 8.12250340353215 9.803527750846008 -1.3569760551325212 0.10024988336169831 0.5055387882124648
Ni 0.5400999057061243 2.6939518454959495 4.1261120052629465 -0.06988926879196997 -1.322214997502252 1.3154985047140249
Ni 7.5273264774275415 6.205412697577234 8.351796361290333 0.6960960990111689 0.711708094516813 0.8620430674603605
Ni 0.09725641102439987 1.2279330757800049 2.2453478820931236 0.109082908272296 -0.2855197205092179 0.08513848164155662
Ni 3.6343278444113847 0.08409668738676697 5.3584400500542575 0.4634889102302663 0.37719214661455036 -0.530586475209712
Ni 3.4242516834570957 9.153343758221489 0.7425538920508207 -0.7618366357420879 0.7387077630341085 0.7313276685199535
Ni 2.9403387330228554 3.2479679094467038 11.580855270998876 0.4258214775864796 -1.3082698481760695 -0.9419434406314293
Ni 2.98399928043781 6.753813796874324 2.1225555072335043 0.4208985863635654 0.3029183756016396 -2.0595978710773495
P 0.3687147686327832 2.82574495273229 6.574549987636614 -0.3139689769888464 0.8227319285655639 -2.566716345072108
P 5.757232188319386 4.926030875900863 8.468009340690328 -0.5479985000385723 -0.7757403903073737 0.13878634887399968
P 1.0299822537788121 -0.09240067913287554 0.4343343048917942 1.292585347561277 1.1973432018268153 1.3775957882654017
P 4.312731231653281 1.712275076669509 12.844336109715833 -0.2068701890261147 -1.1697706915251853 0.49955608826646875
P 5.772612714422197 7.304826507638234 10.95378403985572 -0.054080326784171386 0.20876714893851145 -0.2651378144187563
P 6.399697936341068 4.055384903149539 5.297118480094929 0.4058247227495785 0.29537835847085253 -1.0397638886160288
P 6.794965331844369 4.54696479867566 11.574453092031641 -3.058789237587655 -1.8537008445977816 0.6108372897416642
P 8.707103303196137 6.011444583062943 2.2988887153180895 -2.0874089797523467 0.060320137046296116 0.23305558917223088
