# total energy = -340892.5576766234 ev
CRYSTAL
PRIMVEC
9.05311448226312 0.00000000000000 0.00000000000000

0.00000000000000 9.05311448226312 0.00000000000000

0.00000000000000 0.00000000000000 13.25014814763058

PRIMCOORD
 96 1
Ni 6.499719744063499 2.131764022895428 11.531591046540042 -0.4585061123036942 0.16726054505429258 -0.6626167363068007
Ni 4.702296291550029 0.4611919049825649 6.0875821398205465 -0.41494365433171115 -0.38718962414689445 -0.21868260828001046
Ni 2.9045107144578792 1.5419355091393587 4.756272770625368 -0.7924412480018224 -0.49954708940540415 0.2926082519248832
Ni 3.264281483377731 3.9337230857568803 4.65565192988154 -0.5548111520850315 1.2908606515606864 0.06554718977319034
Ni 4.782796585390878 4.701291395844189 2.513963882907352 0.7638492952967425 -1.054474712463642 -0.8195992964738529
Ni 7.319931914776599 6.094873518212294 2.578730769115946 0.1944522749777361 -0.2270299518034413 -1.3152995013293411
Ni 4.9438786511027795 4.522474278891373 11.439701029388221 0.8153492629482473 -0.2007645903490091 -0.3759503037876493
Ni 5.82664784278307 7.727168162847099 12.465130104151449 -1.1545209644549663 0.3683755767641849 0.024088151297455288
Ni 1.68196908371541 6.647747218713939 0.6945612790908227 0.6211738957809818 0.698581584437184 -0.526395577056816
Ni 2.8259387339985085 1.5008796350313685 0.38610899483878824 0.2514760006609476 0.3160693111613008 0.026604489961405797
Ni 0.36141028794983154 8.949619262444898 4.7969647095317836 0.3125397007414875 1.3566076160495089 0.7025297704516547
Ni 8.441395522494656 2.363152575558299 1.4017462209944747 0.3434325336656021 0.1143996924995191 -0.3239453714752679
Ni 6.924392290597503 0.7314328036921506 4.989939086888144 -0.55835901733729 0.3871055490735204 -2.475368906406363
Ni 1.008544110970767 7.658817148621008 2.978739010595968 -0.36702163383945174 -1.6368635170566261 -0.712539846389489
Ni 7.769391888721336 3.78346854494755 3.9227199304336495 -1.5615505061459236 0.935442406288118 -1.5665050219377215
Ni 7.844025764387549 4.094470186233501 12.507768462668274 0.29417765329453205 -0.8966627144167589 0.436771291729764
Ni 7.928962084317243 8.943589888209855 6.830411909315243 0.7304447516943678 -0.5201814778263042 1.8460932074538527
Ni 6.961636803514873 0.6612231850659772 0.17848305702898273 -1.3934962615457418 -0.5015335237078137 1.3383221874767597
Ni 1.8635383474662037 6.590558694625697 9.214550509519569 0.03341765622849729 -0.18350965992330331 -0.34664744105847395
Ni 0.2246838160885872 4.609510921377419 1.3369005726900178 -0.7916835439001914 1.1804507969468507 0.6267634740536173
Ni 6.40652698373987 2.0816188218625378 6.890408709511159 0.29253728947763163 0.3126841967391518 0.7067710622265118
Ni 3.2949715414209697 4.533057369703333 0.2925577311822663 -0.31734534966024697 -0.6397264619721886 0.820694843530877
Ni 6.124133184169742 5.507190592584911 4.452527200584743 -1.2619709651095299 0.8251004287977404 1.722595666418124
Ni 5.156826009596306 2.977795676068504 9.017375487050506 1.3179127705824725 1.632406509726537 1.0875946349460623
P 0.45792916252864657 5.679652423181871 12.50544996005327 -1.1306174183644917 -1.6839113624740483 -0.181141673911759
P 4.079206635242085 6.207458049724305 12.573038702041238 0.06492009771215271 1.004140482985464 0.8012313354896266
P 2.4067523748315254 8.67097345226412 1.3812219051862664 -0.16693272940122864 -1.0853878571027307 0.9450940704452692
P 6.256326761617344 7.748624044133965 5.855836894447675 0.49583364510955896 0.012035333897979273 -0.10565305665514063
P 4.89202241143562 1.0664749904453048 12.59292748921386 -0.5885247422873928 0.0031233761203301046 0.7342466419389613
P 3.8799837982805783 6.030714095984438 8.256578001273091 0.3550996855908852 0.7314431110518951 -0.9972666386837664
P 4.87609798308811 1.0455622960264608 3.778664057099896 0.137207434422654 -0.2836754682116276 1.1318651747286634
P 0.12702605970981953 5.703851398152248 3.6280093686311234 1.8791277693113186 -1.1864828620735437 -0.5391937572627488
Ni 1.2332243058135672 0.9224308861603583 2.687845241852742 1.6867246635531272 1.895312092380665 -0.2800779806683564
Ni 2.107456410551447 6.146729757879453 5.205241160454546 -0.1863216754508017 0.9324018196895812 -2.682057575549291
Ni 5.837067977534624 5.546761755920309 9.192462720842906 0.29657057900674083 0.1987727567299609 -0.035189146306623266
Ni 8.69208531520124 2.3049591557642173 10.366690595609166 -0.38324478056653355 0.8984254627441366 -0.43898218333815364
Ni 2.2827971315489233 5.021771647977122 7.141790160163024 0.9499992210563702 0.2559489488306366 0.6531046830513075
Ni 0.6448678284698373 8.97731273959955 9.193946526304051 0.402382529837249 0.054410970650712744 -0.22517310110036057
Ni 1.5520659442279676 1.131078015282045 11.265051061024577 0.08448387877669321 -0.8490870215203248 0.6883115699697435
Ni 4.0603761571506585 6.989764830163941 1.7240696872328956 0.18747995742496099 -0.628836297422246 -0.5309870530822405
Ni 5.356709723913905 7.908927542001701 8.019599150426828 1.0340776368645288 0.10124310051290307 1.3498242745790883
Ni 5.351105846058813 3.1070650975432534 4.820682058812514 0.821742568069101 -1.3808320358145123 -0.7700677654026287
Ni 0.8590065768272256 7.298901529869683 6.856183410268543 -1.4288882678917907 0.10746439883226654 0.9741830173914253
Ni 4.967027464794979 4.672574916754763 6.6855077591559295 0.10270322999819731 0.09901189718953916 0.5273731104787369
Ni 8.112061324412965 7.156070542923319 9.280602937982481 -0.07546856265196034 0.22965273413826903 -0.37456267941150334
Ni 4.559003595765847 0.3424494450100797 10.513038717525971 0.3698567892954017 -0.2038321735307393 -0.27869369872632005
Ni 8.15627673546995 6.967955877412861 4.9332819806191175 -0.6742671760615355 0.5633035058267589 0.5774363456837153
Ni 7.17641289113074 6.149346107960426 7.2427432502077895 -0.32387260925580347 -0.4668627117985056 -1.3570948400985723
Ni 2.208733602094134 5.329894398862557 2.5815001168314105 0.2967495277867664 -0.2469385178019102 0.9978407660196814
Ni 2.382127903481198 5.295773210436313 11.417599661039855 -1.3946766550070884 0.4058694599445849 1.1379707734057691
Ni 0.9699597371122765 3.4088778276451666 3.720190896068783 1.651401048551169 0.38633318968387015 -0.5097674815818317
Ni 3.708228110612047 2.5023079980310485 2.572251455091891 0.3151920507626701 0.22353530838662147 0.1391604443839668
Ni 1.3645216249289325 3.147695475271293 8.134941260605496 -1.797932074367594 0.7011801984022956 1.6897899327420125
Ni 3.5512018401813763 2.684601510939205 7.044003849558823 0.45638135265120755 0.17654582701096047 -1.1116848431260467
Ni 4.1769621652570965 7.044391322858012 6.173985969605347 -0.20293562985839889 -0.8228329729198023 -1.4478948909012808
Ni 0.628244499685473 7.35085735379598 11.21493845120377 0.6424415469105064 0.40301682098713815 0.37215509841127514
P 0.06459668765661349 5.533888227148188 8.045424064755482 0.9179949002356319 0.6287329390751624 1.0907727755637278
P 8.571072334120423 1.5998030168126274 8.215807300270813 0.8330443662351654 -0.633388692679619 -1.2834689870823057
P 1.665320406210538 3.2094558221653853 10.621265985045 0.7045411444547286 0.39914293985402877 -1.1037645598377055
P 3.9425136599043684 6.001952351322678 3.91512708333015 -0.23257504999138656 1.111941439221543 0.6571636836120295
P 6.870942702784147 3.934809459492924 10.314869663088427 0.32882069728969815 0.46189868292501096 0.42537127742293834
P 6.222142201389831 7.804717141371695 10.237302578334896 0.5072814819351844 -0.5277515768640781 -0.4739350452642548
P 2.280452374901962 8.479681143575734 5.778270715005591 0.8422288609479107 0.28904701693618606 -0.8691159151467418
P 6.881860758831387 4.032899954743216 1.5831670136680092 0.2895064730711079 -0.4382129092722969 0.13301087984280316
Ni 5.143065275606417 3.0701102842888286 0.37056117605310745 0.4184542385881309 -0.8880261217876836 0.04522287639354147
Ni 1.4617882867627243 1.079013553982144 7.099416152588633 -0.6592205661410582 -0.1865006242308272 -1.1951503079405548
Ni 6.857091437649587 0.7807858572091756 9.187692634830226 -1.0272557288466888 -0.39287870411187176 -0.12320109284123298
Ni 3.0695852036497406 1.7910138474708104 9.118910692355502 -1.2491079931039326 -1.096891486866956 1.3058542967560414
Ni 6.233150788581741 2.016870947194325 2.3904459050535074 0.8339303683845445 0.4791225030024651 0.6356299233053117
Ni 4.138513588115611 6.80034651617023 10.476573677764213 0.364814598885804 0.9219523422214831 -0.41611633448357366
Ni 8.173305643782436 7.12047369683895 0.2241768416784334 -0.3313943715541454 -0.3021156771946861 0.12265910429483393
Ni 7.804590397769157 3.621906664168897 8.242466911753327 -0.37776473128856874 1.1115143789864534 -0.06351833226861964
Ni 3.009336726871643 8.382957668609963 12.484474799144602 1.0495865311334054 -0.7977438911616584 0.23183020140556204
Ni 0.2061892085438875 4.896313587692992 10.154979892551834 -0.42816375256641104 -0.4506452214983787 0.3041933856593213
Ni 8.670864814890516 2.4978810250566696 5.780443462477678 -0.5385689791945564 -1.5021400253980906 0.913298523201227
Ni 3.548983827136954 2.590114155246792 11.496756472693797 0.5869031475235699 0.258519023550658 0.20496320181138894
Ni 1.1591064576719763 3.1499678070025183 12.867470427918178 -0.27267654599796265 -0.03980941868745402 -1.181996544167416
Ni 2.893610764639573 8.397343067498078 7.8624923072774004 0.7801829994597596 0.06343091476113592 1.1452313116229245
Ni 5.830069920051608 7.947774456179736 3.539287036231316 -0.4076386360298657 -0.03801478868087647 0.3068686184986392
Ni 3.196546080935398 8.394563761356698 3.697719255338716 0.4937628786234593 -0.49945221569875276 0.5593152106029722
Ni 3.27828665145823 4.420662953595131 9.553648491553954 0.23199783733167786 -1.173631202921856 -1.302034408789319
Ni 7.3039622208567545 6.05999186817082 11.359762933955775 -0.27485735569936537 0.15989587715910528 -0.6546249763505757
Ni 0.46562793107141054 -0.05760406204227797 0.13794321044561342 1.3216125880315626 -0.20221829207640013 0.6807031614948664
Ni 4.561303086840473 0.27798221689034475 1.7246789618365268 0.6729656836412926 0.03772785356807696 -1.2352448619685952
Ni 5.935095100983647 5.424209745380096 0.2875839500940789 0.1707922123566349 1.340392439742227 0.298970189587169
Ni 7.925060191981951 8.954227297708618 11.147521718390676 0.2120620176396993 -0.35831896385913126 0.5256661550899592
Ni 0.1525621796869767 4.8021883565792605 6.046320760014154 -0.7664250264437188 0.4795449352518645 -1.1165897366268318
Ni 8.127859009157936 0.07122085151214082 2.3736713892575434 -1.2707435690958373 -1.0154322538491996 0.21103820436087525
P 8.565676677898072 1.804774581460699 3.677459290472945 -1.0218522984429304 -2.079609024091954 -0.18898919498063582
P 2.0032641161503757 3.250873820852057 1.6155110757243745 -0.9453537518645592 0.13721489062182177 0.46760036129547855
P 4.8931087851716635 1.1117315096659977 8.20176229848666 -0.574912807930913 -1.4571765733135227 -0.6510585991555562
P 8.586163875936965 1.5477476086271933 12.460306604763414 0.21638095673002736 1.8498254208027753 -0.354511417187583
P 6.468595136525843 7.829332559607556 1.3583256733876956 -0.6474521127512205 -0.05751969148302352 0.9135684890331621
P 1.65546156455594 3.117421860493538 5.899720961515166 1.4772329777437656 0.024183282114422867 0.12045386911339899
P 7.02475511757902 4.062087195784927 5.947792999335106 -0.9111231128164631 0.5469137516148258 1.1923030682997464
P 2.5580932893768997 8.399742142831842 10.387360666560292 -1.5378151102021966 0.4541236669652824 -1.4859006807210924
