# total energy = -340888.7536477463 ev
CRYSTAL
PRIMVEC
9.06201069047675 0.00000000000000 0.00000000000000

0.00000000000000 9.06201069047675 0.00000000000000

0.00000000000000 0.00000000000000 13.26316864758938

PRIMCOORD
 96 1
Ni 6.336103345122292 2.0346569616829204 11.14523889665635 2.4877382266049928 -0.2740844820890828 2.4054672963192183
Ni 4.426493065847033 0.33834556613161365 6.227083734423173 0.8232939717166208 -0.819321617332434 -0.541129540832881
Ni 2.3907486629083037 1.4500485425595735 4.8630336711772255 1.5524567713747714 1.438973934262567 1.058761255654138
Ni 3.6250669843361436 4.023505460464853 4.52846968201269 -2.346520128361049 0.46182669203649496 0.34015951934128513
Ni 5.261675136340353 4.531494581105934 2.7053544802245426 -0.005724561188603044 -0.6131571961240924 -0.6112918607805794
Ni 7.311402221426703 6.2533037555028415 2.772055408252776 -1.0330373685254726 0.6909461793791133 -1.1065326095011458
Ni 5.354841665931857 4.57268141866973 11.527815229666983 -1.5766127997956847 -0.36842211373140415 0.8172220544909281
Ni 5.714567233353738 7.785517546949309 12.410863745637908 -0.3040239499609926 0.5910390240688144 0.6387381299169903
Ni 1.506939844259356 6.574271104165568 0.38202445657330714 0.45011865957094743 -0.18868117682191377 -0.2636172640091718
Ni 2.889648587052908 1.5311897842639146 0.4350363115929883 0.07511426463633517 0.129361456015674 0.3268666588871209
Ni 0.5021667789172665 0.008051596298225036 4.975319230447959 -0.3971156250113548 0.8130362985443546 -0.7198093834677087
Ni 8.69458218876444 2.284016303650572 1.2145495455982642 0.5783570577257717 -0.5365483492201018 0.5764616404752717
Ni 6.749901928989315 0.4508930175047881 4.664908217776006 0.0812085504595311 0.8722202651036784 2.0616298139057143
Ni 0.7354890809648631 7.703687592449622 2.429732525728038 -0.6963778919176459 -0.8411425698622674 0.7514645484791446
Ni 7.5394839628223425 3.9161115744431703 3.8415312283155485 -0.6291497148976068 0.31774104243676893 -0.5575889719404848
Ni 7.429670520006484 3.6431547572244463 12.693289457591597 1.2748293091294367 0.21497584885238463 -1.5280536599400585
Ni 7.839989291854915 0.1479935053073413 6.979357471171461 0.6929588389337679 -0.7301328768809039 -0.09721058231474225
Ni 6.808016602101883 0.8182841395790814 0.2684756530437412 0.4974210442013368 -0.8296312267885584 -0.15803131314654076
Ni 1.954820649485551 6.577361249734161 9.223113980928815 -0.7639338845907488 -0.42012237031917327 -0.4152455018428461
Ni -0.24396019613255585 4.777736591473598 1.342697247987077 0.6785172095871411 0.13485770324355484 -0.1053075003902638
Ni 6.335713678672294 1.9235657753914845 6.771802089680278 0.1450259020258083 1.3500158217646039 0.8321033424781346
Ni 3.5119821557423894 4.210925960903672 0.36605175692755426 -0.2658001305931035 0.6324217007806592 1.067675270314316
Ni 5.884144635186811 5.744553425982693 4.719101758960334 -0.24802558021850185 -1.014801562243736 -0.6154771025065207
Ni 4.928075345089302 2.8760102613029597 9.75317725286179 -0.2770708184109164 0.6125195625400934 -3.2510812716892783
P -0.01740902830446834 5.35693499034929 12.382069207385113 0.9685451023793578 0.04023185093685329 0.7469288653923201
P 4.199181595340925 6.074338110827944 12.75903524971681 0.20185422386876203 0.34710586875213123 -1.0408599498936848
P 2.438170163672076 8.566535980892837 1.2976219017327144 0.858456892770999 -0.34749333399853705 0.6118065956334688
P 6.142647545713729 7.679618892654366 5.634710984733345 0.4486305050611951 0.7424883131224632 0.15023984212657998
P 4.807668412039762 0.9228842077743793 12.384257682912429 -0.408804888423825 0.14726918953403026 1.7386838302292378
P 4.033401175892722 6.301957689689864 8.078767830403537 0.3396838652564473 -1.0489329567098062 -0.7755910092137029
P 4.714320642238957 1.0105229109821838 4.103956176971755 -1.235961942640278 0.6648327701215131 -1.22706849680539
P 0.1494379897754753 5.752201762815222 3.4525752399375005 0.6147888181902443 -0.5637683612783194 0.7285791592405388
Ni 1.5464864579289723 1.1617859896653266 2.733618890865132 -1.6317501070894609 0.8053553849603291 -1.2427586538471371
Ni 1.8048171902570547 6.778139153598509 4.689391957650564 -0.4706142084211379 -1.3888299664183241 0.3662261345213499
Ni 6.101161661804586 5.604708480485553 9.220461530465686 -0.4583145651181784 0.37152594946770856 -1.30843851254345
Ni 8.787630912219898 2.5405346338856374 10.478486977471226 0.4314946167118569 0.1773348985711591 -0.439516715685385
Ni 2.232299409926351 5.40229941473749 6.802891128982834 0.4855093803654155 0.6935573917497152 0.7538129941066631
Ni 0.5923754682929682 -0.023724343397583735 9.338902007244302 -0.6734091989366144 0.7345788284673994 0.21507200811061666
Ni 1.7428330386758961 1.0564673040401478 11.819074589422032 -1.312347874900185 -0.08256583581837393 -2.3575205932366106
Ni 3.9365826560837895 6.805678603401892 1.497889614407879 0.06533944463775843 0.3444614891507487 0.3600572867064767
Ni 5.865902808120601 7.760823568431962 7.875828637043267 -1.4782799309510413 0.7640272156355036 -0.10541651516430232
Ni 5.579035804837976 2.9817729854409274 4.724764609299964 0.012126350949888794 -1.1078551849673115 -0.4079196576053942
Ni 0.8174069369660616 7.757814980957555 7.0024492862385825 -0.9506803062837951 -1.4924729346219716 0.7635883283258721
Ni 4.630669223635787 4.424934400047039 6.693894173309878 0.4490290260511944 0.892025986975696 0.7887020926743642
Ni 8.066630173586608 7.371202428485777 8.812181710971897 1.0635527635055102 -0.6585268825081433 -0.2743523910384888
Ni 4.902257677274284 0.44977567161444354 10.323241145188678 -1.8245419636456384 -2.3731639562008224 0.12386572300842538
Ni 8.183493860544301 7.2678683231524515 4.850300640272739 -0.14019968428175852 -0.16911173933041843 -0.16650052695981646
Ni 7.149772202771508 6.111990764310359 6.7247050088911555 1.16742070323577 -0.7554453875037634 1.7011989459099024
Ni 2.0313493278631656 5.344945950503988 2.3620637749821336 -0.19807187400819437 -1.1786631089188089 0.5333282996209072
Ni 2.4975897662916156 5.497459586631312 11.574753725272966 -0.06242201388064734 -1.0651771864828108 -0.49669316489637677
Ni 0.6855293110698214 3.4237997319066804 4.0135145939271 3.161048695180214 0.34383748241350465 -1.2450163395330622
Ni 3.6432272533081664 2.490050173584668 2.554790988749304 1.2285669357277873 0.008138055726102114 1.0011939987626306
Ni 1.4182046377852766 3.3763147970696523 8.12032167939117 -0.9825326749077014 -0.03873958266204296 2.099101585598927
Ni 3.570993967891001 2.300817271052833 7.117400888988143 1.0290981813720663 2.1166601633079805 0.06762284135529643
Ni 4.084909643376246 6.974087005884969 5.736094945414585 -0.7283701285535262 -0.23185179867211686 0.25983157171449445
Ni 0.8028107567099545 7.086836540091515 11.325910011700776 0.06359032315713564 0.8636325234346675 -0.47256336172770874
P 0.14629528454618498 5.767172204103536 7.873838619545135 0.8044380153523824 -0.08139161300461467 -0.6919908185935437
P 8.68138790152728 1.7638750269758159 8.328606552724791 0.2956802059819876 -0.6173336960992852 -0.9079272315869846
P 1.949383443206502 3.5156160219388872 10.422290731974114 -0.3573504292982749 -0.24867375532546207 0.24183950601244802
P 3.7448667626845222 5.963808769185343 3.5636011797535874 0.5460112944052145 0.9757398203555842 0.886813332426505
P 6.934241345870006 3.980551530860366 10.244099889193983 1.027114061062502 -0.9225820053856821 0.23229274286427734
P 6.5117976040192955 7.6605342986149045 10.185079015034905 -1.2808477474093747 0.04310994381559673 0.9310741020170933
P 2.4451479117301886 8.530034202739488 5.94126248714822 0.28411178441809776 -0.28266888132398416 -0.7042475244737098
P 6.981137250026803 3.64522995762095 1.4702622631029845 -1.4514414706019583 0.1345784814402392 1.9077883704708047
Ni 5.285254487570494 2.6440862274701256 0.49059096674917124 -0.630977512134965 0.5767015244002198 -0.5094275817439098
Ni 1.8844722622451222 0.8964756968770383 7.4412744244070215 -2.029652232557853 -0.09366348839343225 -0.40030662114482674
Ni 6.9817806527698245 0.49383516649567044 9.343543569004517 1.270274856989535 1.2564855165149262 -0.9333592985068442
Ni 2.80999351506484 1.5941345089543715 9.534957697455297 -0.29880152521978864 0.00992908618825387 0.10763794829565335
Ni 6.194455059542602 1.715819185479488 2.50173835468253 0.3939310566357861 1.2196657765834156 1.018750262478839
Ni 4.377811945628615 6.786485265236849 10.45689401893503 -0.32722044268211387 0.7070659677591112 0.24261726471873699
Ni 8.175274617052471 7.117176151128609 0.3266383548117747 -0.5548905991727153 0.23317411702796617 0.6379503439083722
Ni 7.829740158018907 3.9148247689571285 8.164541571857628 0.08971761637180677 -0.44572335871672913 -0.8242771615654966
Ni 3.174295397771587 8.193616126233795 12.478704674582648 0.41914380845598787 -0.3522866416221223 -0.5264475133406739
Ni 9.061847348893268 5.1255728011652915 9.956939276772287 0.2595029847304821 -0.6710155018934573 0.8594884193593069
Ni 9.068988213139752 2.3127700628562757 6.103829517685505 -1.3323220040292667 -0.39677315407027147 0.3044918907363466
Ni 3.6690539831336495 2.777696509767289 11.675023058667001 -0.42004986521002496 -0.22233203210713967 0.3242631598260028
Ni 1.402373305502779 3.404842006013729 12.657306932637898 -1.3485914306132516 0.37616190557782314 -0.02429024000593236
Ni 3.4148464655671797 8.274666747833487 8.498627086869607 1.0518784124913756 1.7063082421120097 -1.7456152672417484
Ni 5.297868806137889 7.977170006275322 3.3417876309966448 -0.11112564973393765 -0.7359263436342294 1.3783416652924907
Ni 2.743134001853468 8.460220474116499 3.521291559093168 2.457376840704316 -0.057999716443235594 -0.15378102251061904
Ni 3.4755166256309007 4.630932021939275 9.255701876762295 0.0646295630549274 -0.7693416858698815 -0.0323367644594927
Ni 7.171956004390027 6.0967937727604165 11.5113957729053 0.7324471268363774 -0.9091461915957504 -0.11256649594552227
Ni 0.626533810540047 9.163958082813808 0.4755996828367867 -1.3574745920354945 -0.2369515817925274 -0.23103007410176984
Ni 4.616025014724216 0.22609806730483342 1.4575165453838475 -0.3389333602436679 -0.2457722654079509 -0.6360366718254271
Ni 6.070097089930285 5.571777134455446 0.6219375588321576 0.26614285864450293 0.3488678457485605 -0.4563620693774979
Ni 8.081464684717947 8.473958481981562 11.587711494036986 -0.5870787538694857 0.6375201983494891 -0.46435434355435506
Ni 9.230473239627509 5.053620438072543 5.621553851739093 -0.9442695176614447 -0.1439745779431585 0.8522515352912354
Ni 7.811933307455022 9.063822867174656 2.7838197102385447 1.4064139980486747 -1.4781308069676866 -1.9194570650579843
P 8.631510595927471 1.7064762526899888 3.7225869037550727 -0.7917439648244816 -0.368771526651023 0.7993168920757332
P 1.793308436966401 3.090145568592839 1.676822635845102 -0.5404535978117788 1.263401012687837 -0.6225664052531342
P 4.991600038449524 1.038533585329751 8.259160741726685 -0.018113678881575255 0.3211693513920275 0.40997576880347464
P 8.559549170824258 1.3320249182623503 12.3066551562947 0.3194474836049144 1.5083029596756927 0.04692931756168692
P 6.418694508501047 7.981338531089259 1.4891221192829125 0.11000182054213958 -0.9989766793963377 -0.9768906461305757
P 1.8413370924313337 3.373596193930128 6.107834926311071 1.5102541698647924 0.27383868462686384 -2.5165518084025758
P 6.763096216226474 4.088842555918092 6.146059392653832 0.3020627124695636 -0.43314629338266697 -0.42152953507934493
P 2.3989679064001326 8.520201921384874 10.286024374409637 0.28467639867231614 -0.057794285300648854 2.273732969195994
