# total energy = -340861.4190704628 ev
CRYSTAL
PRIMVEC
9.43187013420250 0.00000000000000 0.00000000000000

0.00000000000000 9.43187013420250 0.00000000000000

0.00000000000000 0.00000000000000 13.80449532945187

PRIMCOORD
 96 1
Ni 7.036165497750584 4.682857371758784 9.003995931354838 0.24039994535244402 -0.38961108910419356 0.8403892366360106
Ni 3.0295543325654304 3.3332416789245722 0.9175360745622662 1.4403947258694936 0.09903889377273266 -0.6413477996256955
Ni 6.365568981234385 9.40539462009788 2.819940456377917 1.5415624930597709 1.201065644983725 0.5201678509795493
Ni 7.533196744756227 7.528952403310746 4.665464060515201 0.14235426873091614 -0.16673064069275156 -0.6108020656283546
Ni 6.146268574681295 7.401688183035453 9.295684996041098 -0.492998489653609 -1.8843393954192451 -0.002668033750466373
Ni 5.333760143967949 4.676377677152016 10.947323310200835 0.3212685959740532 0.1341827886637173 0.258241087298923
Ni 0.6163792988916192 9.354009792997918 8.327547882765801 0.26748420316374577 -1.2408215847254245 1.534586833072886
Ni 3.15554525040708 9.09047391671303 13.03954690288926 -0.05332030868969527 -0.3051907165755841 -1.4671216003413765
Ni 5.925260999680132 3.0634147454304945 6.383971502555005 -0.10748239655439554 1.1668972266321325 -0.7688698884397855
Ni 6.6882615453994045 0.24727155986580138 10.62933724910536 0.6950103221461579 -0.6016221989012993 -0.8609395499835367
Ni 8.602402946092294 1.895117319147253 8.943739487446832 0.650332519622809 -0.8569417416780533 1.605271601182958
Ni 6.983884643012131 6.627897578174778 11.353617139410998 -0.07530195516710902 -1.5726849254961883 -1.0349939780312112
Ni 1.149839256930336 7.093813086450102 6.907879805967412 -1.1832790104242652 -0.29730642873150087 0.7911495257735923
Ni 0.30873151037034946 5.452347043954703 9.582596818633721 -3.0187720737647687 2.3115711230896903 0.8828414922629504
Ni 2.657240700967792 5.919516990923914 9.567204950178429 -1.5485762053734424 -0.34521585081826994 -1.0790086930492644
Ni 0.0708842748874928 8.663804419003593 2.88037704900061 -1.977430042028343 -0.1719507514411103 2.4526267276138407
Ni 0.7926807538540304 4.230825575945124 0.9709270603854598 -0.3525445232691993 -0.590796311930389 -0.14011920875281028
Ni 1.8744803878523342 2.825344917818497 12.755877757160986 -0.11981212176434204 -2.9645138266418365 2.4524184682577763
Ni 3.1523950058675445 1.500101176751228 5.185092181376587 0.7883848185442616 0.37760326601004 -1.1840151172593414
Ni 3.710082608064057 1.8109567442182941 7.4385111462294615 -0.2767792553124266 -1.2238448476617698 0.28214077673465604
Ni 7.202722887941158 2.4959274304298584 2.4090910340162703 0.49727449132114365 0.34801115417522 -0.08960783026681986
Ni 5.853776857868345 2.170216667903607 8.549496758380872 0.6640879215356885 -1.1811753338177013 0.7378359019521163
Ni 0.62493589124571 3.1433309789139714 10.995239095559356 -2.1443301184194232 -0.1789660064166789 -0.8012616745069298
Ni 1.23797064907829 1.9951800266919495 2.758331482329283 -1.300187328278251 -0.8134317342105604 0.5535819076636208
P 6.851206529426379 1.7197882899693513 0.42695811292773095 0.40835880202534186 -0.7314040302838436 -1.6688372417497452
P 0.5571056558249882 6.96719023332657 4.750182058954 -0.42838666721049445 0.7413991938233425 0.46376633226136904
P 8.033208462643586 4.55690418139665 11.132524677580927 -0.37057104175360694 -0.23608820535096758 0.30236944507670505
P 1.4578935590433841 6.886236494156419 11.106834150404922 -1.1505624940278507 0.10022185833724029 0.8470537931403799
P 0.5614801570747978 1.7734273339703588 0.702556407600676 1.4592812783613511 0.8054314896139032 0.5677623129290608
P 1.4341724062980818 3.8940795256606204 9.164804596854255 1.958087375835673 -1.2298092927753208 -1.5574138582697308
P 4.537436801966708 3.875593060698079 12.81585879046853 -2.2869330128260357 -1.0123124772732954 -0.7812980869008094
P 8.835964339902201 3.221389134031316 4.0059679116594165 0.06026382988706395 0.6558007418262318 -0.47482387562711126
Ni 3.590882636535179 6.6874032452404295 11.608420990562047 1.337481179632703 1.1631693841585837 0.39543052399944806
Ni 8.595479953601219 3.292137589992554 13.49849037295014 -0.7904823245032386 -0.05422096612709372 -0.7541109849630561
Ni 0.058672832955348544 5.665799691182908 12.488719099655635 -0.3377123433523732 -0.2836171041698664 -0.4819178063594151
Ni 3.045899763065474 7.975145871669399 5.801614844690365 -0.9925921160262325 1.0157464426555087 -0.30210590700267326
Ni 0.2894867230695484 4.13827063682399 7.056650575940454 0.4211834645938359 0.2625667112574704 2.78834826578843
Ni 0.6105192781358912 8.723970316960763 0.8445532086267297 -0.13049222718600753 0.31477476071959337 -1.5228266072131644
Ni 7.681890173396263 8.853847165192496 8.136825098758631 -0.623001950128656 0.5859392409484038 0.5538927540358202
Ni 4.322154371982007 3.9929349538608245 7.898904294690721 0.3743809024180004 0.1413505100567501 0.587795320320536
Ni 0.6708700407426867 8.74331508208228 12.24646435137839 1.0652890294703268 -0.9687703310162864 -1.9903236101615593
Ni 1.3769964110925066 3.834507835505818 5.061542231459584 -2.062707877461241 -0.5985571868227304 0.3779562784740846
Ni 7.172672950507149 1.0619813890088687 6.620276627312669 0.4543815486123594 0.19217762001094646 0.7889466045850025
Ni 8.559704871150748 5.068498235495234 5.400691522189216 -0.023571359562036823 0.7458119781790575 -1.5175229356120639
Ni 0.647365821004598 6.159680693649015 2.7744552638871736 -0.2923737673165739 -0.71196597616389 -1.058795708436499
Ni 5.585911753309067 2.522864850803848 4.089236231697836 0.6774046932492528 -2.3485628698226906 -0.0030259313105173696
Ni 4.381056399375412 9.147904572405334 10.645515735508548 1.2862632619979912 0.1938804616346661 0.6943958284906105
Ni 4.005290703402115 7.087154186315636 0.5136360539273543 0.8741452500405333 0.11366512832633974 -0.17808771757678363
Ni 2.2373055583518515 7.929495621455776 3.300213156982823 1.216041806677583 0.685879049268851 -0.06950283198682869
Ni 6.808715955622169 2.2548488363265085 11.810339404115409 2.6051034294907396 1.2283918436025036 1.705718945267443
Ni 9.003568667649327 8.593518124666419 6.148121937112487 -0.22648539215388092 1.0376555840237742 -0.5381429474007312
Ni 2.2122073526042376 3.9550188369478563 3.06849097779929 0.9925566348026068 2.4672023114351704 -1.6078365336966567
Ni 4.846670087814613 1.2906759379612913 12.986026700448727 0.3426339490237067 0.8949321048788975 -0.3788615638971733
Ni 2.0548554674154196 1.8552016458199692 9.285248632020153 0.05410732336736488 -0.4101678302096226 0.266190938273619
Ni 8.135280158472478 1.1928674473176397 4.442190007182152 1.812206582008737 0.042225741438430504 -0.927154712358029
Ni 8.81133772764853 0.8355052158519509 13.126887904341368 -2.312122881828102 1.5582731209462324 -0.39862460545671347
P 2.591377953603798 1.2549008555108216 11.428313776103522 1.0545544166616418 -0.7799202327166762 -0.1612480203116255
P 4.612693691730035 6.499095963109233 5.491276143692659 1.2087720124890473 -1.01945217364187 -0.26970512207446456
P 8.376273865746917 7.189999295474593 1.2372170426749698 -0.1416497864647238 -0.07204488168239206 -0.17749173586399752
P 2.0106199976836234 0.2299886014998007 6.79037568464275 0.6518795523949548 0.3338065805400638 -0.5571086898699567
P 3.635561404151281 2.3342934763160432 2.9802662101395354 -2.102835598720062 0.9260913040905211 2.127116325644298
P 6.248689249695702 0.4599592824468315 4.863378645304992 -2.085551100608002 -1.054204489521391 0.7686287189632569
P 5.267350348150982 7.801524010939569 12.564740914066135 0.645407828627682 0.5317493851695616 -0.23527496542105286
P 8.863901538483349 0.8942025716689845 10.709527006815325 -0.1917886121026439 -1.5128751524274073 2.5456273856122937
Ni 2.8225153568548422 5.834724480713072 4.603081673136501 -2.4287766604691203 0.8234690638419043 -0.4500507824474894
Ni 3.6305719449853706 7.877186471107685 8.071433001701593 0.38958614940352904 -0.020332283799448854 0.89236974346836
Ni 5.00992632354759 2.282069212796863 10.70697379963912 -2.678595842252935 -0.46962304815246214 -0.7927477234986476
Ni 4.2816067633728405 6.431969345181472 2.7188506182034144 -0.5555053499385788 -0.7628532499320604 0.18955432345548645
Ni 2.9058742228440995 5.693255864400234 6.970137692663711 0.7946472545142057 -0.8015524662744712 0.5814300402241406
Ni 2.271458359183159 8.772685924885012 10.214015234047162 -1.8787670435377903 -0.15913277374083562 -0.1440260000063842
Ni 2.5687414658945635 4.5900572040208 11.820471118739269 0.6481391115159161 1.7139511033692478 -0.8679056968887247
Ni 8.644299312094136 8.075774491406827 10.175100282114025 0.8006173560547115 -0.2805747177991168 0.35195496931431647
Ni 5.877394260044979 7.855106463721302 6.4619532595263305 0.2321844994211872 2.5446819909798886 -0.03889487729298463
Ni 8.074359710925 4.719528481847743 1.9312347784743251 0.39650395956928486 1.092334463623893 0.18095295493972063
Ni 1.1536308686216328 0.5298871657286092 4.5985392846028486 -0.49926863893303686 -0.8657994491789992 0.8819326072954359
Ni 6.168640970033921 4.013430407107561 0.25331078614922764 0.5775924116456052 -1.2438868539143093 1.0088121774295207
Ni 6.5595353852928895 6.872588578441727 2.503527631178234 1.090183478719161 -0.04964697360316611 -0.29546886130212985
Ni 5.982955747729044 8.543283985691675 0.837518920071085 -0.26271403546861205 0.017922903027007844 -2.4636793858835766
Ni 6.5017180229355525 5.734935297394862 6.94967996689649 0.36128370291441003 -0.9284052969356784 -0.44298513384995963
Ni 2.5320043327164514 0.7292042695693847 1.2054033455736164 0.2722325164820085 0.37003470963416274 0.18702024417972307
Ni 4.4034570903376755 4.342291414173347 4.073236950822347 -1.4630019217460482 -0.22338052797631208 0.06850421551898525
Ni 4.634207786923687 8.479288748563693 4.164981692320887 0.45283734405369114 -0.42155498900064176 0.5361642264078056
Ni 1.8960133467857436 7.133162847584655 13.556690669224558 -1.0024594957386153 -1.2712781014430685 -0.6186696413018894
Ni 4.854111833149024 1.6905400614750443 1.5508380343905142 1.858978290946637 -0.8722560034376204 -1.331014598071753
Ni 6.724819473049818 6.2253359398756745 13.6121566664211 0.5101981413613472 0.5809680129860575 1.3222844172876067
Ni 7.739415147787355 8.273230687320504 12.621698089890522 -0.29997086293754144 0.1713920507241629 0.8130293565658191
Ni 6.405267721554455 5.26597329514867 4.363380132035463 0.8130134157262191 0.876484182586355 1.0650234345137657
Ni 0.3136068439107259 1.7140537130830118 6.974210374077397 0.21216948975184105 0.449532190939858 -1.8716157772049895
P 4.236645039660373 9.068591978594103 2.128542894030906 -0.5941855401175961 -1.8628416305567854 -0.39959468267946663
P 5.94198370497533 4.640272479255786 2.350063562753477 -0.5985137351793047 0.5009809936384534 0.03413910777555411
P 7.839685356469387 3.0536810557155234 7.532809094904206 -1.784241464254379 2.1519652663671773 -2.3624121170009573
P 3.1839729062219266 3.5844783968874414 5.988776154631281 1.869427511304419 -0.008060408410631279 0.8140593404922304
P 4.603723983475251 5.674326101553387 9.149881492331941 2.477484410087469 0.998915744251415 -0.40612451337818445
P 5.447904633241765 9.07027085143254 8.307862627141658 -0.4331226392335831 2.949503469275933 0.19693878884501567
P 2.38433897789321 5.512192258335992 1.2455529292738958 1.2797907668997701 1.261917229053459 0.79435209187129
P 8.315061030233196 6.880511349139959 7.815759532147713 0.4345490872674645 -0.83027066014477 0.16721349386644105
