# total energy = -340858.665726315 ev
CRYSTAL
PRIMVEC
9.40592406371765 0.00000000000000 0.00000000000000

0.00000000000000 9.40592406371765 0.00000000000000

0.00000000000000 0.00000000000000 13.76652063262710

PRIMCOORD
 96 1
Ni 0.017942740223988243 3.6244316440608664 4.994094048756031 2.5732340915859684 1.2791014541422294 0.7281819238021201
Ni 4.572539356284493 2.8219840676669117 9.207420234864317 0.6039133089283213 0.29374185130869407 2.697170777041645
Ni 6.636547055241984 1.3603787579133044 2.425165073581327 -0.06050062848821838 -0.967093714644812 -0.7672212970927691
Ni 1.2567160718110952 6.177472132767568 9.812280391954827 1.496173009181378 -0.8406849134995587 -1.2427188017481372
Ni 2.3141300244116185 0.8822558991694416 9.640817925981285 -0.33093388697795906 1.2763200347423505 -0.1618465731275729
Ni 3.8088629977576383 3.610125233974535 12.878483627304544 -1.0031364672009822 -2.0404308112305958 -0.7986862004702697
Ni 4.8128230854530845 0.5773675824413713 12.330383517331699 0.41550389771055535 -0.7162031541736892 -0.041311971374909495
Ni 5.791086189351122 4.977003485227521 12.925454929532764 -0.26011207906939077 0.4150719523794593 0.3860825071256448
Ni 8.559503521027464 8.611339567040464 0.38708010059223286 1.1999449011157206 0.6119253805995203 0.06305347681705915
Ni 8.626059837773605 4.721341070660408 2.295140404869676 -0.16114414774390956 -0.7114417282293037 -0.1282096017994179
Ni 6.318231782302054 1.4977334630353953 8.14534752821004 0.17827540810755751 1.23227523781731 -0.6913123044692804
Ni 4.722817800695617 0.4907371431401674 6.485958215345752 -0.4309904233819287 -2.0314928853110175 -0.03793122782813467
Ni 2.3310794990832617 8.399659252120744 2.006195128967596 -0.6775610163214589 -0.8809571307560441 2.412228783412768
Ni 6.164567205326118 2.593269624761429 12.585765635369837 0.7378580134393035 0.22387957909991765 -0.8810502046904827
Ni 7.458116874703337 3.551874347935974 8.505341390060913 -1.6328330557409942 -1.3045692593960307 1.2494818315035836
Ni 9.19645386831622 6.820743260843976 11.333315149998025 -0.5076995433092094 -0.2626857533338379 1.2328786757292636
Ni 8.486983848597735 1.561816021824466 5.583439134553047 -0.29553570998432327 -0.0499148825525721 1.5632116958984303
Ni 2.5429855561739676 6.915131706088117 11.813353995418144 -1.7427790833445338 -1.812172386336692 -0.39087067254290747
Ni 3.967559743961837 6.687498944418616 4.709857378303799 0.9321668208606397 -0.6342939781027075 -0.6222974678624638
Ni 7.927284353405651 2.810593493955835 3.5317597799086102 -0.2880784823753296 0.3269605041525079 -0.2418310213720158
Ni 4.332867012162327 7.442314922734213 2.4555621974971706 1.6630568876225422 -1.0782093370764205 -0.5571063758771115
Ni 9.201213265754541 6.485723067250974 0.9235178056564366 0.11361730580753981 -0.34881128147901214 -0.39780930864426967
Ni 9.122457465851284 9.37634216082187 4.145153931654825 -0.4685005045122448 -1.2816694719797217 -0.8707822471055713
Ni 9.086649113978394 1.0208343149767602 1.750316378153287 -0.7065088097040607 -0.49725083717205976 2.419781141838729
P 5.815127730561289 6.306765961200648 6.005259074075495 -1.415290474602698 0.32001981116861655 0.8146892607667453
P 3.03842378002495 8.2587491078056 9.47482124232278 -0.8267171384655568 -0.9067563512073352 0.26987507199342553
P 3.2769203836732226 5.565729661239079 13.183755705723293 0.07819573177513629 0.6521993976282187 0.9903619411441331
P 0.11818072947384162 1.0813144049538228 10.581607829495402 -0.025436180684917483 -0.4496746300549933 -1.99299267235329
P 0.7175769854340744 3.0458074302009983 2.7549555735464537 -2.2607352713847453 2.5864989270156746 -0.9828774598416299
P 6.096524752620975 6.386264829083405 1.2049242336399135 0.4116878663985748 1.1338765487317375 -1.4045949425620647
P 5.426888820157987 2.9914694084595537 3.353235346352678 0.34058889356921984 -0.21499924589115232 -0.5370080624653396
P 0.09464334577888031 7.686088249629319 2.7838515120252305 -0.04190538198453428 0.14182487859000736 -0.4169581136585787
Ni 6.373905445221841 8.33241630293785 0.001082621828360792 -2.6543714224879316 -1.1256065954134615 -0.17648000677003153
Ni 4.757610312799063 7.508165795196019 7.805011106490282 -0.576842163743142 -1.8279972691840904 -0.370611150962923
Ni 9.012624493742083 1.2722922816092312 12.589813004377165 -0.9514608932035614 -0.08201767662438778 0.47479636482328547
Ni 7.102055629589542 7.982487720135881 2.301293760213843 1.457373262705361 0.46474952211024473 -1.2386659718350024
Ni 6.21166266574838 5.024446964830056 2.815983088288161 1.4419433013035359 -0.6202287582588932 2.2515618324155935
Ni 2.3815328742989634 1.1354360904480711 7.198444714824059 -1.2286463828154712 -0.5544779371153289 -0.5422158319185243
Ni 3.0279737986929876 7.937950670984809 6.383686665372253 -1.4511892453818362 0.8086319988290719 0.5387486993055302
Ni 1.9872459548979553 1.5468794148441278 12.206112452203092 -0.085731120920233 2.2688982668115116 1.1332931654244418
Ni 6.8001819114365345 6.06568272850981 11.038367954124817 1.1500690993312 -0.49523689206582455 0.8965642411656818
Ni 6.981772676148379 6.963901420945204 4.25809462098462 -0.29622527985218017 -1.1620131590669536 1.0827756162908642
Ni 7.051160175955656 8.066144006334325 9.679130134767378 0.6270450098497782 0.29138337837884654 0.1443898111037062
Ni 6.105338103213278 1.8419150264009738 5.154391683189483 1.2941426647460679 -0.5865365082127705 -0.8929484987899653
Ni 2.1246853133341665 1.7210677175323426 2.1733346323667266 2.8479842322835083 -1.6574418554286101 -1.6288625011290205
Ni 8.188411609695418 7.622250244858817 7.634581410949009 1.5873669529883951 -1.0643888862535604 0.2735193536142322
Ni 4.609570478250231 4.895087294930439 7.508562725180005 -0.27632545560445954 0.39529708374537725 -0.9434835314250396
Ni 1.3234887248044336 4.227511259777712 11.844259979811088 0.9048334231530095 0.21819744111347586 -0.19947389656204356
Ni 4.339912049081895 6.196472098825682 10.468131002509512 -0.12848470983767551 0.6597630689080896 0.11191626395603306
Ni 8.144928024008955 4.021211133266528 11.305327823757473 0.41002076310879704 -0.07971988172914658 1.2868085929785
Ni 4.551517116611285 4.934582768929457 1.3440256188100197 -2.8267834298361767 2.8200206571910464 -2.266280112462374
Ni 5.89440085627306 9.035659601106598 3.928331398198488 -1.4720804870085484 0.4310104779865867 1.240906688240063
Ni 0.5210938215837089 8.412244378153297 9.358081500373741 0.11480952634342807 0.9541340691603504 0.25506551778441877
Ni 3.612166319437214 7.999192640788954 -0.021269615468916234 0.546404158968259 -0.011541424980696253 0.11572123952442005
Ni 4.377959010817077 3.993247321835454 5.132585930064471 0.41791173582109964 1.4954158193003795 -1.258428756284226
Ni 2.703572893060187 9.030467531173885 11.620801567120099 0.7850927780565511 -0.5430226440905357 -0.3974814929912058
P 5.6885710259514335 7.771051959234732 11.531622122471493 -0.5340983450177124 1.5444102469212113 0.2683000141968218
P 6.317705050569749 8.923296435497578 7.646916339408715 1.681973007800755 -1.0750275969143293 -0.7777749042388993
P 0.7417699620172786 8.582604469858515 6.393102935679568 -0.5154249369779252 0.1480513191156934 0.10572453332302437
P 6.683379149798095 1.0510273303463358 0.26069270261061717 0.7506150559946556 0.2658906334243808 -0.19260905112141022
P 6.118158377340608 3.8568049913211047 10.612610694903395 -0.7329616045789505 -0.31578880380640456 0.00112100097832065
P 3.7848684861664275 1.3759455617876495 0.33125688348416626 -1.6144080162665873 -0.07539194377775404 -0.7149859939371364
P 9.212585027618035 4.7099504969493315 13.24589782243425 -0.7189503779015232 -0.25324954762160257 1.0914332919658623
P 2.8013098471739744 2.8589117244709468 10.781621977136963 0.6914547435844156 0.8233479648830078 -1.5333578457617913
Ni 0.12930605613400795 3.1787507570650417 7.328689482152423 0.18087736450677883 -2.563205760815689 -1.8872272584900016
Ni 1.6960667720954792 4.845790848341048 1.2054058169380197 0.9397148084112267 -0.6751323522753082 -1.3305530850543021
Ni 4.181459856896266 2.633338860111707 7.037789655286543 0.5892194543615724 -0.156600237126969 -0.8667003637267139
Ni 1.4135128214094825 0.15185205546138256 0.511812055986607 0.28652759294844204 0.4491928053225684 -2.837657139325887
Ni 1.6138589981608717 7.853918147834719 4.474091314332095 0.9955524842061371 0.49504740176283774 -0.693257086900477
Ni 0.6859599132025196 5.2435861773161525 7.483398116669176 0.2932823951737723 2.686558291633122 0.2728902046706655
Ni 8.781643223202936 1.2231181120291252 8.427464103439748 0.49386263742611725 -0.5287563639795088 0.2604720335119708
Ni 2.3366948355865755 3.301385191453991 8.544246172045847 -0.1255603371020289 0.44889841401060104 0.07002939391426004
Ni 1.2768823724193101 1.7525117207661405 4.236811837222396 0.5378333865801124 -1.284903148425671 2.865866768990884
Ni 7.318100293148352 1.452189980038671 10.393529799144805 -0.19290729908811938 0.4118994681887487 0.4831861315488775
Ni 1.1047633729651474 5.689191816921648 3.1943279074555577 1.0796406702063084 0.7236765797325988 1.5125157122054596
Ni 6.055505518967791 5.768370883395507 8.948018024997845 1.5675170081420036 -0.47632539987330225 -0.6013969702643708
Ni 7.6814229114289105 4.976119328391153 6.609898191956911 0.4567112251868005 2.174718758013609 1.0307202903565218
Ni 7.431959000640162 8.67777360677732 5.735380546290445 -0.19244707162224922 1.1829815337885048 -0.055416271986775525
Ni 4.393789180557573 0.5477464472382974 2.232392546666568 -0.2519056319991984 0.07171860869122487 -0.645849801261107
Ni 2.5300618168849347 5.260328721664391 6.063256940764073 -0.3733756010819376 -0.17421435066430643 -0.35483974706127924
Ni 3.92429249452257 1.780635432901664 4.504267399038847 -1.880836267361993 -1.1034262026616803 -0.8571224902302915
Ni 7.7514970436729405 8.72106907398796 11.966451395189473 0.1354832526426957 0.021107214292260423 -1.4657612296587401
Ni 0.7760169305408378 2.5114286818546763 0.4382981774121548 2.850971082825974 2.141440969797086 -1.2160220091832412
Ni 5.124629459129542 2.9629036179058463 1.006257954877623 1.514074057831515 -3.0979769635307095 0.9265762141467397
Ni 0.15871837982891843 3.9338018834754176 9.408769083091844 1.20970558004691 -0.25584481915260454 2.4958053198838437
Ni 9.414012885605407 6.426841984318405 5.30503883981322 -0.580503157534497 0.06085826893795326 0.5719421553383633
Ni 5.0110435234276745 9.193255854227232 9.32483532214156 -1.0883389693112546 1.5002721189514163 2.112010837461427
Ni 8.114876097496246 2.806031620917129 0.6899226288957291 -3.256193396104863 1.4029329814786098 -0.5354312048965231
P 2.353352726620693 2.965085792225392 5.7793363093512236 -0.31140198759261856 0.08000450284910092 0.394022845018644
P 7.8978250000917845 4.987820297587337 4.5972741140780675 -0.23365002822312017 0.5125977519417753 -3.6395826726690608
P 0.7179908460808849 8.434555229385893 12.533962510090106 -0.4452585032651687 -0.46337758146338265 0.016560732572158576
P 2.820827139040601 5.86335190183849 8.228496835116141 -0.37726825126812447 -0.15242373715177618 -0.021970590733820225
P 3.397701851075316 9.095631771198937 3.973582356965307 0.2425429598373758 -0.8708784063638033 0.323573589958146
P 8.256830299352208 5.490726824928489 8.757310098355243 0.7224601908269945 2.515796932514422 0.6153274643025338
P 3.493538808583293 5.079603301941331 3.086344139963696 -1.4427966504427667 1.1611114731882906 1.8682831132873308
P 6.590053573942354 3.2932584732984416 6.494067062246097 -1.5964046377106313 -1.761647638114263 1.3884363305243315
