# total energy = -340860.6392930194 ev
CRYSTAL
PRIMVEC
9.37296933793997 0.00000000000000 0.00000000000000
0.00000000000000 9.37296933793997 0.00000000000000
0.00000000000000 0.00000000000000 13.71828806032959
PRIMCOORD
 96 1
Ni 3.2960890042095228 8.21907240534237 11.290686293659466 -0.4223695144821371 0.7402267707817961 -0.917201457800059
Ni 6.2086642243690395 4.749302280365279 10.044818094739105 -0.16907831498932172 0.7105621538378278 -0.8983470440977175
Ni 3.573322689587998 6.83321328643625 13.046119716701641 0.9673670229108565 -0.5591879409964886 1.295540573534859
Ni 1.7492960027573066 6.672120063412386 0.7511806889374794 -2.681369034122698 -1.6167731740646543 0.7960816729678871
Ni 5.743905542595705 8.715952252839962 3.9689754061531732 1.2349301589416537 0.18159804472288724 0.1802088776848445
Ni 4.658103289266065 2.490735364721568 1.1759561583540796 0.2171288906396454 -0.9831253141863777 0.014714166281723047
Ni 5.416920136276364 4.226196864820864 2.7924531204545513 -0.286027770493888 0.06604007024920885 -1.3414725601802833
Ni 2.448781954222073 3.5036721548646415 11.471026909100827 1.4944385429887745 0.24607565558098268 0.6069736930211997
Ni 5.621232120652589 0.3350255393681502 12.697770501501267 -0.9325596854236843 1.4405600478027643 -0.7648635954938698
Ni 8.608866078810308 7.608760883612232 9.441735006918083 2.0049642428928696 -0.8796145006852206 -0.6835737981744421
Ni 7.939036202149028 6.564227814024609 12.996431731951883 0.09625541749032455 -1.003854576313929 -0.6131867638104472
Ni 0.9017358825992833 6.227766335762688 7.260376051128592 -0.9095639958594592 0.877829640870656 0.9202052776233896
Ni 9.215128477811273 2.128807528924541 1.54208683357648 -1.047322674799893 -0.1835078601510904 0.32238908273174155
Ni 1.649117707087378 1.2851184450793625 12.045904857762983 0.4807523252964043 -0.6648106586343261 0.05162877991988528
Ni 0.7025452886379199 7.450095259632016 11.453083296710247 -0.6291545999936132 -0.6623783950437496 -1.8210810016802312
Ni 0.7445858677517232 1.8123667130457561 5.3967879355587876 -0.5293957973357205 1.1771952661240306 1.1149205764545251
Ni 5.867375666927663 3.0437686711786025 12.063601961061487 -0.507504653689584 -1.0194030655714894 0.0022605138994025585
Ni 5.797762624081427 9.445234873647422 1.7031941160542647 -0.8449845693161769 0.5121084710101825 -1.0676906969332836
Ni 0.3876913164583225 3.4723476915292277 10.583000868668123 -0.24684312987462648 -2.128885244619263 -0.48451976275863656
Ni 3.1755713652009208 2.9606116877220527 3.879353885783866 1.0660783581408413 -3.205994149542653 -0.6303247090423144
Ni 9.079501612322513 5.010480069366267 0.6918169879994654 3.0026517711641385 -0.4430080166680951 -0.45745144578693475
Ni 3.8681681842445235 4.121219608879322 7.128104708642249 2.097780038574026 -0.7762520398364696 -2.257091761094887
Ni 6.327344761398664 7.344180706762425 6.7099709252578075 -0.6618744588241374 -1.6140254361161879 -0.34478647659033523
Ni 9.161955623083026 4.326000241719573 8.495488767799587 -0.19876864296490285 -0.8223241516041838 -0.8152914131271185
P 1.7905464405607643 8.186370115522724 12.980806992161298 0.765285770632953 1.2196526639572929 0.9433652606796205
P 3.6809618688052006 5.426874229652248 2.0892948396256874 0.41590961778940627 0.9023109138414717 1.295624391497917
P 7.6868752095958754 1.3525194671754006 11.83435506650836 0.6448319015195539 1.2761143464894473 -1.9850564482253492
P 1.9939211280089404 8.309699645315474 7.038949962143111 -1.0318232936127132 -0.8635859864674481 -1.0248028964308222
P 9.114922063233504 8.92488511107147 2.8941198436462225 -1.3370664606927876 0.3155260370633211 -0.7099790276408482
P 5.107668387835717 5.532882512214645 6.059669630092438 0.07160856547592183 0.8270266992861758 -0.9908324530226486
P 4.55248867141345 1.9210556648223738 5.6802762033381375 -0.4901327380700398 -0.18429590327002454 0.19128750409650927
P 7.220673090553344 5.51725777242406 1.3466341797641777 -0.8419627517707178 2.2065281892147226 1.6522963066719287
Ni 9.208361193990756 2.8149651180724438 13.08455826372095 0.632165361795479 0.2341979303067902 -1.7351722175315536
Ni 9.273915741138536 6.510830008033631 2.8754770077473184 -1.0957990251337257 0.19438234097174908 -1.2220263063957921
Ni 7.022594130748647 3.866349828204107 0.158247589550306 2.602079040842119 -1.424947538076488 0.08316181753116
Ni 3.322614507273323 0.5864366943788625 7.10128583163997 -0.2745791623373142 3.177367229834579 2.0296175226651756
Ni 0.11729521216996809 1.1471014724240762 10.00603649704413 -0.43369933767265956 -0.9267456498450685 0.7636898869007428
Ni 7.312903108273414 1.559690207182177 0.09439048713922293 -0.53323779678963 -0.911730664493475 2.09371332470382
Ni 6.493518133772557 2.098532838148543 9.908774132117363 1.7466005139731533 -0.03412933758354122 0.4032474489407055
Ni 2.3929284302796043 1.7162000482278794 9.102015484534261 0.39690865120687124 1.1099573189119787 0.99406664368923
Ni 4.339272366220753 5.160813123656124 11.708777898682145 0.4108409450172473 0.8429258870149353 -1.0370143508953493
Ni 5.755631127165604 7.50093424500942 11.79591651948905 0.5595080433400687 -1.3800727890509845 -1.9355519137373183
Ni 2.484380491549392 0.2913409414425481 4.903547612032814 0.46269238247089994 0.4327300317808548 0.213758945726148
Ni 7.85251432272078 1.0621448788656713 4.2203350098328425 0.7072575149446272 -0.8233204540791821 -1.2881872184935816
Ni 4.738551484600551 2.446204387669937 8.427858107956176 -0.2347985400052666 -3.148179809637346 -3.313097308380759
Ni 0.2536831627643041 0.6627214167589535 7.567432650163746 0.8187199791926932 0.5207903150548967 -0.24016391808223797
Ni 1.614222142456096 4.227855880383512 5.973217110636866 -0.9525361285456111 0.09539718325508731 0.6035875501577863
Ni 3.015837222722728 6.370966560430088 6.402242284325244 0.8281659550969416 0.4367826045836736 -0.08698453371135986
Ni 6.791231757028913 0.3795583910136372 6.420597370067236 -0.28007540956519505 1.7895456500761115 -0.1040376325389047
Ni 0.6875832177754659 9.034614462438224 0.9829029846775842 0.21656196239258188 0.8711843676399964 -0.936812032942135
Ni 1.306423204253927 1.764461467053147 3.195318336881067 0.6488492502090631 -1.311126600898574 -0.16805141638670412
Ni 7.733618207397703 2.8170365442834333 5.663128356039472 0.6085101842703842 0.8410667223190095 0.6433810280056403
Ni 5.040689149357301 4.5416066540787945 0.1178444681698051 -2.723503758509219 2.0921506082023904 0.9852480169563355
Ni 3.633862698170714 8.00748699680448 8.72819241342336 -0.15900627546530036 0.2663868563345089 -0.7683191581426381
Ni 7.3401034651254085 9.089736894776813 10.483173122049285 -1.5352370650623754 0.6427099700805448 -0.9088787968669766
Ni 8.497393355157383 8.083089367020952 7.0539439011011185 0.691981305511847 -0.45435172381568856 0.024426765583796643
P 0.8819795379498564 4.696007577036386 12.265822835991232 -1.0031290110018143 0.9161709596530156 1.713635114790726
P 3.5884412890374366 9.275443535131258 3.128949278702811 1.372905581878584 0.4457894360679741 -0.13443681365605234
P 3.9990054624309503 1.8783336708418785 11.58885263133207 -0.25604767919203 -1.399820403991557 0.4416687290313813
P 0.11252062161848404 3.8290735293755795 4.4893785946540214 -0.07240483612497209 -0.06611334668930549 -0.3364856700341237
P 7.484016035458126 8.279696770648611 4.980479069293259 0.8311684893686911 -1.4801460376255025 0.539869957394167
P 4.223928606254984 6.1015874233086675 9.538544657428602 0.28752158143059514 -1.668950370288842 1.1861259929547572
P 5.406234951296599 7.896782856632556 13.738590937956886 -0.4900188381999948 0.9368133184937157 0.953683868996809
P 7.028330387948311 2.012395250460796 2.2304011429558246 -0.19389537403300153 0.6187773705243472 -0.4477838407901837
Ni 5.54171184927687 1.5170525699252062 3.6671864158536573 -1.744968120576053 1.903194323342219 0.10394661548699519
Ni 3.4393829585697278 7.720711628698462 1.6613259995752225 1.4102747665556614 0.6985268199398487 -0.1232856821352393
Ni 8.48523661400058 5.280721519661493 10.750994471676288 0.5475704113622183 2.0733830977869006 -0.18717091082497442
Ni 3.1951140061507526 4.890721640869384 4.5420837382151715 1.9045287258829264 2.9654743907828927 -0.6794723744115587
Ni 6.4975860024402925 5.881753801803942 4.135583684301681 -0.7109362493477949 1.1493108810089365 0.42106519384841673
Ni 3.122182932179222 0.4130198913450036 0.1262679556621858 0.3327223463369496 0.1677220580717434 0.06828207220585014
Ni 2.4394464768187 4.574468284376209 8.604083052586471 -1.751390479162629 0.577907886003495 2.351176139075822
Ni 7.937292829862855 4.300505765276626 2.9900924879999935 0.3597086451178063 -1.1019678729485989 0.2200270381230469
Ni 7.782367020625556 8.028229377822216 1.0297312764998643 -0.07368884504371825 0.25937057291767585 1.3389276822712424
Ni 1.3111284348327354 6.289852884276685 4.572072553428114 0.22305631186767394 -0.24428282534661802 1.1734098309396694
Ni 4.394038625726685 3.434499641574589 10.175169853116802 -1.5979974361190479 0.7613859213579145 0.804261380565202
Ni 5.630314527885388 3.6672492147478364 4.99580293676994 -0.3532803729939593 0.2789567225797196 1.3551338597174598
Ni 4.292585606234609 8.42270016296112 5.985577245227055 1.2807307622155362 -1.8412142820949966 -0.7159465580781929
Ni 1.2192264710374838 4.0397966247396635 2.4160646676515776 -1.2102815071550383 0.35190277592014235 2.5131263276607942
Ni 1.6500550040154276 8.171232770134726 3.1915597761995884 1.004432046083954 -0.32898807610549796 -0.4819486595973506
Ni 0.20554171794582668 8.830021288983584 5.03680686548132 0.44725393642864264 -0.5591529739934951 0.5919597361108708
Ni 6.399704084244085 7.078503892506799 9.36546153210113 -1.5125285677212659 0.2669306446531209 -1.1209102183790567
Ni 8.392837882833463 5.858321378602705 5.460468826147398 0.6343029769637721 -0.10918189574400551 0.4154113379967491
Ni 4.874318944628518 0.3597364355792468 10.081666048871513 -0.33991089366558874 0.006210499686086077 -0.2072617680375785
Ni 6.5439165895937785 3.782283666727349 8.000450708765614 1.3313293010986942 -0.04248465152677199 -1.2004408669155324
Ni 4.352760069015385 7.120476048944854 3.8583509362201327 -2.707496070227053 -2.4016859748999155 0.362499320489066
Ni 5.668350037225636 6.916520237401287 1.7857784110877766 0.5214896551147664 -1.4802931047263281 1.461226317902864
Ni 8.277156695973597 8.759995835489006 12.46964930055873 1.0184494434089686 0.3398047071050277 1.108530099547149
Ni 2.5669001130948685 4.331370953117296 0.7396022599852842 0.6341759644676046 -0.425664383183325 -2.85220264124023
P 1.8367176872364814 2.213595409035897 0.526608094164536 -0.04420806197578193 -0.2912206275487372 0.09275408920528543
P 5.559829798896067 8.983475542043843 8.001397378662944 -0.4247804379164749 0.014535988832645935 0.9777666209776258
P 8.012735859601557 6.029837343466479 7.746222976486113 -0.788963573865867 0.1391445035443668 0.13573882029692752
P 1.5523886641126716 2.695384775991891 7.415434019232746 -0.0395250546778158 -0.2397247736622904 0.10367562121379563
P 1.9666457874027006 9.125813453537438 9.79340319054068 -0.8210882223145536 -0.41382959533192604 0.5723944123844336
P 0.9929629926063392 6.03534864940341 9.641034327323101 -0.2085429487428473 -0.30524753795544846 -0.5494941107474923
P 6.779000032117867 5.075144184432401 11.973157493989351 -1.2503760611830788 0.27890375785459715 1.8526731746642158
P 8.190709800299594 2.103575495621449 8.492799662913013 -0.44671066233066287 1.0284518060373191 -0.4956744938238754
