# total energy = -381168.742295777 ev
CRYSTAL
PRIMVEC
9.29651602180667 0.00000000000000 0.00000000000000

0.00000000000000 9.29651602180667 0.00000000000000

0.00000000000000 0.00000000000000 13.60639090415304

PRIMCOORD
 96 1
Ni 5.81746214552929 5.263715177486098 8.779101549436845 0.05948658540140723 -0.592765776951934 -0.11437680968138365
Ni 1.8322596101502686 6.974050981947012 10.383553756697644 1.0027060645317827 0.27443929432534026 -0.27528184483129364
Ni 3.9679667949483646 6.026419932832351 11.004263528582271 1.9272549638358483 -0.5099376886111089 -1.2503259246714338
Ni 6.077904037743343 7.3548920512470595 7.649771027213692 -1.4966679465399255 0.05266519160419962 -0.9146339541831989
Ni 1.7404844054407513 4.0203061793197765 3.945391135799601 0.1200250091060965 0.28953398387493356 -0.4721455574639998
Ni 1.1902422238821107 9.258576792858351 11.147906784308383 2.537978610817784 0.6605020039566432 1.0684720551839986
Ni 5.154350964742707 3.9800615621006217 4.5955996822044645 0.2934862836544623 0.39480291771777815 -1.4580756880890244
Ni 7.085888067912925 5.894186291038573 0.6849617116971638 0.3076774875531798 1.347060595791022 0.4972068713080018
Ni 2.5975395003936583 0.05445248242960444 -0.11356066000897855 -0.35112964519954365 2.0789742187214326 1.4598541201456858
Ni 3.631312065598107 7.570375992693768 6.680587865348011 -0.2040771996620098 1.5709419746631528 -0.5024038421279089
Ni 0.15785112093655979 6.822424808039776 5.501104499287044 0.04788191128294334 1.2416458803989328 -1.2441977002865088
Ni 9.05266826276201 6.491013313642533 9.815949402092459 -2.0413785198558454 0.827031584382182 -1.289511850842276
Ni 5.545594835305919 2.0953138233249544 6.0665994744403875 -0.8282456592949413 -1.3540377984398035 -0.5902273268007964
Ni 8.71284342149867 3.0196199141113955 3.931675056278894 0.7634559165130658 -0.8868765815642725 0.6105323569067356
Ni 2.0007124777896985 2.2958303742142956 11.367989712158028 -0.35683029512874676 -0.45116586988853913 -0.7765914254537594
Ni 6.530802401583856 7.928961202991124 2.4247135516870326 -0.04549387066674101 -0.914685890467057 0.9332675101239861
Ni 1.3516483324889417 1.5369185973446922 3.655642906943908 -0.9861373615398243 0.637795820608379 -0.41908801551738795
Ni 8.381376148006181 8.691070981321431 10.90284132935016 -2.1859434230848356 -1.1844951422195535 -1.2126695477712406
Ni 2.5157952363123393 5.465663391820057 12.675495398321788 -0.18158441787613244 0.5494285476168795 0.7231816423740512
Ni 9.179398367158296 4.573281536545415 5.528426029789556 0.07060814923586549 0.24717763039590981 0.9000007776510565
Ni 1.5758152197620967 9.004382159311723 1.9510337562614655 -0.6375947603411665 -0.27124855530218445 0.9990849228394277
Ni 5.362369803942479 5.839810969690724 2.230196042491275 0.17806020677295786 -0.5514522629151277 1.3442130990398977
Ni 5.4632648907245285 8.783469052594516 5.7759532021512525 1.7844222128066174 0.2218430082858631 -0.8796422685993626
Ni 0.6123438372494884 1.823688222514311 1.1379614075607054 -0.3593857145607488 0.18876987988097813 -1.0291861131001823
P 5.233613059085631 9.269583867653335 9.935195811210061 0.7002890540465939 -0.20374398469230717 1.282881747120268
Ni 8.593550529801695 1.4518461805804304 11.609081836231645 -0.30410519682088916 1.401896055573663 0.37950485390812705
P 0.4358922473519478 8.38545731847493 3.6856306781991233 0.1260501322542539 0.18991402078775033 1.6537448661929972
Ni 0.7030452943755423 4.731684870524899 8.469611239470826 0.4442992246756929 -0.07338571198100265 -0.6614191164542738
P 9.14218441411411 2.8433672696535615 7.548567296104621 0.12678315376553648 -0.17119998931801483 -1.8377165533543836
P 1.7533879694740588 7.486893280143984 0.3401093146490886 0.2745938176253335 -2.1286525597831663 -0.6034358550712704
P 3.4238138312872857 5.744038263155327 4.098639551726874 1.2187882590744687 0.12562512890169333 -0.4103701760284158
Ni 4.571961431291287 7.746135921810272 3.9080953734157236 -0.04199202816106962 -1.3519613755267492 0.49981371280322956
Ni 6.418695716657592 7.212794806110819 10.012072419579681 -0.30948728706840894 0.5508480536722254 0.21383659304161884
Ni 1.6945875065701188 6.560672107087471 2.9656080865342256 0.3681770876001337 0.8628663346926043 1.8333963287124748
Ni 0.12853827673380666 7.023294626532335 12.210034652580548 1.400808221826123 -1.4497738530915485 0.47059209693395077
Ni 5.066982308557532 7.336531432395632 13.735651475577047 0.34366907515644035 -0.3555941087288005 -0.5056609156126259
Ni 8.099013071360906 6.0602313610666005 7.552988719054362 -0.04166112718421212 -0.8514544933112369 -0.7629249837102603
Ni 5.698066992157702 0.27811921714873084 1.1397054339386943 -1.5608329112536088 0.920660362882937 0.39093983521794606
Ni 7.4548203003781985 1.1909115730250486 7.383290118287797 0.3564027206730249 0.4958727258776105 -0.9981845225123455
Ni 8.430749943813744 0.2431485133849757 2.344925274545633 0.36248157987725316 0.1392470905605021 0.4321134812427784
Ni 2.677099083244555 3.0419594417569553 -0.15457967700044964 -0.5737262438219797 -0.14756898016263617 0.7677416883726133
Ni 2.502045689334485 8.987350942230297 4.439452612627635 -0.291548186091485 -1.2094384424284526 0.09048766176861191
Ni 3.23422068655006 7.957687437042218 11.956506579222093 0.6547504461848466 -0.5863619303081192 -0.3041921001077406
Ni 3.1659098879068743 5.952884492267898 8.292796155802607 0.9511906702613102 -2.461249950506477 1.0527788128184579
Ni 5.067586582089351 5.92619419519324 5.963993828737497 0.638507501963423 0.5910878750288787 -0.3971991858640966
Ni 4.055670125705008 0.9877176255639549 12.135920968728723 0.48337459341059974 0.4393971593883852 -1.2183180043062696
Ni 0.052106971474558735 8.821361651297513 0.11135924504998204 0.33279819388020754 1.3250897479468857 -0.8417969156168148
Ni 7.612851773722716 1.1534466140522617 4.823791960851123 -0.4622833199579393 -1.1954045900432058 0.7410220129895819
Ni 4.001006612365061 3.9701235866311655 6.534550756784309 0.7266292346030195 -1.6857838969064127 2.5221732683544107
Ni 5.014652220701994 0.33019922872725455 7.786488378613568 -0.3975665965058443 1.4267833057336459 0.6745173443991287
Ni 3.1977504547758056 2.252657354494786 5.112260989122535 1.6610334294346103 -1.023113167433225 -1.0349528403806305
Ni 2.3924583602101146 2.728750525441281 8.185400945121359 0.8979415811291827 0.6103197266752973 2.2831678893566485
Ni 3.275952746309078 4.87632006449478 2.044781681639475 -1.757913624993127 0.3941645128028308 0.8959536041648762
Ni 7.988272974268142 8.29210170606681 8.399892018672707 1.1266144678526855 1.3410192746929486 1.2479808214780248
Ni 9.08246359613863 4.612912583716877 10.98856171327085 0.43412176992205886 -1.6130926398892735 0.009981536692744099
Ni 2.5435174466490267 5.457324417080953 5.998499706707545 -2.2884813311497623 1.0003956712310513 -0.34475330935955467
P 7.347780216603342 8.4368763477748 0.409476197495577 -0.9961685205235811 -0.43130846884297974 0.9274077089090995
Ni 3.565548512304435 0.8207456929032757 2.5168689838958023 0.9667826111622964 0.25577282826408854 0.33414519482640515
P 7.050412563337203 5.108119391300605 10.710461089153867 0.6923839402669044 0.8014326528671553 -2.983261282452669
Ni 6.355498001745184 9.836364550952073 12.409721954253916 -0.4605133725417101 -1.9722924636914616 -1.3527815574351991
P 6.756531103523867 4.133900306785902 3.101617973076079 0.3088493963740939 1.3075180576117096 -0.35288288044522453
P 5.595665869804041 0.4740590932732326 3.8066192543915403 0.3035642367157546 0.4895426698945246 -0.9908075133219839
P 2.134052404972499 2.9174605011704635 1.9846964402417289 1.5943760373163767 0.44772547674842245 1.5424035009038277
Ni 7.114010028432199 7.283829483905128 12.298612785480948 -0.6107598995365093 -0.9940625299241717 -0.371444959718128
Ni 2.134991353075787 0.39215771807364025 8.203088496223499 -0.1905969057873879 0.025710517392226687 1.01065051618984
Ni 7.109045688955409 3.724435265109374 6.322726853637251 0.31745436443428554 0.6166778076828412 0.7562187753346783
Ni 5.036991748347555 2.275833568569019 13.801506134726285 -0.3583073938949055 -0.9246337457083882 -1.3377763422756186
Ni 7.843851600163365 3.4876065232156392 8.974122000141394 -1.421534912850513 1.2090147246274727 1.3504583086186612
Ni -0.024883984040312467 1.525493179335373 9.213594671149734 1.3414710175183866 -1.1357290285594441 0.28861327183287716
Ni 3.718336750695938 8.058303628348044 9.057597275478479 -0.08827419905706088 -0.47618116098595403 1.2015981204484274
Ni 4.522903717023446 2.950714138452265 2.356899186991526 0.6251465072754846 0.014931681609167831 0.45085193819254615
Ni 5.980132580295004 4.833649056632474 12.329430735603724 0.8704863131317073 0.8632769398674618 0.7090732279971271
Ni 6.712902554526524 3.6020931162056824 0.7611485185889219 0.5544249723902065 0.47365248102682944 1.4936489572079437
Ni 2.048728982279635 4.623780210773748 10.514284151874573 0.8214918855108755 -0.5173177831252639 -0.7775149657092931
Ni 1.4932900483473497 3.042982058503111 6.279472024578049 -1.216938864570556 0.6220133609631416 -1.8005821103959312
Ni 0.5021001741044032 0.6105096346675204 6.301500118941825 -0.20474208693951837 -0.15876793420224916 -0.2985827243407632
Ni 3.5950649502048324 7.75995984091512 1.861830897494323 -0.23903468957380125 -0.3401155534772271 -1.050908078158306
Ni 6.9864525341231145 1.2323926268554644 9.683192366454966 -0.6346593318619262 -1.1704959997269841 0.2033110109199466
Ni 1.1844226049448983 5.491080066219958 1.0797205949123885 -1.2863074849723652 -0.5791538425954542 -1.1158564580052333
Ni 4.207026700651893 3.5784241867901203 11.479534887525494 -1.9315245377454802 -0.04648477382510059 -0.35594249320715476
Ni 7.105057483645402 2.0803743223152105 2.7053446874249567 -2.1309925207702523 -0.7764795824662434 -1.0636730911334584
Ni 7.06142893464806 6.020749058149125 4.485183103864121 -0.017619512853976105 -0.18793118602976666 -0.05740064940665598
Ni 4.564273212663373 4.519733605110365 0.264810325023311 -0.9980644519947132 0.7415411187178454 0.4074727998759628
Ni 7.67183816694414 1.4860945450607648 0.31572548316280485 0.9648907934562221 0.7671889011929368 0.32692168049477244
Ni 5.577128617151004 2.8963388171044158 8.421444131423728 -0.6956798374093568 -0.8308046782713692 -0.29491813100498243
Ni 1.4753105866467615 7.127592238124319 7.464778728182578 -1.9338855817784886 1.0237981093153916 0.9469709757530078
Ni 8.591728412690363 4.473436956057144 13.185789521517657 -0.9805382701854919 1.8873912948716915 1.311088291461471
Ni 6.168898335119432 2.5106170769704432 11.352451515525988 0.5440379727289276 1.146902014457128 0.2962952138581671
P 0.6969365537946445 8.537037009802795 9.247038887006957 -0.5067631475378692 -0.9014143701691314 -0.5857618348302751
Ni 8.777956218681151 7.134704072768037 2.2421151054935105 -0.22006740444267908 0.23877217994103395 -1.274121741539451
P 0.3835547222837104 2.9479437767217704 12.576060794183565 1.633548336640464 -1.2251324561249417 0.6288540380340589
Ni 8.879920404788727 5.076678574614261 3.0905960238556975 -0.2318592548712846 0.01088553656425222 -0.2150118442966426
P 7.894610576836174 8.104804800750495 6.307745518306072 -0.8050874760109232 0.5369710385798172 -0.5839353231444976
P 2.977032574891957 0.46524971483089683 6.3561850142682825 1.021165556788551 0.23856700590876337 -0.9182638376263025
P 3.8969600067016774 4.0935348348603835 9.232888660194927 -0.10829846469778767 -0.445970955951161 0.40024157223484613
Ni 3.5699736538605262 1.4010500178441256 9.862578866413974 0.6898642591688442 0.2216355202607473 -0.4339567050991042
