# total energy = -340895.9534743333 ev
CRYSTAL
PRIMVEC
8.99979468015144 0.00000000000000 0.00000000000000
0.00000000000000 8.99979468015144 0.00000000000000
0.00000000000000 0.00000000000000 13.17210922759523
PRIMCOORD
 96 1
Ni 6.150792602574755 2.0093661343937486 11.197425608594731 1.0855169264814273 0.017087551609906056 0.6263793512413213
Ni 4.367393310282688 0.3944033973843895 6.153139748999007 1.0135990572952027 -0.24641555541890464 -0.8971504526864549
Ni 2.7747806631122374 1.5834778556803595 4.636292772408341 -0.8058444087816057 0.4371063064716795 0.7548391213783322
Ni 3.52368056879199 4.341140909517569 4.94968361897775 -0.39208860411040863 -0.6449113486072378 -0.6870041640122297
Ni 4.9972259337812535 4.494272414151953 2.827722854658651 1.2155214153977387 0.6506181691840279 -0.27779175573734094
Ni 7.232675907606113 6.158127435150543 2.6233312200832706 -0.4495748712523354 -1.0065025554597375 -0.15105436760807536
Ni 5.153057376787093 4.568439721215835 11.424670421525567 0.03045497405574755 -0.6755745820190494 -0.3376593786272507
Ni 5.487381745529855 7.828912297969201 12.493693020114225 -0.43831292518527093 -0.4623802505471198 -0.40543520062064364
Ni 1.9375747730967474 6.327836561385663 0.5781999020623078 0.0804971262148033 0.2378725509449 -1.0352690860694687
Ni 2.67118402779949 1.6863365078382424 0.2555437669815193 0.7799333453427987 -0.7582113802846747 0.6205789425094602
Ni 0.6698007111906783 -0.04270492522131151 4.591389197373207 -0.5917915859641227 0.246092367751531 0.6199263965271259
Ni 8.408283073305263 2.271773144715508 1.3528680195592315 0.2109029643345916 0.6311425769579194 0.14665315321658615
Ni 6.950568346967301 0.8021291906729977 4.713916000587687 -0.7272846087988313 -0.6904304160849594 -0.17889555819005964
Ni 0.6693120223454448 7.385942409159071 2.490634649002976 0.13460239269963914 -0.2677284579640679 0.3284455733384666
Ni 7.496999874171606 3.7885355232372024 3.747201266729133 0.4826644547174526 -0.035033851675681606 -0.5470034831151547
Ni 7.62155703104142 3.797850310618724 12.503110405153864 -0.16096314208135504 0.12722332662674862 0.19017653042051763
Ni 8.130675409952211 8.741878458687733 6.731093056690056 0.8889044106275789 1.0663843194170344 1.2989480565545115
Ni 6.663150907531293 0.6798390820557498 0.3350209528425975 0.8319920137112511 -0.14868226783147295 -0.21188255463904154
Ni 1.7944150408476056 6.299793201500812 9.22375625938945 0.5444136109007914 0.4456562529242196 -0.4710371548911694
Ni 0.11632954467253129 4.812424152049697 1.5419798029110885 -0.07089045636297468 -0.7593472936613309 0.03784406743096708
Ni 6.415998549008257 1.895842725668617 6.745450428969998 0.0940535247429993 0.7467303762282689 1.138716650432858
Ni 3.407232226831115 4.108766213680966 0.38908271883370793 -0.30488166997559757 -0.1321899266034046 0.024945099981111878
Ni 5.930108639886554 5.723059365974205 4.952304359156977 0.3383247801253915 0.4933592154271374 -0.6673953886423667
Ni 5.370510413224118 3.0444595074477836 9.067455927086435 -0.5109548170217135 -0.08727815369237872 -0.4088339418895475
P -0.03243705959466627 5.70809270760177 12.697900158900891 1.4950939171845863 -0.4764446990599859 -1.1047084118082138
P 4.000660681287888 5.9009403056802645 12.656881795182281 -1.0473023630849188 1.9859949008792184 -0.7036641411664138
P 2.378033719221425 8.297873593501878 1.3824791436584414 0.2580428552451879 0.5903458546565317 0.05836764130561561
P 6.4662534018956155 7.893548822581846 5.874905699943776 -2.362879800665995 -0.7443842445935954 -0.13220458189142392
P 4.542538312439006 0.8545799934358064 12.459669296736601 0.30228408445175037 1.013109262142978 0.34404548465925266
P 4.045074667498332 6.138678879081492 8.288655103922272 -0.3769836301481701 -0.4684539675450255 -0.7930115186829956
P 4.5662977701078145 0.8316359171551776 3.762626014645258 0.875144637839325 0.9009747115285515 -0.25402602077631087
P 0.06082781154997791 5.556275172974828 3.6479632319273723 0.9843843834044596 -0.6377415703316759 0.015840823686998524
Ni 1.289013577094852 1.0272185528039564 2.51645235969029 1.2723291684154021 0.3758407747929785 -0.9102602505955356
Ni 1.8546326663256347 6.217814072748853 4.755460852288729 -0.09589494882711226 0.44953399071207095 -0.4817018336938672
Ni 5.936048504303757 5.616537797425714 9.230434106961518 0.746122824551257 -0.030948625862714442 0.22316069865602212
Ni 8.514615646167753 2.2637093287794277 10.128666703987017 0.4127006239338054 0.5439927213132889 0.2527733793161324
Ni 2.423122690024731 5.202961237686162 6.911959228255487 -0.2517469949341471 -0.4323160841718877 1.2111875639090754
Ni 0.5011634604890255 0.20934062161025865 9.133250725260435 0.555247982512134 0.35720053398397195 0.3362373014687435
Ni 1.4977728119757907 1.1162985194728443 11.386919883215878 -0.2110502885457333 0.2564562274843583 -1.7728375932928113
Ni 4.201203103725031 6.774613363299546 1.8088858105391499 -0.37802004183248444 0.1605929032261299 -0.9380065674708684
Ni 5.7224473799433415 7.831306243325225 8.116600631221813 -0.9059521101384849 0.33028339787815375 -0.4918456069960884
Ni 5.253792077426097 2.7570060688334888 4.661978186115453 0.08300600867958607 0.08320269807142446 0.8646799908625753
Ni 0.8340010631685726 7.023214688748597 6.793844124339967 -0.3898113780404577 1.0903999656053414 0.22384024122154997
Ni 4.906094013950059 4.732127984882611 6.885285637104421 1.3659800584033444 -0.24215189504654422 0.7599437895947493
Ni 8.467861713368714 7.216719271830812 9.09509069629774 -1.6759522555279716 -0.9423491607102803 0.04006344367978906
Ni 4.6673564633513935 0.2876577339510681 10.362115975295458 -0.5878007196371748 -0.6192877345018625 -0.9028734712131612
Ni 8.13072940871964 7.1554036714150575 4.722451405759314 0.09279908351060792 0.19989221504638477 0.21544558939995154
Ni 7.20573952245356 6.185648806950246 7.140323615631021 0.5347745451491306 -0.5604074152258864 -0.8142755702680945
Ni 2.5459338867476697 5.20034229746585 2.559287781932889 -1.0557070422088464 -1.0941967136436124 0.47573636013905163
Ni 2.065524852520023 5.30069000693828 11.496405984096226 0.7861569576550074 0.22697750129895106 0.15442971183821144
Ni 1.098946915538957 3.3479865791668098 3.7610195513142424 -0.11662961027130235 0.6516059870185938 0.0659739928979638
Ni 3.7467044780687853 2.6596012921859464 2.4688218468999867 -0.937859757480359 -1.2215125999841672 0.1412857182570857
Ni 1.3698137327579436 3.3178732665305097 8.188006801311152 -1.4122956536404323 0.3687208759187456 -0.6024734911580011
Ni 3.7742708488413457 2.689633606671103 6.953556278765045 -0.3123468680043911 -0.14012975027577157 0.01876725330517413
Ni 3.979169171851103 6.958020176872518 6.051451070135422 0.8675308300478092 -0.31427776647851685 -0.770116616362693
Ni 0.7721373752634129 7.335804553601142 11.187164042824286 0.18317721628454905 0.09956956946522207 0.7154608766910259
P 0.22766960323461283 5.33650018953835 8.039912481698448 0.026741015539270076 0.9902932926897267 0.1579330970057796
P 8.507154816467963 1.7540419623997743 7.852447660753178 -0.6352591702294543 -0.8518514716393394 0.54355897620998
P 1.7555989268606471 3.1431422549244816 10.254869023304504 -0.6794669750949202 0.5036539124849262 2.1345678968263364
P 3.9890419464960587 6.167559219861494 3.922417367262566 -0.1557440597742608 0.4303538182391943 -0.17678699648748905
P 6.963222058134855 3.9096277591969812 10.305515367255724 -0.48989105437287894 0.5015216966332717 0.07299387585922268
P 6.329681519272825 7.804072864951811 10.292435965804936 0.5165202269246331 -0.661665428137125 -0.3898365748514383
P 2.324745935563465 8.495248088249845 5.90385803908035 0.05837149796035753 -0.8577107586335939 -1.1004069562193823
P 6.744203057442386 3.8656727625096856 1.5093132485548486 0.220805053939652 0.4460781709529866 0.4871016645531998
Ni 5.327806387982264 2.689948599481106 0.27411574305930453 -0.4511640701163262 0.6088503412186222 0.022941953508154037
Ni 1.4852990966996662 1.0270385569125258 7.063569767607285 0.1827709819850659 1.0460368661089339 -0.28992787687924265
Ni 6.862739351743854 0.7009930991961035 9.075346046987287 0.04992516696521724 0.41574609562834847 0.015189049035612549
Ni 2.861961673126535 1.6344256927497247 9.219685652304754 0.09735070743703235 -1.374005756921298 -0.8973818519709706
Ni 6.178232976223315 1.9761658922194176 2.5924556248467625 0.7281932366560298 -0.3547710986068729 -0.5188146793857645
Ni 4.080623856055829 6.82276226425717 10.403845322785218 -0.10649920670551981 0.0683329800484436 0.5525341831253968
Ni 8.160140737379361 7.466949560097307 0.4692276894519927 -0.7109835576459627 -0.5034106861258685 -0.22023041238310456
Ni 7.589868754355104 3.8699116657528707 8.07364641169087 0.23301779395576 -0.5254442688871404 -0.1773845208621719
Ni 2.9424288363904805 8.295020658622706 12.24410801711851 0.09015007592353506 -0.5461887005233431 0.3320487173086927
Ni -0.01266541090049771 4.791328633574058 10.2242832214532 0.18791678785206345 -0.2260645025663784 -0.05069984034771268
Ni 8.70600527752566 2.3509263379720116 5.7292881237971525 0.2517919892394696 0.06961158965055109 -0.3066498176196138
Ni 3.6865948501256147 2.6746129495312387 11.232819100706141 0.03473586081928856 -0.34941497650128206 1.158826790919172
Ni 1.0904331098743008 3.3554744082503127 12.389370101379557 -0.7188243938466201 -0.13387322784309846 0.7785014979922785
Ni 3.1168358553919338 8.088070382450642 7.921680380453497 -0.24465614952563672 0.9241511496450149 1.0154677350728254
Ni 5.577694684055041 7.820335493742545 3.689363186935813 -0.416557021565418 0.6184315571491543 0.5003197059053706
Ni 2.7942112195921456 8.276535080572808 3.6382812529273325 1.4250123298761523 -0.3071282999179291 -0.2826889359286422
Ni 3.348382570127957 4.454547320913271 9.591415867225118 0.9079308311314105 -0.03641427696297599 -0.7996351946471002
Ni 7.206648501705283 6.126079166681366 11.506838545963529 0.16636657248511347 0.35304588838565004 -0.9407303941599346
Ni 0.7328757714451644 0.16242109259110513 0.14600906721048437 -0.41950170601603887 -0.49093877891110294 0.7296574799063821
Ni 4.628162357992432 0.2603460573648815 1.5706162492582028 -1.1863537926948473 -0.20491152263784707 0.029916585053774283
Ni 5.969572739082663 5.578189672756475 0.33916985814006745 0.2520051336915402 -0.0024253216120409845 1.380596008544306
Ni 7.999269409413471 8.843918129539608 11.28081770509442 -0.4552279557730547 0.41974956036078676 0.15584844656260902
Ni 0.032267863456721724 4.8026683747341705 5.848970091947575 0.03143816390462328 -0.14537788604858834 -0.2062577522530964
Ni 7.725603656082742 8.826845519237438 2.5234470000312745 0.40570953732795284 0.2989431930039755 0.17098170265962168
P 8.556851682091889 1.6750147662672723 3.5302171195892837 -0.9902189878083656 -0.06674121008129151 0.5654555191727552
P 1.768009643574771 3.186089274619767 1.601346047822652 -0.13482813555720005 0.06773108479838658 -0.28163015564682464
P 4.727592088418565 1.1360530685573271 8.161886697526235 1.197132628477906 -0.5860765378572165 0.3717594056347533
P 8.336626708926836 1.6931133531505955 12.393215713599966 0.26497197826485336 -0.39202509786232487 -0.4978159656469104
P 6.181490901858204 7.63211379007381 1.4780686617409087 0.4598407719547177 0.652531841266973 -0.8200939767220844
P 1.886158946709663 3.225202381827586 5.99989574693248 -0.3334345419126258 -0.35903604453081395 -0.9100365646205038
P 6.921247016253294 4.027174076095582 5.848508402486055 -0.9515218283484839 -0.6976927540743274 1.071898050146412
P 2.4259216261364736 8.445137232075632 9.944138516010433 -0.6839028993790867 0.3134264742218151 1.662634455373143
