# total energy = -340874.34124699136 ev
CRYSTAL
PRIMVEC
9.20156458552565 0.00000000000000 0.00000000000000
0.00000000000000 9.20156458552565 0.00000000000000
0.00000000000000 0.00000000000000 13.46741987931793
PRIMCOORD
 96 1
Ni 7.911772044852697 0.3937064222140773 8.779087595201078 0.4618359480078756 0.5529216483718026 0.12417579804967648
Ni 5.23714407574561 0.5974851908791402 1.1867598257109475 1.593502890682804 0.07140364855396734 -0.4511841247209843
Ni 4.937099458922314 3.006997682192044 7.128413409764961 -0.20248131592979968 -0.4238913504433023 -3.5293957326993084
Ni 4.530767569990155 2.8597634478388314 1.2780752321416609 -0.8711601992702804 0.6358860051801758 -0.6818208200390774
Ni 8.509901345250288 -0.004544652730895035 1.2660828330645693 -0.5457035333568085 -1.4728826711948697 -0.27497845465826193
Ni 3.5415809778122274 7.58461961886719 5.96116458152433 0.45864495187440363 0.5656815191406322 -0.4725978145100699
Ni 8.185205736999443 2.958008552531616 8.61407133735636 -0.41775592696952574 1.1900541243645697 0.3725718742337196
Ni 8.619537986855095 7.9547525528624385 12.296010220334114 1.523829337446066 0.24047656422665037 2.248475480180786
Ni 4.446278804298561 1.6816319292057547 10.750650701634003 0.6088709100439127 0.12043072918494743 -1.21261246928106
Ni 7.268297434356199 1.2405733356645685 12.884186188358738 0.03767925971832866 0.5850432114966957 0.10316962811165457
Ni 3.4317787080455333 5.820173608717813 3.127175636144519 1.6842281223835187 -0.2043811040556738 1.6201256354766551
Ni 6.8038024559079675 2.740649194748254 5.266380206788073 0.3419757466144175 -0.27343836386465165 0.3176996476758722
Ni 1.922998168898218 8.98658839672633 5.030350874534199 -1.6631299069523229 -0.0999665477933246 -0.06394230717991568
Ni 6.620323258795096 5.557662173691077 2.5365207666303182 -0.7424217215505858 0.5104470241473595 -0.5201346837487687
Ni 8.570153189919049 7.653474926389538 3.4545544206179395 -1.258112767705704 0.13093240004721968 -0.16240964471989447
Ni 8.412300350075954 5.643678399097854 12.532807883227855 -1.1435976326742434 -2.9485423909142447 0.4508043727840623
Ni 0.841468355529422 0.7013220863485291 12.806142198477467 -0.1608800954492455 -0.21246362395349216 0.6692046739369636
Ni 2.2092128342039277 5.953807930667172 6.932960216704097 -0.326924765818566 -0.3153308903333795 -0.1606659225559104
Ni 3.23845383686492 7.402502253307614 8.705542250227959 0.5771085300306513 -1.3114117362391609 -0.6615250459045187
Ni 4.564187652433181 8.204860278876728 10.962776209501728 -0.03360560386958729 -0.8917848174991674 -0.4603956160169232
Ni 6.596850067629854 0.6073327052597919 3.780897108923109 -0.21923179591526112 -0.2326161876419671 -0.9998104881515427
Ni 3.2930283162067675 1.9683802852553232 8.37769142549316 -0.866149119208934 1.1096750117848695 1.157021362279317
Ni 6.319284873000478 8.179647992011668 13.310834211659278 0.419727963094232 -1.025038409480396 -0.555953750329907
Ni 6.651691392343631 4.749774007827839 6.770906862644251 -0.4847282792250168 0.17035126816447435 -0.027623932364855653
P 8.276255218214681 1.8870200515104885 6.749547270855981 -0.47718800498391356 0.1600987371985307 -1.360381224159328
P 5.978311697061935 5.158121039396295 4.516945899880664 1.0183429997380913 -0.7370136631611371 0.7560012600072334
P 2.263879329191268 6.014142589416876 10.650775999859539 0.9969223679704702 0.4248570567906812 0.12166383026110014
P 7.134672313971389 1.5711579452269617 1.7586425833881392 0.2526293975391004 1.8168484516561225 0.06686410881240097
P 2.2886775456516086 4.292842715439126 4.921560776867926 -0.11780717551917132 0.45712028769976115 0.4990786344094179
P 4.895683216885954 0.4817405507265131 12.411897484737258 0.8379963109238021 0.5631986048177785 1.2188743910303717
P 1.3914881958374972 1.9747385663588837 3.5533111322996644 0.7221601430880724 -1.795520636712624 1.1823888945098282
P 6.061208592086502 6.428111776924948 11.184584523744672 -0.10390290673325332 0.464342259369497 0.7848076427159646
Ni 2.087825794669675 8.104416000256663 11.720386106511182 -0.5853111204461017 -0.6764644408231705 -0.9593611218872445
Ni 8.887956826322476 5.648380398582542 6.997819284742688 0.9813587092042583 -1.3832869251129083 -0.5239825967399493
Ni 4.197661731741255 4.406095571911805 10.919074298831323 -0.20440835774918345 1.4439176514210876 -0.7588006771292416
Ni 5.537059870665214 3.6501226332356693 9.177104030250044 0.680392315122667 0.19640194250493917 0.5522320785039457
Ni 1.1322157115321128 6.093064408556149 3.6784505698571177 2.382155875286788 0.8506104001433866 0.08074832299366094
Ni 1.2637796814578814 8.660797802294118 2.5375310984178303 1.655489873908562 -0.006673041144801411 -0.029580798980910344
Ni 0.12145697142482711 3.6155247505303336 5.326984471379071 1.4344374798447939 -2.634073334360528 1.8111989666798292
Ni 0.7332855611234027 7.38229561755737 8.357059677460738 0.8946536544065302 1.257364319575454 0.705067963492476
Ni 7.156157967193985 4.457385092709556 10.82497725943736 -0.47835374315724066 -0.8173323548165472 0.5797570233970918
Ni 7.6178280653255825 7.313541527245065 8.018879176362905 -0.660106054069805 -0.6171485766716726 0.48892200559139026
Ni 8.283322019788535 6.594604885879827 0.9940091321582105 -0.0594719301133879 1.614245008326162 1.4797032936611292
Ni 7.095758897492436 8.682265052387615 10.896624321643962 -1.7366552298349835 -0.26261299111437353 -0.7564082656376651
Ni 3.2295559239457554 4.093647246076065 12.921464486817282 0.018690634430967808 0.009095020322732725 0.9368176893690898
Ni 1.700338709934464 3.713953886514104 7.173798286591431 0.3891796579937297 -0.09658837534971107 0.21697179623649082
Ni 2.063036779773884 5.667657676313307 1.3931104316675373 0.04813259384116872 1.5275754347520594 -0.7304882033377935
Ni 0.7703807484474162 1.8046752503588794 1.4479223113747566 0.6394590672434148 -0.19895710482662507 0.36979636837111146
Ni 5.449801434044284 6.242102149561022 9.028692915790979 -0.04396097896198235 -1.2538390800310146 -0.08604710949875505
Ni 2.6931047107220656 0.11046754288360836 9.668530147821143 -1.2641504892593518 0.8716181127433054 0.8441795569163785
Ni 1.5704494247566663 3.854967863231995 2.6709933511101176 0.35410441155715144 0.3166174703552869 0.5699606061319603
Ni 4.681820453631323 7.368438061346137 1.5577356230189103 0.43360780640011776 -0.9668867408403283 1.017746246694357
Ni 4.281340759752512 0.26625371132893194 7.043635714946519 -1.0504866743501715 1.3585102323888603 -0.20575355892316824
Ni 9.236070416351268 1.7526404028326366 10.745680936620928 -0.6141565839228843 0.03881877263941057 -0.28976872559355904
Ni 4.1603861937520765 5.447933516440777 5.584077105042728 0.32210111917767753 -1.8206503419007158 0.23321422623728222
Ni 8.690270413545498 6.361796101218205 10.497853358301953 0.2742642022000567 1.1038756314942733 -2.3649924761336236
P 5.4945578440120375 1.4614384895412107 8.511772943479613 0.34788439878936867 0.6477958692438843 1.2659091238216715
P 7.7358565337993435 5.148109737166666 8.857265927924768 -0.07687855562560954 0.40607334842527487 -0.6124529709682162
P 1.080880182911616 7.727952389851503 0.4862787623622237 0.3748074484324577 0.7065759154965703 -0.30235813222279545
P 5.509473580146438 7.490588830737981 6.966884544884424 -0.22743155811723412 -1.1716743363058015 -0.6464766362118286
P 6.7975821982726465 7.993592356824997 2.229463637464008 -1.1140150339211201 -0.4152922959203816 -0.751639383494112
P 3.2397236527727227 8.032312540448414 3.699984991371825 0.3845789259969248 -0.8534612393286205 -1.4329043310297194
P 0.14068640101993632 7.113168257619695 5.436945928212468 1.0632689137165043 0.32814809670270584 0.5368072593084432
P 2.6943745266298675 2.1641527726060477 0.389437816419661 -1.072089854442244 -0.9539232387011249 -0.535497282247768
Ni 1.0279159773658946 3.7467758672614266 0.1686324727125893 -0.9503856578615117 0.1406056614709256 0.46216299232999114
Ni 6.422038744322416 0.15260518758063352 6.215524350516849 1.5310171134437567 0.7220231032895759 -0.12256037393344053
Ni 3.8629640228253295 6.520385066225243 12.863688783168737 0.06099685139834657 -0.5924747280740764 -0.6480678919583484
Ni 8.922913570045234 9.000059487226492 6.625310506780813 0.8144082391912167 -0.5776859998006761 -0.8361374033381922
Ni 0.8115963963766024 1.5415381089427926 8.005505622446965 0.9338465225559078 -0.6628802743808325 -0.0977109189899285
Ni 3.371186405488449 0.9805555246306916 2.2901617580134093 -1.9706963228489351 -0.7154181963785486 0.7195782412935091
Ni 5.392512493160395 7.579420734896841 3.9671514979040463 -0.20784875088930013 -0.5738864235489278 0.22615757650081694
Ni 5.7382060717127255 8.56350045874991 8.74459737080097 -0.6772797376356142 0.9746054496408247 1.4900591829741563
Ni 2.3823586743279446 1.9297245125837499 5.914931320446416 0.5235640211452919 -0.3655021118711318 -0.6343083762804108
Ni 7.183974296826492 7.007313459044646 5.575175511497744 -0.6402440250385555 -0.10549493381072154 -0.07600849431583039
Ni 8.971332202703605 0.746788857099488 4.2165819887675084 0.08858967341495065 -0.02049117797481632 0.7665013882076089
Ni 2.362759341837954 1.9640279452235083 11.53756574142004 -0.21674065406229126 0.7108498602815758 0.01915523277221217
Ni 6.796855274673252 1.8916484384787822 10.416389146877712 -0.1201157690476899 0.1878982759093022 0.32531885478402683
Ni 3.268947821781272 8.686451764257543 0.2728328299816753 -1.1153846605751372 1.247888775984851 -0.11994427646683216
Ni 3.6818864340598236 2.669953574316048 3.890899052640523 -0.8735726653665148 0.8179974992043719 0.49252540667193245
Ni 8.450247602277232 5.274990110736844 4.3480640647687885 -3.947967984922543 0.40060692599406494 0.30317600013840046
Ni 1.429306626135085 5.897006672704396 12.762548866268745 0.674513744854703 1.8426412443495102 -1.3293536654295621
Ni 5.48556791544738 3.175671561945105 12.530531416158361 0.8226910480252994 -0.5641092895575058 -0.3862434581835412
Ni 7.262123184543625 3.7889282344617308 0.8177752469714515 0.841463443536796 -0.8482868942165326 0.3729940493728028
Ni 0.9650508883651354 4.287119342289467 11.227410445469983 -0.3899293916755607 -1.9185204121763282 0.18186698211355776
Ni 1.0981791242642838 4.969001283214708 9.01482155723292 -0.5449753969415324 1.22043453642864 -0.07215646755959186
Ni 8.532555597170644 2.848371910926809 3.1143412939111674 -1.4541742961520892 0.7570376716915478 -0.7249680448505127
Ni 5.898276488612199 3.016033618579448 2.980016854620611 1.3911092493708044 0.5059720190951416 1.2485415790775014
Ni 6.146277056344701 5.65553921580189 13.268627555228132 -0.9838223402534024 0.003789034728787022 -0.21531523446967435
P 4.395614989890162 5.008825654584041 1.264656590559429 0.2098182159108451 1.1719841542367364 -0.938951447882641
P 1.5756943165497623 2.8951894713536035 9.554299165036873 0.1992358124093085 -0.485058665981242 -0.10693012359535133
P 8.824815690385238 4.982978459765082 2.2566146939796026 0.5917082822216971 -1.0768440812977778 -0.380042471579152
P 4.906918327200639 1.3111125294994368 5.044679550850356 0.5086619072224788 1.1205443503992056 0.566598888748579
P 8.487339108975425 3.125026150665805 12.49928750373124 -0.5602323231006029 0.09858432273381731 -0.9586360707957619
P 0.09550855939582528 8.662803743365863 10.367745075887884 0.7128072411182628 0.04702727659213191 -0.8515563089964238
P 4.007631020669289 4.856374133131381 7.88369255047408 -0.07805689220442687 0.3466024467531515 -0.10624029661717832
P 2.1424922896570155 8.996148822293044 7.276069995930985 -0.5647703201802725 -0.18430387368982454 0.6304792323423077
