# total energy = -340851.242478756 ev
CRYSTAL
PRIMVEC
9.44402622010905 0.00000000000000 0.00000000000000

0.00000000000000 9.44402622010905 0.00000000000000

0.00000000000000 0.00000000000000 13.82228698992523

PRIMCOORD
 96 1
Ni 8.816395048620292 5.2681327683025625 4.139429040055351 -1.1830686941856723 0.6509130747166274 -0.24095607496623017
Ni 5.72600748753561 7.104580314930897 10.776504562300609 0.10320536644559646 -0.7371216494939111 1.870955003692539
Ni 5.31491847378862 7.265242087585076 8.63294389649328 0.1377915890608982 0.53415362373568 -2.3308011749638955
Ni 9.197640939772219 7.477506019055529 10.871671069287377 -1.3426164439767392 -0.0961911399112924 -0.7514244392698285
Ni 0.6702406461857874 9.111539753475007 5.363392771148095 -0.5526218577431967 0.9720322895970099 -1.1414469048798277
Ni 3.289835949086305 3.9499450440315913 6.484933205569878 0.858392872302283 -1.109755744424134 -1.3137367848279116
Ni 3.4275865143304776 4.966566125674226 1.2330186633535496 -0.6262019451231925 -1.8907869508168018 -1.6613707581693709
Ni 2.770593948010625 8.522638615607814 3.601451979927745 -1.0048200255509923 0.8198458652670203 -0.6863202505713276
Ni 8.393501002201203 7.584402950907907 4.640860552237983 0.43579941473479783 0.049415317208334246 1.025778372970214
Ni 1.8120252950362976 1.796027114759071 13.68985535381099 0.8781466578904424 -0.8348307687116266 0.19236171099729452
Ni 7.5869245058866674 6.767976335331773 7.004139319346234 0.7683839499423024 -1.5126805199180982 0.9522265677249925
Ni 0.6306154013173176 3.180049145235797 4.143948950964844 0.25500715374265764 -2.3986315043443076 -1.359941308408432
Ni 6.3991304504986175 1.256839330480615 8.907634729539012 -0.4963864322892355 0.8663800042728176 -1.9370963754063026
Ni 3.968870872411498 7.630404802224538 6.385509331600244 1.5495115727035185 -1.330978859737811 -0.20401626451708732
Ni 0.3733790173792415 7.103003162565904 8.455853295969996 0.7507932334437327 -0.9822231140870825 -0.7361191763713257
Ni 9.662749783026728 -0.112519905014752 7.9707873366813455 -3.672642688447823 1.4903833990827946 -0.8364680472047337
Ni 7.894261448485126 2.898891043090982 9.598900611115113 0.7162892861295922 0.8713136941290092 -0.030118159541619092
Ni 1.9049072921003616 0.4205396507029646 9.185946402205932 0.7142509155433246 0.428229829917656 0.519669314076576
Ni 0.5825254758216469 2.40418462192099 9.09670979923101 1.418069580009732 0.26206380347912284 0.12745652568347726
Ni 9.012981896702199 2.512035400413274 7.006240615161867 0.032687205820375966 -0.8001481297277768 -1.538445287587028
Ni 8.69592705120807 1.7232231172637102 1.9087472331279416 -0.9010361608941063 0.7322244693026099 1.1839459545843027
Ni 4.488037321278076 3.0087345110983157 12.34096604496904 -1.2568920079247257 1.3198575530136687 -0.41377817326870026
Ni 6.213744217415996 8.17362518566378 5.728245721730239 -0.031157142329094726 -0.3229902066508502 -1.6037315103893477
Ni 5.030889387697951 9.539599682191405 7.173780472052119 0.053820131144249245 -0.024992922499911793 1.0452560220788516
P 3.081425180280024 3.477573744677208 10.90042151805831 0.7975189196350458 0.5322846888477414 -2.175166644184306
P 7.854945967673972 6.626910916913276 9.284001836788216 -1.2624242505968644 -0.7096751232471842 0.6822543080320702
P 8.807017130665576 1.4095775652052829 4.806064901464387 -0.028090073367996782 -0.10241243823065589 0.1580544530749923
P 9.172755930899438 3.9653576946882816 2.2905739318873364 -0.31311897028372526 -0.30407614335516664 0.17922671627723324
P 2.2288090565443075 9.005077246824962 0.8172454126422709 -1.3504158854165 -0.3609646290120945 -0.23354872675856556
P 5.149666904431529 8.296218088956982 0.5969956126697973 -1.1762133618267354 2.662075990221041 -2.198507375792775
P 6.369060671276251 3.6285081704095794 8.330028646932483 -1.5836545371338147 -0.11761897076776519 -0.12471881503734006
P 6.423552702090652 5.02390080835607 4.303029793643576 -0.9513071412345164 1.1911913232928064 0.8075158829467576
Ni 1.951579669272767 7.00296259368948 5.035265749410152 0.30585997472846677 -0.8474883095746372 -0.9762262730736995
Ni 5.973573188708704 1.2602675119685922 2.332538462030109 0.9697640623881233 2.842599056712195 0.21558674296350613
Ni 7.662372830700578 8.60685099667749 12.396462920164492 -0.8127071973397099 0.21399728698919918 -0.2594502771156757
Ni 4.8041855402629885 8.723919144680147 2.663983170150218 1.4221447785203702 -1.0225526669440648 -0.7542781066685398
Ni 4.242539861829134 1.2417666647648806 3.6787598334881646 -1.834804521913911 1.0365878048808923 2.6912045321558815
Ni 1.15582602691201 4.708177570547353 5.59691992746753 0.4770949310494751 0.5592938704467335 1.490018302433892
Ni 2.050562507221771 8.517661613833258 7.030333270241698 0.3426722584608099 0.008436817913443534 1.5156773977628928
Ni 5.262636345090434 1.2744052190966964 13.284558361294238 0.7323540529019387 -2.895335210763646 1.238687311991241
Ni 8.327543923655659 0.9725835877626418 10.781728997559973 1.330540743759128 0.17254596182294799 0.7383807187119928
Ni 5.261805270790319 2.046274919355265 6.183732046753069 -0.3915957236343901 1.6678409392747473 -0.21941203024686726
Ni 5.38849688142727 4.455351546815573 0.24494309511466056 1.1206083708679218 -0.7416136238269937 -0.49103519527965117
Ni 6.3157963638597465 6.684613916614489 1.0092443528264943 0.8101713182917338 -1.0214447785918666 -0.5991236008491617
Ni 6.759089506736218 4.585603555306429 2.2395280262105723 0.11915546201694964 -0.027532401092313873 -0.19968884078632707
Ni 6.633427294948273 4.600232351793692 10.63099761838956 0.6197893567286293 1.016490777020701 -0.2929442951080632
Ni 1.8265407632099089 6.713588188804885 0.8015362195648572 0.06081224619136623 1.1227457289258989 -0.5791918949222412
Ni 6.724033281713156 2.5554495885681803 12.166004127937189 1.3025378307882989 0.2876066849452337 -0.6048671882011583
Ni 1.518193309814719 5.2781717680869145 2.861890293086173 0.5132662387637095 -0.2895437540669465 0.5712528425808227
Ni 2.1417634676333286 4.555439335822685 8.724171300178023 -0.8824404001697899 -2.3445987429686204 0.7535954787792184
Ni 4.870794256612033 7.047009531595611 4.067926429361762 -0.012200655831249956 -1.8562776041860225 0.6361438868272529
Ni 4.000300591397691 2.583942215425555 8.364653279961052 0.003913733232109389 -0.29140780385887877 0.6645872297696103
Ni 1.2219908740325829 2.8398092155736676 11.491531613639108 -0.4403775210237835 -0.6371445601776253 0.23833072152824114
Ni 3.3061552262522125 1.0637467720696485 10.994080758473507 -1.4476773755738357 3.2298439595770563 1.881937470845972
Ni 5.19521544249355 5.732183880629652 6.195950727769997 -0.5349869182702528 0.38919148506827167 -0.004386044882837608
Ni 3.8537293057409263 0.875750210162573 1.2709052630100728 -0.751275315286474 -0.5833226292611632 -0.40639293654822267
P 5.653486810824381 1.0852980397158298 10.87744892447841 -1.0501588586971076 -0.5322288959091415 1.322405259136187
P 7.495062463645472 6.766210302444028 2.850681178463363 -0.1770579907606886 0.30601475513877624 0.8871362629835624
P 2.5810145673228746 6.867799691607031 9.109799219457834 0.8362520745391856 -0.2411810464928427 -0.2572717814071182
P 0.23336094145941216 6.649510471460739 6.158091515789272 -0.2792230888672288 -0.612478424889513 0.7642732702080385
P 1.8170400729154046 2.5110815537733684 7.210050254433872 -0.17365462150609448 0.5142239746912887 1.1110945178402154
P 3.431364124785549 -0.03139005407641448 5.555246273329797 -0.07677262617536455 1.680345756609977 -1.2373225704332302
P 2.9883259706147935 3.662723877106387 4.070525425354852 -1.0318448908792681 0.7774656005285966 2.3335741097233424
P 1.3033511592086795 8.77922336174239 10.916192097305618 1.9610593139798034 1.4394431605895017 -0.45063622263731423
Ni 8.766974459841823 5.733326607792311 12.381949340796108 0.03308366992784625 -0.32154884621863333 0.47388362320102895
Ni -0.24592905144343416 4.641871063034715 7.969487838684802 -0.658814331841575 0.4841711211699662 -1.1595914369993383
Ni 7.329159256484881 8.900692425925206 3.09821004793452 0.07434241946731712 -0.1533393069875101 -0.2843951199864715
Ni 0.25675190539721326 8.150836750593564 2.320457663794791 0.09868922374279779 0.7245672098676683 0.09648733099547253
Ni 2.581571764864998 6.002415244533173 7.1142066107730315 -0.3476519710635884 1.2789680138881585 0.0494921931928567
Ni 6.683405081268866 0.9315455165839753 4.692071728372157 -0.06793497327907656 0.5330611620024497 0.5540979280680909
Ni 1.3113596933734306 0.9658972172571657 2.152793145759523 0.23439281992641567 -1.7165186069861083 0.859362435304404
Ni 2.4317328461645973 6.643825167725857 11.354898276687022 -2.459788535469602 2.3570637082048504 -4.836798604889393
Ni 4.489350040911214 5.330529448994202 11.468268144054164 -1.7440882890742608 -4.4101970546037785 -2.2689196069677506
Ni 8.973571975629667 2.092248438593482 13.279181877214057 -0.21796192806390202 -1.2835006116511896 -0.3104105702136267
Ni 0.35035637046080975 5.002916182278149 10.144438558568545 -0.7122523970560573 0.08923630586001405 1.7848875824788097
Ni 6.833206223864716 8.833602064243141 10.13776257649182 0.6022654889122531 -0.48918528655510585 -1.1787366424692216
Ni 0.9760495453551696 4.036565651766375 0.404744516987698 1.939992723117491 0.3919790751157378 0.15496552973702343
Ni 6.774974358699792 4.207039767577602 6.260763190347654 1.7739583371608159 -1.4538858183773928 0.905214460641512
Ni 4.224086234756111 8.752638428164827 12.030006373944168 1.2106023808295667 0.8739750430112561 -0.12970007030201536
Ni 7.543500873705623 3.2122249422868663 4.013701664487056 0.38148228934947204 -1.9662097478324911 0.3261434075678512
Ni 3.878888191371701 6.768165215854527 12.786098884137132 1.5078406753272935 0.98838039193773 6.928584373553196
Ni 8.211892379573653 4.197529633256961 0.3022824998095732 -2.5876525810041437 -0.8981773512890725 -0.46815186292357436
Ni 7.174041127173519 9.564437470933498 0.9100603571207576 0.7842052332452752 -2.0514572442480863 -2.531704604883614
Ni 0.7044506864669126 8.77340584164158 12.977758783783013 1.3993663471732738 1.2009823412412994 -0.17799284387013214
Ni 4.149865633340099 9.47726910968273 9.350072243647412 2.114326887189114 -1.7937764003280074 -1.4134259105901334
Ni 8.868091647697941 6.193212904592683 1.3297330462242833 0.6359232861760145 -3.1517040207405205 1.0926396535691376
Ni 4.2837724799462364 5.0837664900428114 9.165586026255712 1.278794978645404 0.016580787176816603 -0.6367581233724839
Ni 2.535182708476723 2.746218916549278 2.2679328236248666 -3.0060088605618294 1.3777037745981755 -0.03449623400465672
P 3.3890737757410263 6.442365202156907 2.542222285559748 -0.31467808724072904 2.2821787859705016 1.952699372050882
P 6.1569006240933115 5.808992145207388 12.50782876518522 2.0732239465012166 0.4240512730599342 1.0075932174207551
P 7.327808760747194 8.848296968913369 7.3368561377870884 0.008923527741874954 1.8059086648151672 1.544916240023352
P 8.675650727090474 7.752081634982383 0.17047600461645496 -1.0899777904662584 1.5208175472029357 -0.16349413603332488
P 6.95260704632338 2.3680517779182337 0.6675264330738188 -0.14364959050357198 0.03632685945549228 -0.9859360441622957
P 1.7463609813010217 5.359777597942592 12.660012635575606 -1.4710281344846343 -1.8631954143517784 2.231224663520138
P 8.617069432958457 3.455474723515041 11.665568016109466 0.004704861674837058 1.581072378228935 -0.8619893314042897
P 4.388298961238058 2.939849784450092 1.7887561590356724 3.897149616719094 0.5188607021323516 -1.4683372179160323
