# total energy = -340867.37563966983 ev
CRYSTAL
PRIMVEC
9.29195320547127 0.00000000000000 0.00000000000000
0.00000000000000 9.29195320547127 0.00000000000000
0.00000000000000 0.00000000000000 13.59971276122932
PRIMCOORD
 96 1
Ni 6.8053615592893575 5.46634462780395 0.05011615016804796 -0.42195788086601527 -0.7862060657253879 1.3764477907038875
Ni 1.8759710373092682 7.878712253738581 10.54034860670633 0.3808665101423441 -1.3698770794649053 -0.2594196809880564
Ni 8.411150470254633 9.199442621113354 5.3837726139255135 0.36173107486447376 -0.25786493490642687 -0.8106374592948749
Ni 7.94930322302136 2.2270953689214306 9.112324054481192 1.9504756249266857 -0.4334134310011245 -0.774071487245383
Ni 3.8597751927607815 3.439147050402907 7.035471207796191 0.6972924333121152 0.8365762906478237 -0.32238676873889643
Ni 1.1982252549588004 1.713501233714512 1.146590799620184 -0.00042963133825087304 -0.4460493745975802 1.047182292567287
Ni 3.6392864327093104 7.134872807506529 9.270706327815649 2.2056676409866403 0.9499670822668543 0.7973304577733236
Ni 5.604116419505376 0.7392455045164537 13.361269481674768 -1.2163307986729117 -0.008924041962507212 0.5253126284052825
Ni 3.352100031811218 2.0461345782432563 13.505045733603986 0.29742161415312646 -0.03157366104122304 0.13917895632672805
Ni 8.884166645364422 5.229028140311237 3.383540285025014 0.1620535469320564 -2.822544709164481 0.6366825329395422
Ni 7.709487200088727 6.834538292677263 2.0092353024608633 -1.073311642664487 0.7202207599735144 0.710426399590912
Ni 2.6807471133368264 5.056829661602742 9.352508967960162 0.8951326509254777 0.6583253080202985 -0.3556784409124906
Ni 5.891330696263393 8.628833060407011 10.961518469942074 -0.5325852508072957 -0.19547505981529562 -0.5202845790630717
Ni 3.6587344909834782 5.708985404542289 0.8723573816337932 -0.4213475009755259 -0.03856397631612713 1.5133698326756386
Ni 2.0888868554145157 6.123527317483259 3.914868113120728 0.4095610498635592 -0.2339127949662036 -0.05670902265627008
Ni 4.14878281650729 4.8134548205530505 3.6003336352457938 -0.1799186001379353 0.5596435404766684 2.044604740102627
Ni 1.9972496118885512 7.246292619625759 13.079115602688422 0.505617206858884 0.5197767861887178 0.48429916210739815
Ni 2.6472774975205087 1.184370952576199 3.2671817997224495 -0.7147707926025368 0.5592738158420756 -1.6055184270864413
Ni 3.1556030952016494 7.932810005899215 5.306199670926917 -1.213061898113653 0.6305481379070302 -0.2593356059146824
Ni 5.728870184621945 1.1326333565558613 9.158277409567143 -0.40372156036364665 -0.6995832862288209 -0.01587630491062427
Ni 9.298457675566068 2.3288329656934628 4.816216389076263 -0.9769891193816529 0.6035173590414832 -0.6086999316836872
Ni 4.961113250574456 7.246627129944856 13.338054465529433 1.0202363601060622 0.10170692752319903 -0.189833288148486
Ni 5.954432351179721 4.831360414578049 5.7969867067387355 0.641728837114198 -0.5117048078138606 -0.21099500982776567
Ni 3.079790048159635 3.5601561583362504 11.457159622162123 0.36887514210842276 0.4269116253268648 -2.505149994323537
P 6.8291954195250195 8.411726571359743 12.8458531944241 2.2933067775628633 -1.3724756934300169 0.541797256323867
P 1.7717803648638577 3.845428416852843 7.723426988441765 -0.6355448197906731 1.5122246633276022 -0.5328963542898113
P 8.687037855929892 5.219141501991258 1.0605733294550495 0.12907092135844866 -0.6260142545924187 -0.2704527988737665
P 6.476909593749326 3.4670322022809663 12.217791486412846 1.5634153272688043 0.4700259400178357 0.7813122279681963
P 8.294982469994887 1.9707954208199627 6.656542564299752 -0.3197848123396751 -0.7995112674747262 0.9148756378803597
P 0.25743821238172854 5.722124226520155 10.406038067612226 -0.6520777844486898 0.8263060190700672 0.8058621493934185
P 5.65847434635864 4.3016075725680825 8.247138202410706 0.19821739844712313 -0.7114291298238136 -0.5843328156932323
P 6.25936638289657 8.332271078620895 8.79229617381042 -0.8981860930398209 -0.833159808767107 -0.457955896227179
Ni 1.2510314256095867 4.2972031866999725 1.6591377316892628 0.2802453594841561 -0.057418904239101114 -0.9608161091662163
Ni 8.092241340762174 4.182354643809998 7.114376616899191 -2.853789011890743 -2.0840274648746235 -1.48041317524396
Ni 3.484045768788372 8.837511747803697 1.2613622192976992 -0.9508312300393624 0.12010291353188347 -0.016417007905442694
Ni 6.255342967114098 3.290159871058422 10.119138788071359 -0.8274622441616976 -0.999357459774524 1.004437702510909
Ni 0.48421669562755437 8.581193215795613 1.820063212644188 3.3651752600229203 -2.493966466902892 -2.6378400004918117
Ni 7.530802937971075 6.749730634832863 7.495304888747566 -1.071647624698503 0.27371090079974797 -0.9884472406199235
Ni 0.04284240911834963 5.408111956421145 8.227989345033064 3.688932169636466 1.592633343593657 1.1024373563858498
Ni 4.606532312331624 0.20829771731104685 3.8798485994925946 1.091405266941404 -0.18447099539530812 0.18217217205880237
Ni 3.719596785152518 8.987242283412842 12.221341012576598 0.20997119654894159 -0.40738769636132416 -0.7377816516754132
Ni 8.40585405686893 3.2248095634414975 2.4317376318010115 0.09726868924618731 -0.5714125080871384 0.6616448593118347
Ni 0.3332475426424194 7.323601671150402 6.477706843343174 1.65149129427213 0.42883121094708077 1.1704204092940425
Ni 7.459031890618149 1.2255900574515972 12.016107781466612 0.8428400121693485 0.4144618295992862 -1.2884425290374972
Ni 6.673044144179874 6.069587528528866 11.48321704682445 0.03772579668554793 1.2271983375150348 -0.004083940261386515
Ni 4.7894444132045315 5.145502772023375 10.147275751884072 0.4845161632142107 1.0683995500748502 -0.2619452756233876
Ni 9.675803899414113 8.712906653940061 11.779989955950663 -1.5990922118451234 2.255515931967335 1.3182449571109105
Ni 8.206978380212448 7.755473077011259 9.658516220284113 0.24825132307606276 -0.854612065103612 0.5758306917594922
Ni 1.1486155162460518 2.6484947434038895 12.552004463003993 -2.136726337930236 1.2693104361937366 1.2660590191359744
Ni 0.7563612825102507 4.568491055487648 5.720039112197783 0.5886818366905475 0.3381064934669984 0.2653465879954527
Ni 7.770869843643029 9.384687002266633 7.684831001985286 0.6077668783464565 0.1081017753059493 0.27324090314186494
Ni 1.2564207585283718 0.22952146786242134 6.480603145189355 -0.12356516104887107 -0.48143315341351284 -0.3449407427800124
Ni 7.393904589880623 5.15673674357305 9.549704659458511 0.6954270979686022 0.5369669248147592 -1.0068265144580595
Ni 4.193570031453056 7.130561341171502 2.914160051244743 -2.4749050793960667 0.8265662147099894 1.3595541002723424
Ni 2.5088366851808876 6.275041908127589 7.364448168698139 0.06538263917086803 -0.9892144578032512 -2.0735584470225
Ni 6.1546925288791305 0.37922505680697266 5.858769833480622 -0.7960014545492549 1.2991689143160658 -0.08997344113635473
P 2.6740011552350365 4.317320265612334 -0.37548411640507107 -1.24474817347334 -0.14553523756205902 2.691808227178151
P 2.0483088953173865 7.00879958502019 1.767595269093822 0.7427868181994884 -0.008757177367339756 0.7315274432355854
P 3.729176789013324 6.882010882129115 11.58120255285061 0.11302775185265697 -0.7913271890020371 -1.2212580607712
P 3.982800654562015 5.868203024479158 5.61279231630929 -0.7911168727634439 0.0006422615696892166 -0.5381848563822602
P 7.132800701918789 3.2282847539787833 4.458489195443257 -0.3369266142262843 0.17204202560333598 -0.7767348930101591
P 2.033887783782982 0.2715433975036525 13.363023802459363 -2.1733725283983603 0.08943556635501371 -0.4993326594017529
P 9.419624746705654 1.6126742483666878 10.812669740701883 -0.7141133615241959 0.36569597304949275 0.4406341171192799
P 1.9792325144238538 8.093932476264275 8.313599827643298 -0.8888056802661854 1.5568155625640994 -0.8072222629657387
Ni 0.036850028429859016 7.2278852601221155 3.742532113503272 0.5965782087194886 4.411220096551655 0.7975274042754781
Ni 3.5055287648370475 3.4514681804896474 1.9450985239459964 -0.7167122325996238 -1.1738836852522945 -0.33594548125993756
Ni 8.6655362759746 3.7510779229608695 11.265880117335136 -2.627488482054159 -0.35844546213466655 1.017958619815479
Ni 7.693235573752598 -0.08556866882034614 1.220600278525067 0.4469626304404689 0.888706692794476 -2.2992316276877305
Ni 0.6903586797710871 5.226454269244852 12.805979564387735 -0.5312210234699174 -0.2503218324518463 -0.3104560787395814
Ni 2.4448244188403514 1.4454376727247993 11.251654136820207 -1.8280558903361679 -1.9757619102973005 -0.5111849307546487
Ni 8.84434133348526 0.6095893048344523 3.062627810399297 -1.4090437223620378 2.96729627448298 2.138014203503724
Ni 5.475720208691973 7.428136145868217 5.67171909660422 1.7395762601365203 0.18075446577566934 -1.9686623231380418
Ni 5.492213425814119 2.9640308938454534 0.4324735244352318 0.6749567459293924 0.7150708403414587 0.3710433534043352
Ni 2.2189834936833277 1.8161122740975202 7.7952333452172615 0.4902656641034782 0.03567354214220953 0.47802875571765413
Ni 4.963752165313998 2.7321316151314505 4.928672253989362 0.5013761721943429 -0.6500332432148354 -0.9755163914908682
Ni 0.5157991157269662 0.3522375076184905 9.11958664518692 0.3114816917906184 -0.16073637078252964 -0.3780503808497876
Ni 3.060778711690955 0.45126835839182966 9.427606534597441 1.5038374677051716 -1.3749385531482128 -1.2576139736924148
Ni 4.715991522302812 4.747491244017781 12.438895373773324 1.0047104965563212 1.5699148189502188 0.7558853032546595
Ni 3.943254101282102 2.812265420461801 9.465372749623494 -0.19812123918889105 -0.002779876737982309 -1.0167851683326683
Ni 1.1157405854414624 3.782150214823658 9.863504143826761 -1.0215980163402794 -3.1306757393153117 -0.31396974831979474
Ni 6.667013666482819 1.5577030525950795 2.620569636126605 -0.9844689726984658 -0.4343012329227166 0.29101699617836335
Ni 5.741832459486954 8.381825065613794 1.7904432530834786 0.17943446141266514 -0.14940757603327173 0.6151004358933923
Ni 8.330449855772478 2.21610298815777 0.45524624360309157 -0.8462019866630459 -0.13933347962672132 -1.103027681671681
Ni 4.425014004454955 8.640382958369166 7.3582058344656565 -0.521071336630425 1.1357231150221732 0.9120937042598485
Ni 5.911828745261393 3.779734306963513 2.5569095348164512 0.6335290749122251 0.7144936276817501 0.614769792026851
Ni 5.07420561428917 6.260760175892808 7.558108271962699 -0.1367981147993773 -0.3107980354600325 1.617208718940176
Ni 8.797862983037392 7.3675990700649665 13.516020459656358 -0.7780998916784857 -0.42442228324610776 -0.6203794249041444
Ni 2.2447222043471813 2.1676919114217865 5.270283483804537 0.3434335621068666 1.6854956762420326 0.11435958329020306
P 8.43850598079412 6.147612060458244 5.360299281478212 -2.154415527679883 -1.7362415393363322 0.3715411189763601
P 4.504209322501172 1.4282382671512281 1.860073434394183 0.4943737727345809 0.2192564785056095 0.3741405042724202
P 3.9086694510687945 1.2554822712442386 6.17418797611517 1.1463816231772836 -1.0689392246284042 0.5420296840496471
P 5.635049332068541 5.959031868067304 2.123880351573386 1.2561469022285852 -1.098072908769567 -1.2666675992542509
P 1.2420089389472757 9.087706882581644 4.161335316231406 0.37516200355839907 -0.23670347033746333 1.5509835292633547
P 1.686331562241188 3.95616991638057 3.728225292994559 0.5228572248862543 -1.095671498416926 0.6081787690728945
P 4.581741380905212 1.5167905821788532 11.187545234165265 1.1769006177017474 -0.3363969669750594 -0.5364164516279278
P 6.806550929312813 8.788979875674706 3.7669978265638946 0.10688821461382238 0.5127327348577427 0.4364401336425903
