# total energy = -340894.80255824025 ev
CRYSTAL
PRIMVEC
9.02514513569665 0.00000000000000 0.00000000000000
0.00000000000000 9.02514513569665 0.00000000000000
0.00000000000000 0.00000000000000 13.20921218174934
PRIMCOORD
 96 1
Ni 6.422383671740928 1.710752398804373 11.243879843867822 0.43217184528453956 0.43874307074415403 0.8017134173323677
Ni 4.693147775290758 0.4127108710178902 6.1211360531521795 -0.297406701754791 -0.31493494044654147 -0.7511765849250805
Ni 2.8952485731329607 1.6912219842997323 4.760256950971723 -0.7805282986143204 -0.8705673028812879 0.3719383544147788
Ni 3.2484025100860987 4.184851590031347 4.474250997824489 0.9647239288610547 0.9571324896670419 0.6078116155414628
Ni 5.006193966375771 4.693364378778795 2.575188941608227 0.6078841206506111 -0.2865599888482742 0.3974583530627542
Ni 7.194150924760955 5.93540487976246 2.840007463567339 1.026998104309928 0.11631696412689001 -1.348298067742549
Ni 4.784012938522145 4.370309301517421 11.386499703021972 1.449231350324517 0.617235222848208 0.1503095190222508
Ni 5.523650674150066 7.938923968084412 12.413832899003811 0.3175016727324532 0.07686724277169987 0.542001144804557
Ni 1.6294358393372692 6.631442138277664 0.313804303293141 0.7467892544906622 -0.12847339698376584 0.594475303443873
Ni 2.594945887260773 1.5211070198829242 0.29447424701493424 0.3115500831347086 0.3600755415389218 1.5070495468845657
Ni 0.542126040032606 0.09962587180793775 4.693510586133219 0.40009604779591745 -0.6371275908967609 0.3398743840006985
Ni 8.687289019251143 2.2511420008745517 1.2157403249633454 0.8668574581298683 0.8650196335901812 1.1866327573878466
Ni 6.875572319585672 0.6973964454026335 4.766359754247157 -0.3056941385745639 -0.23759075803842308 -0.019660197433088722
Ni 0.8656260569589889 7.516429839523532 2.539629868988872 -1.1658579867343406 -0.26610454920739973 0.7866554945579807
Ni 7.4729557144455026 3.5252488432329807 3.921260487837777 0.4547476737025265 0.8393294279129287 -0.4138113404994809
Ni 7.369717076960019 3.57748638443116 12.702771121870342 -0.11365510102401072 -0.12168002821101624 -0.6395218021605502
Ni 8.05169315904351 8.82485930959044 6.837366171839602 0.3434237919148537 0.2483613662913658 0.2851777637887669
Ni 6.946618263661704 0.9224330292402089 0.5485113303570206 -2.105534228598148 -0.5919175700190257 -3.182301433911403
Ni 1.9330778289833557 6.411472271031079 9.180996959591283 0.6972790635756765 0.02616071755576785 0.47605594826199954
Ni 8.993512200463 4.8199691175362345 1.184481734096052 -0.008119800893656983 -0.6507595798578987 0.9333194464078444
Ni 6.513663991657719 1.8213645800284377 7.009706737095988 -0.15783462375470236 0.34016157622381415 0.45554780100631864
Ni 3.4259722445495027 4.543574041656095 0.5455429600563846 -0.6772704816642336 -0.02406963935469403 -0.8514886889832818
Ni 6.119896900697703 5.518867347122589 4.851875713838571 -1.2615030243341758 0.8718145450248276 0.07380403046534387
Ni 5.484364216507412 2.8615847810339266 9.255880395463699 0.20378589367383615 -0.20408876962623562 0.00536794918013269
P 0.1163530761715704 5.45061017295503 12.263380116213533 -0.17936684139952336 0.9053836392295246 0.8375779924394606
P 4.066152878587246 6.22550012626092 12.264027219134045 -0.18359579187920638 -0.27088422998423023 1.7267001755048004
P 2.3970063997765862 8.507047841768621 1.4227645237416038 0.49220967520372644 0.213866932058922 -1.0615102791541846
P 6.441995312553582 7.6697038827454875 5.762017397647232 -0.9931330761313669 0.8743920759440167 -0.39677238273932314
P 4.74394129323536 1.187140541911702 12.627782994312042 -0.26663136824514727 -0.722477160107859 -0.9806678537848208
P 4.222657923839083 6.146764758359586 8.146424694536352 -1.1863273103322858 0.3023136521381051 -0.3610726153448685
P 4.718273779903013 1.11484912777946 3.730810065952458 -0.2688399458606919 -1.18609591104777 0.0986084911035334
P 0.3105940590975307 5.562422698508631 3.5954157381533967 -0.8943829172436467 -0.07981989764212061 0.0690505749407585
Ni 1.546359376529867 1.097945030567264 2.7017855577348655 0.003054470555607643 -0.11696025413784372 -1.144106968210494
Ni 1.9586550908623537 6.591325367264203 4.881689378937753 -0.6385005599848875 -0.4498654059095607 -0.6623465133645497
Ni 6.099752776310291 5.655589273800408 9.142267353415791 -0.2159641809075829 -0.36308990288521337 0.2950610843407499
Ni 8.530089037808521 2.6014349667565386 10.16274504900127 0.9376471272489207 -1.0280746252035584 0.7639014886909167
Ni 2.3941995795774442 5.225288394524873 6.868341373143381 -0.3825127874965154 -0.1712598960216728 0.4888453867171839
Ni 0.6666125771799537 0.2756568189917476 9.201484942015952 -0.19456848884062622 -0.5846760579652641 -0.41183596194066496
Ni 1.3898453061326956 0.9081552493204577 11.570108162228932 -0.30040897891622453 0.40973202822378463 -1.1538113399824517
Ni 3.967923196762612 6.661243168173376 1.5158227972893628 0.5737031038935281 1.9268261038285464 -0.4286023827657264
Ni 5.894105814710134 8.119381749054972 7.951642202890299 -0.6650289452927192 -0.03105738352643684 0.2324593503491287
Ni 5.1828972868870276 2.7399077716293214 5.111001174120452 -0.0016768734817906605 0.46121785480790245 -0.35797263626330605
Ni 1.065905764628505 7.574813504694752 7.155073850490071 -0.10129272280391588 -0.0209892006571574 -0.29512819013325947
Ni 4.888966353621252 4.498691993905828 6.9172946639542054 1.0252296995555956 0.34479650389266425 0.0177048734789308
Ni 8.151664693917771 7.10538862039259 9.205566112736378 0.6374273815253667 1.3502726749704166 0.29339320972002375
Ni 4.613013509862521 0.42786138249152256 10.39592772901809 -0.15656578434460777 -0.15776340419713475 -0.3935461624925416
Ni 8.35625571351375 7.0927534169237845 4.911383009603981 0.2528623394855129 -0.28818621159778757 -0.41877382671107877
Ni 7.256758357948891 6.154084151226159 7.020313087893517 0.36845785206534604 -1.102643558859385 0.21713506128723248
Ni 2.177650242412773 5.336252556416998 2.4852605884625985 -0.45313662046166475 -0.41975830211153514 0.14312714234119867
Ni 2.2546798578458174 5.197057739917425 11.573568402950318 -0.01515845290799325 -0.01038237167558857 -0.7970597206104402
Ni 1.0878188175015493 3.2742956520518165 3.535088959191581 -0.9310633033838158 0.8526104612925509 0.3773458985835953
Ni 3.6602289168611724 2.7988780712473074 2.580234900364948 -1.1371567621449061 -1.0645284971552182 -0.12199344568637699
Ni 1.0007532404561386 3.3660633298166904 8.154865912968047 1.6906962466063657 1.247062937649446 -0.5252720049753341
Ni 3.3704676007401027 2.7747628829125572 7.191333274387412 -0.22798665928975576 0.04435538618692361 -0.6718655085985784
Ni 4.11620633461439 6.978973409687183 6.030362043888674 0.7908985861050508 -0.3416502449541987 -0.738578950765728
Ni 0.9512412931490873 7.41891314418035 11.383792159421514 -0.11607142377498719 -0.352675906640741 -0.4722514869142448
P 0.23152024824613998 5.7548748976292226 7.957506742328892 0.20947703052134245 -1.6980868826434818 -0.8276445353758326
P 8.603770324322333 1.8705696723941037 7.9400439886204675 -0.3888420721486529 -2.674698049860426 0.3222510144919805
P 1.810182424958544 3.538624108619246 10.18724831858542 -0.9002139221031271 -0.4418993569849487 0.3249262473312985
P 3.890514525225503 6.138633102412877 3.7271241965977007 0.46489710343170254 0.7734413098605518 0.8128735477142451
P 6.867350412185613 4.023806896676076 10.560184471598042 -0.7391731327063011 -0.37778298612101385 -0.7049404367756763
P 6.328675587729059 7.784603008003612 10.18598028566587 0.25518764518457987 0.3479617889945233 0.11001159073415248
P 2.455687894743857 8.56288641595541 5.717567654358504 0.7644717593720899 0.004174443092663779 0.10601558220088193
P 6.873009178310572 3.8500367483986486 1.6075742297926334 0.2774729389453415 0.014188118574923952 0.960553599533449
Ni 5.003847428588706 2.893723323571369 0.6426517188304295 1.1506925918478117 -0.08582213797214253 -0.7219390282162018
Ni 1.6203926437117377 1.018153720661752 6.97863857679526 -0.4620557773281655 0.7725522223873792 0.33495380677062964
Ni 7.3870182805669495 0.6279452445072723 9.207851279535165 -1.5980522006163833 -0.5386607675774143 0.43327176321693767
Ni 2.7477686732159854 1.6279557155023519 9.303922146595701 -0.5716865876841315 0.015223501817973781 -0.028491422571473517
Ni 6.31095020229139 1.8678982293749848 2.5874730669235073 0.38494299420456285 1.2216753508142766 0.2055841232248395
Ni 4.28517510557367 7.03302500509767 10.228249553841696 -0.9760550376031578 -0.28414572297982676 -0.1433991650556627
Ni 8.167097692440386 6.965065660726161 0.5249728488091678 -1.0958900421856352 0.37985092439363616 -0.13213079123069502
Ni 7.631545568269692 3.7476735500106475 8.198257909223528 -0.900917633038371 1.6907378984775783 -0.7138649929588158
Ni 3.109126467278513 8.416597835222635 12.412538693162793 0.42834295845675263 -0.8447932792409774 -0.06609971984255067
Ni -0.13218588863251826 4.949010645534087 10.143737190411517 0.9663846043929293 0.47290300445531464 -0.27939072479334465
Ni 8.796646705273663 2.179383070317066 5.7941017893126645 -0.13250797206445566 0.7373697609489752 -0.4296156545215892
Ni 3.2706585184818673 2.6468765735175666 11.488593952078995 0.11106445747869904 -0.36170022162653837 0.4633611264031504
Ni 0.7213997219352316 3.2694491490069963 12.406197626050519 1.3966245227620786 0.0842337104391001 -0.40025005687527837
Ni 3.380864568165864 8.291942527857527 8.022166493565976 -0.594327207901783 0.19347756976929262 0.7279962901538753
Ni 5.5922237284043455 7.802265217423936 3.6268665646163227 -0.18320935507406513 0.1277007804837994 0.19827139161351018
Ni 3.1628260820209397 8.313720203550549 3.50008493301032 0.18013045903842526 0.3128772865865644 0.3857377221917163
Ni 3.6085328843830844 4.249399429466278 9.222051443205036 -0.7647275841366378 0.918484952498173 -0.2770957581115809
Ni 7.026563001037909 6.007037458285257 11.528921008978758 0.37718983262170525 0.03382826140335465 -0.13038141263975608
Ni 0.4147956795902433 8.983124258182574 0.4295409620383403 0.5621238836963609 0.07997622071432678 -0.13492172371227085
Ni 4.696532204791332 0.3563073227331386 1.4911354147403821 -0.8348328255941557 -0.9802603339337569 0.22731483003371178
Ni 5.990169461654401 5.427785580403165 0.42998319415974856 -0.6040336365562694 1.3847568247902151 -0.10700314292513184
Ni 7.893184531527333 -0.5915531509735096 11.566012551275971 -0.30431397039758556 0.5045712820928729 0.00018254832445129852
Ni -0.018906776962001753 4.6613973140027145 5.767723094527931 -0.1985354439081742 1.022151317740588 0.20116542533185355
Ni 7.88191212500409 9.064494968521688 2.3142539396867057 0.746075002032457 -2.08509961489288 1.8275997766353558
P 8.521280495961697 1.6471070739029283 3.5849140790417517 0.1512042629223783 -0.2238914061744596 -0.5221221464924427
P 1.739849467363967 3.27309530772228 1.4206372969861767 0.29690585085897253 -0.11750558511835245 -0.6333179873426835
P 4.577003179976423 1.2376813557869277 8.170770024077141 0.7631149882338794 -0.8698059992352309 -0.3617529292413447
P 8.423817951490525 1.4223629047742024 12.197756479454688 -0.18849040096734634 0.7000147173392847 0.3126032069895713
P 6.196511359445345 7.660417008195915 1.4704227061968744 0.9488345113243077 -0.565495114161439 -0.4460439752809414
P 1.7427375138711227 3.3605670163077597 5.7127996700780965 0.31990976795331355 -0.5331413804210818 1.454829670347901
P 6.837441080545882 3.8958664364090763 5.987802166033068 0.525773627202101 -0.4463951879727731 1.3247107673409122
P 2.401735575932054 8.509881737403767 10.17097507903213 0.9445909055566055 -0.2563027326256296 -0.15048589669911502
