# total energy = -381172.8297912182 ev
CRYSTAL
PRIMVEC
9.16112652229793 0.00000000000000 0.00000000000000

0.00000000000000 9.16112652229793 0.00000000000000

0.00000000000000 0.00000000000000 13.40823468623935

PRIMCOORD
 96 1
Ni 6.116416889555021 0.25833277153891354 3.785492864689294 1.6236436759322423 -1.5879487936337942 0.37307658178428005
Ni 3.3440951362334976 5.172930802372245 5.144967380104441 0.12991398608503432 0.38794115760093834 -0.0772426238332476
Ni 6.231370703804928 7.50791870291547 12.33242438436273 -1.3411455158581678 -1.4072043551604538 -0.16856769390149032
Ni 6.99589418647926 8.427631667052461 10.195514694704569 -0.2472730183231935 -0.7007767923162899 0.1730532404766697
Ni 3.9121216184419176 6.263599546531352 11.396543864329324 -0.33868910544334574 0.2882057519818133 2.520161637241021
Ni 6.875013123439131 3.739956569733079 6.641004974756159 -1.6191671282181275 -0.798992933077411 -0.4484075904171116
Ni 6.1257795607507015 2.141449943909216 2.4603176065702637 -2.2745096994610186 2.1481592623575265 0.48833990783567516
Ni 2.0018068939720677 9.1057748887639 11.958871209795246 0.8817428598821331 0.17354894916616562 0.9087132178233898
Ni 1.6521175376018722 3.8183300062096452 4.274906805021728 -0.1869593090348006 1.0139276442792151 -0.5852229316076695
Ni 8.974679169771536 3.713471753268584 6.685211990269622 1.9402634602803743 -0.3207795721527766 0.03333538092733614
Ni 0.9023498812434729 1.5785078868608773 8.610030610079004 -0.45629727757783356 -0.06532864600448104 -1.0478014142085246
Ni 3.7059596296086443 1.580761523958859 6.920084033173487 0.06932054077269352 0.6987049973889257 -0.8534895214633946
Ni 8.216311964047788 5.758198524492868 7.527704903745638 0.6947264723571518 2.2916610144293244 -1.782357102747472
Ni 8.108119061091827 1.406910827989741 10.167169253465277 -0.6712854677253923 0.9044217895368875 -0.5944123114164215
Ni 5.442121340937697 3.0176658798298717 8.304349472779077 -0.40454791291968395 0.04696582722657718 0.16830981225441338
Ni 4.339424037796271 9.03538995452083 8.272626324230735 -1.3521583220289037 -1.8460970641085948 1.0869212630281215
Ni 1.343186032650057 1.8074077914550901 10.779148071872836 1.5079887708693835 -0.4512928823847066 0.29353821993832024
Ni 0.2976495777722836 8.709033987128521 10.496355092807043 -0.7078586388637358 -1.025052550547783 -0.11948199211843295
Ni 4.530314428896472 4.088500785301455 10.235162217601506 -0.5176358285863151 -0.5994388180967354 0.2411381090700492
Ni 2.124043803721551 1.4677132240031803 4.496934032579738 -0.06689907581539446 -0.8081694573703565 0.4216596328993061
Ni 6.001976098384328 0.2078687066843061 1.313442603519903 0.5668274598196174 -1.033897916753555 -0.6591282635375681
Ni 2.6658419810050837 3.7957844741034115 1.7320492816815556 -1.961540624491596 1.008060643975477 -0.5305749052454862
Ni 4.683076211859272 8.973112617154646 5.825636324368374 0.22870708239554804 0.3450201898676961 -0.4771653792760943
Ni 3.9203299877093643 7.138642858270944 7.022898438811461 -0.41805314649497033 -1.1835638886545359 -0.6190745900497919
P 5.393100153493383 1.6054324373932711 9.969692928585648 0.10887490602654798 -1.2233949046085446 0.2170584424130262
Ni 0.4755925489107858 6.968071845558239 1.3969105423956065 -0.7554546434751441 -0.23759538602411337 -1.3491650437285345
P 1.015565829812538 7.207900973965023 8.428415859473548 -0.3817612540424715 0.4226857601709753 -0.15315367333926527
Ni 3.01603519932808 4.344196984658257 8.222546110572898 2.0184401658921174 -0.3888197035511497 1.0957704858886355
P 2.5787379910554407 3.6334951196694694 10.790759799603292 -0.8333930078238356 -0.38769870257282907 -0.11284700330041855
P 4.279968327365773 3.614907194174326 6.479797549351776 -0.3111176235829803 0.718038407610215 -0.46769292100928483
P 6.672369007149049 5.808209113589955 5.88195068455132 0.2709788465805656 2.3319131770811516 -0.486176324525453
Ni 3.7496032358476117 6.15709229083567 0.7349321282426595 0.22708368785951213 0.7211342729267193 -2.260397428429352
Ni 0.13881396799663062 5.081145476824761 2.6066281243119294 2.050588725600204 -1.1145469951651903 -1.7547341988238812
Ni 2.1202602585123373 8.970959752447223 7.137725829516846 0.8181137130672619 -1.0009965380398438 0.6543583529527505
Ni 7.160537950401745 4.435963987952912 2.7472669886903405 -1.2969850192908696 -1.2584979189592649 0.15952692385546074
Ni 4.991824494282795 4.124201694938997 1.350973906215075 1.138232254597272 -0.44608614137278657 0.5218496095573465
Ni 6.253714691130041 0.7273549605851765 8.028193729800634 1.350723646464906 0.5352753960449491 -0.34334305927558934
Ni 1.3875075622437016 8.599824199140542 3.0629502438096865 0.00515480472806209 -0.41472691033521475 -0.28828442773854873
Ni 1.351256985021285 1.5410846854573967 2.0710631774408634 1.7487309300525946 -0.41979943976211576 0.9234798346096031
Ni 5.765435814360372 5.237617515985458 12.685866138112328 -0.9907062118574291 -0.9312767049462026 -0.08649730966229618
Ni 8.440677111066794 5.277633316164259 4.573750077565829 -0.5891340937366176 0.6554382162804906 2.9140014197145816
Ni 2.5920399466093826 7.893327291176038 4.92968457381283 0.8692992348021416 0.04717871456833165 0.7576621926494241
Ni 3.7209289101700365 1.2244669954437652 1.5111616982495173 0.30791274349243747 0.7336591448666074 1.5752871390057257
Ni 0.24103381653029865 7.579888512028259 6.30545032033099 0.32427550112117703 0.1605039430567494 -0.8202775534878003
Ni 8.254852822873847 6.187479747152767 9.868232537431748 -0.28701815943161535 2.1650069300424843 0.773547496421113
Ni 5.990304823332178 6.50448220447581 1.399658880319975 -0.49593494657411363 0.9015737785651312 0.016703171687293815
Ni 4.422084881434852 7.899611823896426 2.595150149027126 -0.9994379353034724 1.423821909112477 -0.6034104011499737
Ni 3.3593484117137415 4.2936275668498824 12.781587083567509 0.0679794533637668 -0.7179905850914151 -0.9508695394764656
Ni 8.983831135059683 1.5617430255222309 12.474096623800703 -0.8540970731404064 0.8854519333026041 -0.23393850599781646
Ni 7.6845268979353705 5.341587139664307 0.722515137500364 2.0523938971297424 -0.14691694840093408 -1.3007511712015212
Ni 1.8115302983416424 5.749074042583966 6.965926309751949 -1.1682352287172655 0.5416941550870993 -0.5291137473189275
Ni 1.9618643828045832 3.0772040403981014 6.542145427391352 0.4989781042758116 -0.22775834532903358 -0.21931972764337712
Ni 3.883731287683194 1.6776221135400091 11.647263739817737 0.01962034533408879 0.9232291520513777 -0.8172331102345215
Ni 5.66851109689432 5.433225887189158 7.799288328530573 -1.4913869006466443 -1.5004646945781965 -0.22699986989645424
Ni 0.48187250106796714 1.0459441250032213 6.343690694210649 -1.3854355960247946 0.5341045156652996 -1.288824080746632
Ni 1.9022254498457931 6.830480887937952 12.448794508756329 1.6604479892447856 1.571974529692725 1.444270406774816
P 4.08577993075633 0.7232333698112656 3.714911882340953 -1.3988845224408488 0.3240351029755968 0.0039044772607287593
Ni 5.040057824855458 6.956629598666453 4.617541177940071 0.25790067324036875 -1.0116463044442061 1.2153324393153844
P 2.539134441565295 8.036085124094138 0.9082698011325621 -0.44212947071788367 0.6418193399454754 -0.046497886451223144
Ni 6.455277794503205 0.56302450718607 12.071983637635824 -0.058075306876177395 2.4235046134369034 0.6433290917217823
P 7.471219230498741 4.915228316330653 11.504412463410208 1.9095446910402791 0.9081879414475392 -0.046282428006307386
P 8.517236644513277 0.7618630915635436 4.325496377308215 1.0074289239287488 -1.513032503940878 -1.668121189519327
P 5.075007522127007 2.5900428210510085 13.226673997630447 0.5035862924717843 -0.4054483132467662 0.31980563827528147
Ni 5.886032882481648 5.871988875688126 10.229651800063147 2.0727161536268626 1.1709680542673961 0.3649128150265651
Ni 1.2083800574597967 6.247741636707747 10.402617531220619 1.6946968831253264 -0.3228907049585084 -0.7433357487244231
Ni 6.545065994492314 3.0157328821563993 11.242536168174142 -0.24327341024549717 -0.5205889976773679 0.7072886252928786
Ni 4.135130918751568 9.07313379534882 13.136718149027953 0.05893276978046624 -1.601212600622236 -0.09391699916513502
Ni 2.2002185698586225 2.1963434133852635 13.338645865232415 -1.0637291411823744 -0.1683938873277874 -0.8855923155352102
Ni 5.654815212904551 4.306938683530239 4.746796426635749 -0.7812124691655384 1.2142428057956314 -1.763867271473401
Ni 3.92938118060695 6.386459412877025 9.294950316999294 -1.1394735832035408 1.0544811402215453 -2.5445866030526045
Ni 8.74948952137522 2.8877061405129143 4.551411586916564 -0.3540679018922612 -0.1750964961589436 -1.3972109913931678
Ni 8.349890348298498 8.788451792016346 8.271646999817019 1.0433948005003966 -0.5416967261902607 -0.8168734129022576
Ni 8.236127480482484 1.8130418842000449 2.1033497352636994 0.3905824518785273 -0.9765103799730216 1.3694258508600996
Ni 2.361106271951137 6.368970822551629 2.473027753357825 -0.8526418287511187 -0.3748524427377803 2.5090555000255303
Ni 0.34198118460498417 9.029077938421198 0.39101061706307144 2.355933451255149 0.5961166957020378 0.7118549045073224
Ni 3.249039288556016 1.7528258002771377 9.13936141042496 0.001158539084475424 0.9676058783945402 1.3713086697051093
Ni 2.4357969356090505 8.513013365236166 9.572594743020103 -0.464072036427246 -0.18166257941223554 0.039341477912099986
Ni 0.43034208109870475 3.8553959236829582 10.949834514778365 -1.6807867008021375 0.7138410816994158 1.102696266474191
Ni 7.046142964863125 8.222165923826694 5.830020839470382 0.12489416427293974 -0.895846903383683 0.4094553775236303
Ni 5.228447228444483 2.1210664376368187 5.047878678475567 -0.4196076354662838 -0.7856288530656792 0.6993359461047052
Ni 3.7432912197479795 3.021440263912671 3.512943857180266 0.6573596016729195 -0.019990327078997828 -0.15919242333417744
Ni 7.508056119811688 4.344673363231815 8.9785699001598 -1.0640998942582318 -4.078075317965306 1.377342277493699
Ni 7.3683397808632245 2.946337349566102 0.32293062222590524 -1.1172628514344565 0.36852212964437825 -0.819303105389673
Ni 8.217631166251486 8.55255278684141 2.5037596680281102 -0.5252825464982953 1.0010662149355147 0.031133745290327024
Ni 4.507384129480827 8.557728823265636 10.80190156154868 0.36665962251434275 -0.01026590070238232 -0.6480678919583484
Ni 7.2770033505100535 1.5094696382007478 5.787932792496608 -0.928494257105059 -0.36023289305239253 1.6510462363149114
Ni 6.178877449449495 7.478410714734171 8.20376122085984 0.30578412718520886 1.1922411047135597 -0.026321925723980476
Ni 8.719468510114705 7.015444030247932 12.36422906693616 -0.7960719027758741 -0.2088010875002404 -0.7152032521542651
P 1.093792688266472 6.470604358994765 4.429826033255156 0.2435451758496451 -0.6325260875690074 -0.0905362556183602
Ni 0.7818270182461542 4.131374856921599 8.748068630668323 0.35084091031453124 0.43522734428141174 -0.5444061547016237
P 0.43612091964100963 3.1081228420472438 1.1224386144521616 -0.1967197308556741 2.3156656048740376 -1.5383113331123248
Ni 7.0136392883442635 6.85992474823435 3.430926124615987 0.40999556629781647 -0.25653798856488724 0.4893575504669121
P 4.329969755336445 5.656913110853486 2.7692161314669863 1.1676418181076407 -0.8727344857359356 1.9916554415991052
P 7.583003295009209 8.450836800260543 0.18837382967412095 -0.7826402027510004 -0.1691744742475538 0.4799455131243927
P 7.950382786485922 2.0204681084785276 7.89572017739552 1.2735848951993742 0.6362120210610269 0.03349273244080683
Ni 0.8250437159942028 5.053057463237718 12.971247135390232 -0.6645016120343394 -2.2150796783291593 1.5207987781498582
