# total energy = -381168.7084970614 ev
CRYSTAL
PRIMVEC
9.29994211394577 0.00000000000000 0.00000000000000
0.00000000000000 9.29994211394577 0.00000000000000
0.00000000000000 0.00000000000000 13.61140533631247
PRIMCOORD
 96 1
Ni 8.402683863792236 2.9819892976243194 7.044024603877504 0.20352621225454626 -0.3009882484584623 -0.35483486196527275
Ni 3.737953707085183 4.733205631836659 1.6304965732433208 0.48755032205484417 -0.45364235645348966 -0.3715832850682052
Ni 2.19734386612085 4.271658795600444 13.0254750007187 1.2953667669611562 0.22543278251965046 1.7414079140286205
Ni 1.795763057812885 5.945574009443737 1.318213810866971 -1.2134177387911746 -0.3791937504256115 0.38640312368985713
Ni 9.09304648029313 8.459041514109419 9.433112820280469 1.102823793190991 0.34799547044593615 -0.00798558930863786
Ni 4.424010450302768 5.3022970007903485 11.475136490117931 -0.18347057915525175 -0.5242258230990068 1.5975721756561712
Ni 4.0118835074304995 9.283434898988405 10.980157291319793 -1.2569259464864546 -0.3759665017375654 1.4044347628351166
Ni 2.9451801260145163 6.350725995593582 12.7841182482671 -0.14241083300046442 2.5948017904544147 0.9014997307940861
Ni 2.0063323512917055 9.084109235746132 6.4690110316693605 -1.6933928196019223 -0.27983758252277613 -1.3596055223355683
Ni 5.510206510772353 5.806688671186838 0.6424409438409266 -0.020992285980950945 0.6956932071457954 -0.25533111274097964
Ni 4.918032685038588 0.16305867826835976 13.346486688934604 -0.4200215830752508 -1.3293094424551881 -0.2110808846733526
Ni 3.547081691390487 1.296328256660465 6.560834011934494 1.0243758361957325 -0.7654418365948431 1.9384976266292033
Ni 1.4979045059385072 2.249823440500365 0.7563085073258364 0.49965379018659756 1.1667478455384614 0.7277054983863338
Ni 6.353934475685898 3.7607571655963596 1.1786895665742985 0.2086877018508277 -0.6544992494059889 0.3834224437949784
Ni 4.152675333858194 2.3361827046662658 8.804782678886118 -1.1489313861823311 -1.1161757890178647 0.993732914498895
Ni 7.331507210131604 7.581061861717624 4.589983730486872 -0.04482538384480667 0.6018124605352345 0.9710645263671018
Ni 3.3139693377847936 3.0066248447679196 5.356836512388553 -1.437212728597086 1.1287399988361206 -3.0111392398098595
Ni 3.4093867457475486 2.8605041514042933 11.17138456481022 -1.0893072467617948 -0.5866419234423832 -1.8878322390638518
Ni 2.128105795722925 4.0002957793289795 3.1564580750963342 -0.6784914985555281 0.011015377273897158 0.4511183044800553
Ni 6.210789763857171 1.8915245636406128 12.55988361957771 1.0961708066508475 0.43743695033822083 0.3875536923545325
Ni 4.401578989483455 4.696517359476712 9.11102605873508 -0.43387700090110437 0.23586631914814862 0.05169819970523999
Ni 1.5913131263652045 4.548220479615688 7.958983616823128 0.7407900994844339 -0.8275118664527104 -0.9471985183827816
Ni 3.649185757864472 7.426738619248428 1.718154109353822 0.38085339751622155 0.33419070335235995 -0.15899393417012617
Ni 6.804897977588622 7.57113882328719 1.750440719024806 -0.5707185673439074 1.2446653839515467 -0.7619320236693716
P 1.8937379499071954 8.256312071986603 13.431340292442693 0.38273724480249566 -1.6238974438142615 -1.9247743635058399
Ni 8.988942926225384 1.2950541645658358 1.9719114048636597 -0.1617244457274118 -1.1836276520129356 0.9790133489005335
P 7.426041123576185 -0.11315983787614127 3.0013424775434707 -0.18742750692047075 0.8032589074426166 0.7230404888104967
Ni 6.911586915614813 1.1260649130949567 5.104794126238202 0.358184495163796 -0.8335164207755773 -0.9066877027529288
P 1.8878138866642835 2.9101751432102456 9.285578535687764 2.4526064158988663 -0.3056342318709059 2.50657567102647
P 3.886241287003909 1.8193477114769734 0.9531957256979506 0.23823533360095747 0.362217270472273 0.35341561302024294
P 2.7429435808334173 8.57915956881185 3.7216983379450177 0.1348661878839871 0.04813593627527839 -0.328930226284369
Ni 8.959889906490917 4.404248072922568 -0.1065643187994175 -0.24782220595844415 -0.34343227655528596 0.9185839399698825
Ni 0.7775523655138794 4.20239282537563 5.747497328451892 0.9072147789009923 -0.37253382190693257 -0.8964652536939722
Ni 5.803349991902372 8.705155187045708 6.369198470977249 0.46190382513133355 0.49712048224178257 0.8612264850963361
Ni -0.14456295302895164 3.2004914418821095 9.506355445831293 -0.4170817837206366 0.15773152251793482 -1.3833265201015916
Ni 3.0468470952005626 5.367164098308889 6.054666052559361 -0.11524738521179508 -0.23441775962708014 0.20856506023003435
Ni 0.41428731946776143 5.873843554510334 9.239939068867372 -0.936216308339665 0.8495359361322853 1.7051201353411793
Ni 1.543241724634261 9.186566700027386 1.5723077642879446 0.622276127706225 0.13612551421238492 2.1502207728722453
Ni 5.783680613945137 6.0115385001532715 3.1484266449290215 -0.8965495858776625 -0.7685541569715796 0.2730133605120911
Ni 2.721990810839257 0.9716114714336083 12.799022335791577 0.5980283109024539 0.014070619160453188 0.48245208159633035
Ni 6.739045086186646 1.9216656766237794 2.5840977764254016 0.020752402056002973 -0.9434056269992526 0.19339915112287337
Ni 7.498552773662501 6.555296826291119 12.934932622507803 -1.2477195973968382 -0.6582052375026665 0.1186265860966731
Ni 9.308312244631715 0.09893464613931574 4.531700062120071 -0.4261618916450338 0.4124381143010381 0.17780283934651314
Ni 3.861633639687198 7.550251152889105 6.154628342322447 -2.07266653133585 0.25580985214961105 0.7160332042547282
Ni 0.6233332823984046 5.930601102346268 11.864613423526915 0.5846567746915544 0.7996958726817066 1.1201507145052128
Ni 0.9954472235397038 7.305867269219975 7.504226668457635 -1.4492768588504719 0.3933852114346451 -0.25684574961329315
Ni 8.163284749194064 5.407665347010429 5.23125753156958 -0.32318715315300467 0.5309934808401436 -0.5308826662938922
Ni 6.671685604132628 4.24069928769518 12.562783341585778 -0.6584314945808595 0.8497493376946721 2.102354545318586
Ni 5.752163109502078 1.8155905347891612 7.15619678788175 1.4286596968207526 -0.8918100143101478 -0.024333434539041965
Ni 5.354655675920009 6.1191946321783055 7.338603066103883 0.7177098206262027 0.16081504653926498 0.06364637320605168
Ni 5.762858043143129 3.5480953851008126 10.713088058406653 0.5633680405161071 -0.43836768968260625 -2.2552493085695096
Ni 1.9665192983201114 7.703839699916872 10.745387687996853 -0.5666816782703724 -0.2436495626379933 1.0513379666068734
Ni 8.157100287566848 1.7466965622562092 10.9626529399292 0.09826293483865657 -0.8901243990776089 0.9927085869994386
Ni 1.7475428570051965 1.0263137320220024 10.697911482572888 -0.9974106204607983 0.48373609051507654 -0.677229344013653
Ni 3.1358289430940944 6.259512161548875 3.794288107546624 -0.024432936231383727 -0.11758657486793297 -0.14831717118257037
Ni 9.123671190275719 3.695359971366916 2.158564966732634 0.6170431614420598 0.23257684976359944 -0.5982972482931244
P 8.195369550117213 6.5533252385242475 10.609981458153099 -0.023428920446901588 1.2739371363324703 -0.6163219670053192
Ni 7.259311758083372 9.301988283870052 -0.16423233098618625 0.8823432124702933 -0.8835693715679106 0.5467597425354649
P 4.925165740780054 4.705222105466295 4.784000986666267 -0.48896005791817726 -0.41476804798579536 -0.06291515146698197
Ni 4.92761162560405 7.955086941000868 4.247153447648996 0.34704390516594424 -0.004322795745069974 -1.4901509713570142
P 7.330995713305293 7.291443058718003 6.996997585666464 0.41804389052358976 -0.23020346443541642 -1.0114089916224194
P 5.169131127045838 7.121505213132875 12.639864053322395 -0.051701285029033546 0.6849231131134849 -0.4064065633949775
P 2.7427482820451896 6.4320539909770424 8.073890913856795 0.8342443000805375 -0.8368100039251847 -0.795347880125656
Ni 6.880990105459115 8.18075934076931 8.960252604240482 -1.2792750036056162 -0.08101674616369918 -1.2209217604777038
Ni 6.986135253064077 4.034612566403304 3.461407832971843 -0.0798900887584237 1.1590903289932037 -1.97632446766899
Ni 2.3567076773147844 4.982137187288809 10.59476396257323 -0.7360515563581839 -0.08004101251399118 -1.1028870423287584
Ni 0.9726902647400099 7.150493133271267 5.0960010307968 0.35350354474835893 -0.09292403912424642 -0.5752437089077707
Ni 9.045123877638932 7.632881140194083 2.92846626971913 0.9878869972410794 0.0766093611246229 -0.22228883757403006
Ni 6.7606302522569734 3.4238853557878928 5.433999993611612 -1.418363457101067 -0.0791364984218508 2.2776893827405806
Ni 7.683919223517631 1.272529704323556 8.478612312678308 -0.37740580528725326 0.9258282802371216 2.314466956580246
Ni 8.775862648326491 2.5753400207647266 4.045105691296518 -0.10542371425315393 -0.5211556688141153 2.005629901501327
Ni 8.309591441403622 4.478266313660928 11.20013161644313 -0.5701248996239665 -0.29089872543294415 -1.6112288472076577
Ni 9.298565905104915 7.395072315728625 0.555098675774279 -0.03614456824135711 0.38007512458930026 -0.499076834637205
Ni 3.989638045457116 7.059744296341388 9.54264382067249 1.26709337393776 0.9524854778133338 0.9667070207293544
Ni 1.7169925465609812 1.5251719367520353 3.6224307538714844 1.4662219713452427 -0.1747907919930667 -1.0286623793862284
Ni 8.462184894605658 9.30459226771309 6.904263211056268 0.5754702230962799 -1.7237665467977732 -1.0648357439829919
Ni 1.1903275143642194 1.6715995282114484 7.764176795542755 -0.6400653333688461 -0.5439284437342568 -0.4961545187840874
Ni 4.463386405986424 3.340604372522155 12.97839311284811 0.2929810618832696 0.5057318780598774 2.729666692786821
Ni 8.114041554733753 5.741802973783706 1.9859589677026208 -0.1823421219777634 -1.0575260976954561 -0.3129616187702546
Ni 4.588786827913304 3.7413016863119464 6.998903143843031 1.1538288234839482 1.4314588568324444 -0.2678361871865258
Ni 4.295364348514388 0.8822446059289984 4.405481245271093 -0.22144808684028955 0.06721249329075522 0.13051742399698812
Ni 6.182443539737243 5.914186704192831 10.392104270017638 1.4356824079954886 0.7464231294004952 -1.062346659012551
Ni 0.8449388174005583 3.1897221087026875 11.841487257018047 -0.7918316394422815 -2.0656091102684364 -1.4712968147649887
Ni 7.94303421578452 5.273039382325356 7.605686248930469 -0.1494353439474136 0.006830649768588237 0.526493536087261
Ni 4.479856603793641 2.748979243383888 2.9486118047219483 -0.30615796558485986 0.36070803291659814 -0.3264066885315669
Ni 5.045897591674057 0.11415121172495507 2.13345140255499 0.15278729113878203 0.6481514528110902 0.2657080850999295
Ni 6.328675832408427 8.315004007820223 11.183361960493965 -0.3853155470526332 0.18764219403443813 1.3792670053202376
Ni 0.42103628759237854 0.6730396139850842 12.75309736074268 -0.031482643989313525 0.6446552667323736 0.4848012985547973
P 8.26005064878982 1.9235070651984993 13.723699788437111 -0.7747525724728076 1.8487900375597257 -0.9178457762522773
Ni 8.74456834249855 8.179066751271334 11.875747314444363 0.7204151353725077 0.2056599707680974 -1.0451938013823483
P 0.5291611367091597 5.4465763055792555 3.7204326157984546 0.0026086412674406687 -0.15162052452419048 -0.6978531909115917
Ni 5.8730344595305315 1.3409214799724936 10.370992471010206 0.31588007796863016 -0.9065558051607548 -1.068409063156547
P 6.569386238870415 3.602211749324523 8.509687139868051 -0.36846556537482994 -0.48102717622434576 -0.31429345020780064
P 4.796845136972052 9.22754224578605 9.101211829629515 0.6365727468345553 0.07285863583293904 -1.7846865222115975
P 1.0153583999966491 1.9628923208244513 5.565921535076843 -0.037116702346639295 0.09393011179125758 0.9241544920791245
Ni 2.433450801146037 9.058413495180723 8.885798196208414 1.0483038077662397 -0.2229277567096096 -1.4770985090484303
