# total energy = -381164.7490197525 ev
CRYSTAL
PRIMVEC
9.25767185200366 0.00000000000000 0.00000000000000

0.00000000000000 9.25767185200366 0.00000000000000

0.00000000000000 0.00000000000000 13.54953853521808

PRIMCOORD
 96 1
Ni 2.2341261193200483 0.5370421595793908 6.281823628855505 -1.1277066724755997 2.6520476594507616 0.4803352923636437
Ni 5.198830652295679 1.5536131937917064 10.879168543649726 0.21392966697605734 -1.1638170450449117 -0.20965006576409698
Ni 8.806063884138027 2.985626870839456 12.283524000962094 -0.19107770207854835 -0.022824196983367146 0.6809067928652401
Ni 4.644888613171858 3.5273302680801017 9.323261298830294 0.5314650211599234 0.3571920493435397 -1.6243589568317123
Ni 3.8692808847509452 5.912541588257506 8.313265063003328 0.8746129337055711 1.5044933561216154 1.4037822168527825
Ni 3.1747425867165435 1.1126980674906464 9.899767060996373 -1.3495975032802627 0.02115889346580227 0.058574100889466865
Ni 3.397695092368977 1.4899111553664939 1.8697552735170755 -0.7918730342031781 -0.2822431066404752 0.6890661887475811
Ni 0.9598076206671637 8.27097046443489 7.32764427655488 0.9868539279908746 -0.10772639424440156 -0.07245265864377198
Ni 5.417209868167259 6.985589048194718 6.696086844326403 2.033216295760027 0.5990896622874328 1.2393200604792334
Ni 6.964148280720107 0.2585306634597189 13.408988397618321 0.06022063535395435 0.24307517819176203 0.25595897613296564
Ni 2.4489689046323435 4.768478529314364 12.775940480258837 -1.5003862759317774 -0.4317144460321468 -1.596500282748231
Ni 7.36148754670036 2.890208049440144 3.838706498454897 0.07479647628560021 -1.4563885301945885 -0.4759998982130835
Ni 3.3182920428742744 4.237282589363737 7.136839961374092 -0.0038165455326127826 -0.2913018744086338 -1.1104782244124551
Ni 4.985450579099528 0.4808388351673192 6.639287325861928 -0.11358696679023664 -1.5638465012689517 0.41902990858594286
Ni 3.789951896629212 8.16609030263875 2.1774376929150274 2.5454013856444164 2.955119272800814 -1.2614251199083888
Ni 4.35980787326981 2.650860207346634 5.9094550805390105 0.21377591500701248 0.05194862515314924 -2.154307284236793
Ni 8.633269443329047 8.62516898066053 1.2705821023865833 0.4919474226812754 -0.5427794177314781 1.14948134514853
Ni 0.667930824028021 5.432003627417874 7.120201148169379 -0.15242373715177618 0.6950614870990675 0.3340649764077731
Ni 3.809439295391757 4.016385286811202 3.6706917935039227 0.1867497641271558 -0.7154529062712259 0.26210339846780667
Ni 6.161813654328902 3.2604686259284996 11.958362171776226 1.3031893483293686 -2.058323118129984 1.9174552041366075
Ni 4.074884513785322 3.0210559801336414 0.2675439325500818 -0.11605316894254208 1.71787794922748 -1.742552826266341
Ni 8.310528495272113 3.9098294864516325 7.709944454986556 0.698239627716733 -1.0323408566790802 -2.121073718994644
Ni 0.10831012913177929 0.7774750007869011 11.402573227163984 0.2665475502820893 0.02030760120910051 0.21751455611383833
Ni 0.46552201747010746 6.959158395716301 5.080535198553315 -1.1675711127707054 -2.418298900866248 1.0531007149342508
P 9.05523411582159 3.9952222494852268 3.1126680469623316 0.28603419825179127 -0.37588628331893326 -1.17465835863479
Ni 5.2299456866144025 2.83469905039966 2.2416220560317024 1.566816125420237 0.9610765619164544 0.9730316773958018
P 0.766602791235009 8.847964105895404 9.686822098366415 -0.1754230262604269 -0.9823555258998888 -0.5151945661346741
Ni 6.384682840936744 7.630182207832952 1.9656582711421744 0.39629595732353684 -0.6119004408988559 0.2445605044880369
P 5.008585500480809 1.308692233382257 8.637776077874227 2.0250152480064734 -0.28367006889498886 1.2770983076692717
P 3.535578853494557 5.11172522001217 0.9023915412727199 1.0942015987396188 0.8484429601784227 2.4946668354040265
P 5.916577933084333 0.9572154726132385 4.713708292469248 0.5364339351294245 -0.4850211278750873 -1.0937092324842326
Ni 5.156125013107261 5.017269196461459 11.387249003329474 -3.1379774151830473 2.994121107985308 -0.427123998447987
Ni 4.6405097344950486 6.215387800000563 2.863817204949699 0.269064146056356 -1.603549990506161 -0.4921240574684557
Ni 7.8515609093097884 0.07299026036272384 6.132507569044953 0.407275339153176 -0.7363117519981061 -0.49305736791600246
Ni 7.909699087090682 0.659084193026839 8.629036835863852 -0.4092789998467661 0.6579386141048411 -0.2244933014245166
Ni 0.7715232437016564 1.7196958226753443 9.17485341660578 0.9171263815877496 0.4451145214881366 -0.805111387270323
Ni 3.5007144621692623 3.36528398402329 11.178165415532703 -1.5806427468906843 -0.9757794153442678 1.4232323551575938
Ni 0.06126079041871217 3.947832228456501 0.9949654801828489 -0.22755959905466613 0.4681634328878002 -0.7263415281592717
Ni 4.2452071562714515 0.28428272860830395 0.02150279387447188 0.6438559107595299 0.38176691046942635 0.5573380322719433
Ni 2.3197966125022766 2.035252817554256 4.190587819473761 -0.042043450224295335 1.4334090385802798 -0.5082168492652602
Ni 8.238346429641917 6.004822058977244 1.6847768110874852 0.24647160546782065 0.31917571800076644 -0.7069001316052084
Ni 8.289846856870438 7.731757380860337 8.130414013512281 -1.5584515555056258 -1.577959029410934 -0.8236076463022977
Ni 2.0696172946120077 6.953279774236863 2.22375012096705 -2.807229418963649 -1.7009053259288835 -2.4560519512453056
Ni 3.687543533155923 8.405715874880896 8.505573749822554 0.48463494818026215 1.0425581635317143 1.717497168849294
Ni 7.609417250386687 2.142067832719218 1.4399910126837048 0.33823813394885616 -0.07540557062450885 0.022341858030309907
Ni 7.163410404693988 4.778634195082779 10.611171910957369 1.6528961450394568 0.08996932737129668 -0.8494937700404402
Ni 6.9156288237536 6.19941831645406 4.2879137212270315 0.5997483789173542 3.9339156205945343 2.113784384422082
Ni 1.3524439894638665 7.639791670975717 11.568595681182083 0.9813522814463551 0.2328588997803925 0.12001832423787717
Ni 0.9383575955209325 -0.3696310548181163 4.431214146018153 -0.6098978086465302 2.756866136019749 -0.2570907757445637
Ni 5.459406335416513 8.454522319667658 12.055457557506129 -0.3759654732963009 0.38912077973133624 0.4456822210661486
Ni 2.1645269440721555 3.724037274686542 2.093214173807186 0.6589138335339169 0.044902774049961375 -0.8849246000442244
Ni 1.9324093435147727 4.135355624814749 9.113039943191284 -0.4321417633775525 0.1127834970523348 0.549413635218544
Ni 8.751860216796125 4.71121983033748 5.084396573386501 -0.4922914362842554 -1.023060974039051 1.1632244057662355
Ni 7.1236209320662365 -0.04251955998883278 10.856323387390185 1.561107247960918 2.431832416576309 1.571188800566636
Ni 7.905783091994931 5.168409943348542 12.79117027584281 -0.24097921489468174 0.8711203471712804 1.4320129295637014
Ni 9.370892945088332 2.0803839667074184 4.910867073450801 -0.8898590612313642 -0.0656088962490612 -0.7065041817183704
P -0.3465683432754787 3.313274384855605 10.152533898104757 0.3786322214951866 0.8354288073069419 -0.15415177558647644
Ni 8.108655707901065 0.694081894823478 3.479981906573671 -0.8803776041034902 -1.8804724562646709 0.008584913455533602
P 8.635000627922203 7.462396167371021 3.1677734115201335 -0.44325972766758504 0.9848808634249039 0.835997021105586
Ni 6.380350250618041 6.087918919448789 8.746308391124915 0.09648578833357577 0.0636707986860839 0.5554894090989787
P 3.2005900058828267 5.579330213597038 10.455595813596586 -0.6584579769434208 -0.3119123515701338 0.31564713602221767
P 0.04910269027864074 1.0628362481390703 13.666877504434694 0.05271481389521244 0.8526850232842282 -1.0994713317789904
P 5.876214484816068 2.036604437610946 0.1884917488098214 0.266262929162135 -0.5588264438920117 0.2733033809486841
Ni 5.689737205351011 0.5271799620013674 2.457899780445278 0.1563708947249823 0.34845749768401924 0.5038318328236872
Ni 2.580825921532547 1.0317582445068312 12.100510016450512 0.2570496380939831 -0.2508777049553163 -0.8159910102973044
Ni 5.937750228081929 4.459096401406767 7.27535694723856 -0.6493981807339977 -0.6257931397205481 -1.0612562541618498
Ni 5.974679080178742 4.226469628910221 4.844231278888842 0.6683068447130426 -2.353959872468546 1.0316672276508234
Ni 6.6794748783693905 4.850853291399459 2.75023112876102 -1.1054152080672512 -2.411546412633763 -3.4089925143181867
Ni 2.8205070398044194 7.277057581515367 4.101580861439265 0.5712944944520355 -1.0682612247247731 4.105301500671111
Ni 8.727873589625696 5.559241066179118 9.160477178345277 2.0311632698857407 -0.6289355420042717 -0.33097682440075255
Ni 0.4878154165010265 5.332955798743067 11.457326800200182 0.47192572814370987 -0.20650534948752822 -0.9349582675628479
Ni 0.678507713855198 1.7097438256825954 2.1887792664181123 0.1239971063799671 0.4204350164635856 -0.12435037595432778
Ni 6.9504191537059254 2.9399680344038877 9.039926555795997 -1.3939410623926445 -1.699804379555221 1.2805248168523171
Ni 1.8766226143256532 6.93954138955106 9.308464762278193 -0.5289304276635277 -0.45222310750845984 -0.1195555256688457
Ni 3.644041734208085 8.329904801975204 10.963649426028635 -1.5690846097394398 -0.8177054218852499 -0.7927433526232734
Ni 3.310645206115195 6.835661056290006 13.103351923648647 0.6641848521248691 1.8912371509803427 0.19053699908372992
Ni 5.666491191910275 5.414802873545756 0.18066531322129145 -0.23080433124420896 0.42475446977454595 1.0106731418976593
Ni 1.9039790339661855 2.654757687099143 13.494770908627165 -2.3129397213024427 -1.2648737405786217 0.07482013043468405
Ni 6.772357097744504 2.1678689635273947 6.298434669045355 0.7524317974884203 1.3973305476901676 0.49833841380928373
Ni 8.65857065986968 7.9674854733499725 12.567915044328366 -1.2654694651810916 -0.883130227147963 0.2743945571303339
Ni 0.8773134346181555 6.42617572514279 14.01171281158269 -0.16688953486811905 -0.2549981548815931 -2.4160885234784906
Ni 1.519591250583938 3.0072990801045956 6.433564272863639 -0.3989948443119386 0.6517707947312323 0.5406389743497075
Ni 7.918077279907834 7.221150502595172 10.30286552449215 0.18549506578444827 -0.06958407884672532 1.9916140468382086
Ni 1.5529558991066041 5.110966090939235 3.7770281870460702 0.28144940709458627 0.5083636592557697 1.1846463230854372
Ni 5.154384570842482 8.030141394881994 4.615826004651546 1.6512557812225563 -0.6647690067631132 -0.8220896669958745
Ni 3.5037602361326248 0.17455524995132482 4.537062660265866 0.8981177016957307 1.095438042249881 -1.1742256419727455
Ni 1.9620061196876262 8.899334925721227 0.3836786457360668 -1.1235674534962456 -0.22254826188300383 0.6897495879678508
Ni 6.000646849076101 8.353761821742937 9.255160940617868 -1.5027347215592959 0.3311544876291974 -1.8624117421082182
P 2.0306424970869177 9.390611785641406 2.7431443811350205 0.6737910077560654 -0.8248849703528245 -0.38077446464917003
Ni 3.2442491852482247 7.856032364702809 6.520702106997822 0.643108491070544 -0.7638672930188716 -2.0070203540909497
P -0.04692621168050567 1.6046692527824122 6.985030810595962 -0.5434741298056576 -0.31032032449266556 0.6895086756016383
Ni 3.2423791355807503 1.9616913588525067 7.78289583312847 -1.272936205871782 0.6152359330299921 0.2623934189043997
P 7.774564854436588 6.261935372911763 6.390883629388598 -0.22715850696150555 0.12410277871989593 0.9406596888229994
P 2.358308526446309 6.053341515943752 6.183426614495665 0.80834454949564 -0.8305154291657245 -1.5310119712374342
P 6.435803703628798 6.73973306295153 11.93684549139432 1.885003254255489 -2.187757593475439 0.33653349255292364
Ni 4.458883474959481 5.54275315302183 5.249077590786696 -2.8961471651419797 2.351090521340551 0.6888324754702202
