# total energy = -381171.82276157604 ev
CRYSTAL
PRIMVEC
9.21211254594053 0.00000000000000 0.00000000000000
0.00000000000000 9.21211254594053 0.00000000000000
0.00000000000000 0.00000000000000 13.48285788558596
PRIMCOORD
 96 1
Ni 6.386628722754414 5.881629920019794 10.810851756730463 0.807464717993848 -0.07437301559493643 0.20150609650072393
Ni 8.516330983105812 6.917743864819426 12.159933410257079 3.4649803425377166 -3.7552920851189393 0.22816149430472318
Ni 0.5960365846741785 7.030389578164049 1.8487153218605257 -0.5954088710017359 2.211150261367766 -0.7001142190316265
Ni 8.166491793542889 5.692238096283114 0.750530162102105 -0.14977190135122592 -1.7876970269031471 -0.33421975681808247
Ni 3.7731339429624198 2.823549372177022 10.586470486769908 -0.16255851159293294 -0.19140860305540583 -1.0281941815005584
Ni 9.014761549529121 4.932376985289385 8.073063468373617 -0.2848455772603288 0.34972607998379773 -1.5158139233407573
Ni 6.28355439444128 0.19762837364683944 0.3971820788351432 -1.1838289693904644 2.203647268122502 -0.79379621936782
Ni 5.931513509957734 0.3839921759592165 3.365213304424477 2.3416288617070187 1.4924258834341202 0.18481192367449462
Ni 1.4914502482996372 6.568392917226346 6.71117329343431 1.8097077268462831 0.8830692920030404 -0.11601331684354214
Ni 2.2984313154397307 0.9208593611557601 9.703869029402194 0.028268507927390024 -0.145981066850226 0.19394165388990472
Ni 4.198079486867732 7.1723298096993755 6.551644375238133 -0.5041023128762544 -0.6844132633566019 0.16363400404529885
Ni 5.679903077460048 3.095306695015296 3.9265183820286604 0.008862335486636348 -0.7415609162121874 -0.18175693889825473
Ni 4.2436794444287305 4.9974789853062695 9.779197395659171 0.28327848988352505 0.008317518726759869 -0.3025625349241176
Ni 4.340682990513036 4.4854974011916005 2.466688710360968 -0.5976680993495578 -1.0239096951925912 2.23599894498033
Ni 7.2484587085446455 8.381963108159404 11.805657667247413 -2.2346210907961965 3.2079947249124494 -1.8034563466199327
Ni 2.0465168832249705 4.036324001046808 6.1538321878985105 -0.16580915731974671 1.211334631009901 1.2839623817789565
Ni 4.765370595264469 8.432067788800671 1.8780945914875027 -1.4473238488891589 -0.602739086114562 -1.3768725369461319
Ni 6.857201860558641 6.396900228346437 6.786259381128893 -0.14960452253542622 -1.8508206948365091 0.5458840247987308
Ni 8.564464271642422 8.078958299251049 7.013378490965637 0.521382954333573 0.012763727423571566 0.030076507670406268
Ni 7.826076595209236 1.4927399440690392 1.7535670952616311 0.325087198389195 -0.6356990859803503 0.30015315415167665
Ni 0.5015940059033995 0.9018824091202737 6.528116639559186 -0.8851734828302369 0.8961559499836695 0.3401523202524335
Ni 8.74879864554052 2.5722889999596017 4.7045199852302915 0.8526811666294865 -1.2416322535521778 0.7442526041117377
Ni 4.411174076423493 4.886749391390471 12.29992620118061 -0.33698215005456805 -0.511605306121519 -0.8754981645240019
Ni 2.5178085658150064 0.03398440473500591 7.378669157057261 0.10826838279080063 0.2797817895841762 1.661396469200984
P 7.6206372712561405 4.1930957339302575 4.383358102311283 -1.5402643430736376 1.743520846606565 1.2140324895570382
Ni 5.941683682310733 6.964882245191067 13.045015689558367 0.726512249409181 -0.7441340762560023 -0.22066878547210383
P 0.5035193374448639 0.31186133399909166 1.6889441251019535 0.7513226235846415 -0.27164990450566123 0.4580091180626177
Ni 7.882620542584874 2.9149335295517904 9.376181285890011 1.2561708134879852 0.5131255994207872 -0.013471552123873572
P 4.223191705920516 0.743938895509197 5.726412270538475 0.2931039606143791 -0.7944166265606383 0.6779973325279292
P 6.647478904228602 8.94313737376412 9.467406994927398 0.13459030851478113 -0.3097263996624085 -0.760574995420845
P 2.203122798080925 4.30965659514628 12.136365141282523 0.5763009465276914 -2.161602789456942 -1.1239546616323353
Ni 7.440374651144298 3.716866358965939 2.3248359938957086 0.7725985022442824 0.22208829152744977 -0.6871054654767844
Ni 8.376454264801529 5.836269477387398 3.2266640515514147 -1.113438849702676 -0.10245640409471388 0.30928082748455765
Ni 4.469698628016427 7.177617562353923 11.024757933409683 -0.08284531473200571 0.3391997265311771 1.1338400390668473
Ni 2.243453427212652 7.954548718066951 0.12357956983536116 0.8021399633468249 0.34151834736202474 1.4530036728827558
Ni 0.9421688201113361 0.6523382534874217 4.151480015085447 -1.2328614493380832 -0.051961480668955666 -1.5498255043995115
Ni 4.520485004992949 2.928493759355789 6.302063371154727 -0.7412079037481429 -0.4897290748737179 0.601641482175009
Ni 2.3973878294034168 2.018622606155333 12.192130665140201 -0.4140129149873256 0.724774697892784 0.3628209654945429
Ni 0.2951201617009902 1.7520148542820293 11.179028577711756 -1.115330410298434 -1.2675479449766751 0.7124717121557149
Ni 5.70020657371549 4.197729426587466 0.8366265668223254 0.7686006939387988 -0.6196757139689005 -1.6749875776218572
Ni 4.966848710782973 0.42932313983116815 10.799040907116533 -1.0130005044792554 -0.05205172638991681 0.4979103251329296
Ni 4.0724262704774254 6.266594895073644 0.6479164394209006 -1.1970539527211708 0.3737296419872467 1.2593988335069795
Ni 2.865519757358418 3.9769979956543176 0.8264600793143824 -0.5952196378090652 -1.7039942492668527 -1.6926952793142656
Ni 6.004814290222959 6.872493967538693 4.625118943975795 2.5476361885122056 0.7158228880161349 -0.37705304993352484
Ni 6.317141757121563 1.3769805366525736 5.584694050917738 -0.34779055352398164 0.36522289006781616 -0.8648702524965104
Ni 2.4762895741529016 8.507505779198048 2.6411569116231393 -1.561479800808988 -0.01590664392792744 -0.29311295947544364
Ni 1.5268339729444445 5.809793865664104 13.447196260711205 -0.2879039044706783 1.0507980349430033 -1.444842734338518
Ni 6.824130376186119 3.5759947324966888 6.597283944883478 2.0071034007230595 0.06673555365433669 -0.06798510979072163
Ni 0.6588475322778462 7.415280856316792 4.205316522556605 0.8902123308057249 -0.24254321694769196 0.6402748782764909
Ni 2.1024620432791004 6.070773016715232 10.994434422237251 1.4992673318359857 0.7301333911015361 -0.31147757802556036
Ni 6.18938817904966 8.46508400049736 6.730009300146426 -0.24909335936138388 1.5605889135636026 -0.18961731548293795
Ni 6.256774783000912 6.556629049386872 1.933334103713517 0.2889675698485023 -0.7371938974927433 0.8222480469506097
Ni 1.0409963644980817 4.8573074793975515 4.229801396738702 -0.3261953438517092 -1.1091062837655932 -0.8464927784305873
Ni 7.141441596022197 1.2855226823766963 10.90612250442745 0.5389189063348073 0.688938147810149 -0.2859349536697656
Ni 2.7326442446594603 2.546071327390187 8.143241342454361 0.4049181517749091 0.612488709302158 -0.5308471850702663
Ni 0.5361366646643037 2.267994495281844 0.2022215330084382 -0.23200323664831657 0.6294641608142321 0.12501114946677827
P 4.52959578439251 6.397508227780583 3.163037831979232 -0.4861894371515756 1.2230940855386743 -0.8533334555015045
Ni 4.30985004951169 8.267226245245821 4.14901209010957 -1.0571717996798309 0.6431750826424214 1.0335353912078136
P 4.538347291399166 5.023199203793201 7.542499210644394 -0.07140364855396734 -0.25386892637315633 0.10118190825766445
Ni 7.3857007626342925 2.528936797882418 12.914245144597325 -0.3692888326070737 0.2734879861556645 0.6457600697607783
P 8.956909482158803 2.9722420822764315 7.36108784008652 0.19534341933343777 -1.3306736697925663 -0.6354831133148023
P 0.6847455445387016 4.563772722281662 1.3433028952684325 -0.7795389381178575 -2.2390570150803635 1.9598300695583926
P 5.523389283730479 2.110227854233428 1.7160710331887965 0.6510544853904981 -0.24595764194587966 -0.18270027664813052
Ni 2.8472797743340186 1.2514931382897614 0.9302308433429931 -0.21757086327307046 -0.43097885341770287 -0.6501435435404544
Ni -0.1704028959547637 0.496810155810182 9.08361748544623 0.08792812857155179 -0.4181996993751636 0.3073617560849739
Ni 0.3509750430512621 -0.011589758910604467 12.989088953729512 -0.4265174752122396 -0.17161907913330443 -0.38641700764692805
Ni 4.678159524914979 0.515482186917331 8.377897802851995 0.5897670993349262 0.08782682710699713 -0.48987588486422723
Ni 2.7081216008155455 8.943800645874097 11.678042270865086 2.9900914180006244 1.0691433702194102 0.8272732680793429
Ni 3.2094816190579247 5.748699134645004 4.702119308676676 -0.49999548979673236 0.1705394729158805 0.13258253405613293
Ni 2.2859489028144475 5.7666535421776075 2.302507675282305 1.2651007689877631 0.028447456707415525 1.2080328203301776
Ni 7.962268468458086 8.23863184761565 2.982677563473421 0.10176683422685699 0.65432518572197 1.019512080345528
Ni 9.02995232327015 4.047498293677413 11.994701273126354 -0.04240931820414631 -0.1027759922176617 0.9829440514135072
Ni 3.803294399741149 1.3510392274623166 3.0116929546511737 -0.16603258618446243 1.0738950259717828 0.924147292990273
Ni 5.374024089408453 6.8940410990003445 8.67681243374882 0.9119337816432165 1.031363066146843 0.2218671766555792
Ni 1.212203477886194 2.5139671148447165 2.4640595734139157 0.20864322176613742 0.6359479687663628 0.8689035420256197
Ni 2.4008700079808016 1.9207623335956392 5.632598879060911 0.3176921914767045 -0.9230430041825006 -1.1452076574738406
Ni 5.942208772731132 3.3886572098784136 11.001459579335437 1.3879681326386613 0.524542068787845 -0.053985967298152186
Ni 3.3450286444220723 7.81055418541322 9.157557586328572 -2.173170696800199 0.14602117605954207 -0.03694469554514927
Ni 2.3998566755905575 8.576532139198969 5.314147199680175 -0.26560009876715546 -0.7205035813212559 -0.4885810773122037
Ni 4.799630442167367 2.198516741761632 12.777124690394508 0.08918642645868512 -0.3775089065240208 1.0709112607531104
Ni 5.531035337220505 2.813508169400964 8.646368243900822 -0.8799744551278007 -0.18261877267791773 -0.013538400806067007
Ni 1.3160147752104145 3.3011882003750435 9.98300433325271 0.8598429744852482 0.3275022355885908 -0.07691815061429333
Ni 0.11749312701504769 5.315435053027049 10.207898717887234 -0.22462314213416154 0.6435880018101238 0.46191822330903676
Ni 2.170180283285343 5.107821670491247 8.570418981252004 0.4963290966887387 0.27590456601695706 -0.43271383383093864
Ni 8.156736166258625 7.121036766527731 9.533783030122196 -0.8611557797594008 1.3336013849623227 -0.8266119803462602
Ni 1.054215746134452 8.237572454662214 10.710688456011123 -3.0348003308722253 -1.0577150737778105 -1.3116328511110313
Ni 7.82657404929172 7.931048618725918 0.8054011898225759 1.2540231710173628 0.6581347892760472 -1.2904780714102873
Ni 6.647313086201108 4.923441236029957 8.65550942327209 0.054430768145054646 -0.22367234818511803 0.48489642937176486
P 6.881494201586591 4.911622095514653 12.65865047338345 0.4438467105193066 -1.2767702349058916 -1.136658739462565
Ni 5.336457094068301 4.888398359552778 5.443461309633055 -0.32103231159353096 0.9952331531935052 0.18007260921729631
P 7.616712911272103 8.963901475651491 4.943085145020477 0.4261258962007758 -0.12999163340050515 1.0879430194244166
Ni 7.469991593277351 1.3110402343855783 7.518513632967308 -0.3630024853777297 -0.17906370833680774 1.0775717034924217
P 1.1239145903579901 7.371016655088387 8.675369816909617 -0.3591026361026912 0.019072443250418767 0.19627518711908779
P 4.476893287987162 8.544916168623343 13.04641777310196 -1.3372595505402003 0.09529536756990038 -0.6080818384837141
P 2.942846230846705 3.41785960694273 3.888024648157067 -0.7809887831905066 0.1262797317665567 0.7237025478745278
Ni 8.859463754667846 5.928289270534229 5.818567481741092 -1.6768210312861704 -1.2860897125346045 -1.3149737425588064
