# total energy = -381171.94119041663 ev
CRYSTAL
PRIMVEC
9.22657785848702 0.00000000000000 0.00000000000000
0.00000000000000 9.22657785848702 0.00000000000000
0.00000000000000 0.00000000000000 13.50402933267327
PRIMCOORD
 96 1
Ni 0.41020903114537494 6.523974691290443 7.918451964768969 -0.16010773605959522 -0.39673458752285223 -0.26630586658492844
Ni 1.5701420862626734 4.293375720279893 8.305153521256461 0.1660438990383721 0.4399242355364488 0.582200856951894
Ni 1.8305899215098453 9.08876953308489 2.563551099120813 -1.9715329598176174 -0.48503989692816474 -1.0042343282508512
Ni 4.610991430941245 8.071474755883266 5.387270468184561 -0.8085206700621882 -0.1015752870413412 0.5056287768231098
Ni 5.80842591111034 6.651015439608365 13.03616888817662 0.3227734626543538 0.29517704109332393 -0.506442788083973
Ni 4.205630966375947 2.7296553320947323 2.7867051073143836 1.1015546966705803 0.33714592932594195 1.1788397437059892
Ni 2.7956438157877948 6.771062442031525 9.11875775591755 -0.9211018212957298 0.53142208373713 -0.431850714499695
Ni 6.290662221051841 1.176933024525082 1.5939614192467353 -0.12574931318438343 0.09418876476928294 -0.5026092732704956
Ni 1.594924673958362 1.9272475494696504 0.9509824406313765 -0.5047021512437825 -0.010303695918853223 -0.20439833044685443
Ni 4.012989250628259 5.967648962437407 6.862491368410113 -1.3886116797599308 -0.1331252939334804 -1.0855369810860853
Ni 3.6767450795955012 0.8497622700001202 1.496840617086512 0.614744080995238 -0.10281867253013906 -1.0410931489504136
Ni 0.2830732490771676 1.686563043650686 12.148913497044632 0.7620199553974876 0.03976956658845409 0.33471957927263646
Ni 6.669081078740219 6.567514911445303 6.358871541996711 -0.5089670971677235 -0.3272515530303654 2.058850194278048
Ni 7.735156772228926 8.71831321194952 2.6754454974903945 -0.11019208217607475 0.22325402970077682 -0.17182605293778794
Ni 1.5358930298492717 5.870530005592724 5.889093879920247 -0.4154257361744523 0.06360549266578723 -0.04479427349655511
Ni 8.134353882892244 5.423502316145172 4.492628278947892 -0.3061044866391051 0.7582198649251071 0.7655171699174687
Ni 8.47829301972478 4.45267258422854 9.799468824027144 1.8820891659324874 -0.8656567529535478 -0.8388964541405681
Ni 8.797449568861628 7.608328235198048 5.994965168368851 -0.42942847821144753 -0.007687598452244825 -1.494511305208239
Ni 8.584970711064154 3.027350861507018 4.529967316232212 0.14693957410875338 0.9813299128488518 -1.042341676645534
Ni 8.84898000530259 0.36826131830111597 0.6967164124415803 -0.5753570945571833 0.30095430989673333 -0.2033225808841724
Ni 1.0900555689247073 9.209545435146158 6.606467677168929 -0.2673276229812235 -0.8834248755702463 0.7476657435583446
Ni -0.029667137928785493 7.062566937808737 1.5132076432642418 -0.11747807431452671 -0.04458344303732967 0.42344089316944494
Ni 3.711713809069314 0.7324241907889686 7.314444205032631 -1.2298460595505272 -0.5069240985957657 -0.33047340240177275
Ni 8.561655149222378 2.003782011471042 2.4380853276158665 0.024728870205247732 -0.2724358907420663 -1.0401742366805697
P 6.147521094651649 8.992185717746665 7.008455827585763 -0.8995765456294442 -0.4291186602805126 1.6029856333622587
Ni 8.161360075813048 0.5373245147426476 7.655717783568337 -0.23750025520714582 -0.33875312591206175 -0.06806969908472793
P 3.614032030985078 8.22632440938168 3.096325065743016 1.2852939561061865 0.18994898779074385 0.38556263006643277
Ni 9.126118719604676 4.393364142788522 6.604725699299626 -1.1079965956411821 0.9780838951077283 -0.8292481324175268
P 9.137199839419464 7.240916684702879 3.7384422820014214 0.009175495851680973 0.6501782534331318 0.35225373150165784
P 8.740097161893496 2.9777949126933376 8.132491036855104 -0.09213985266005423 -0.7774995390903255 0.8933768445766356
P 4.256091119803989 6.617790533319394 10.90354510042109 -0.6271463113143328 0.8945315270063692 2.1769435335790703
Ni 2.7256233176408915 2.9665200347469 6.606941000604815 1.396803471542104 -0.061118978798507646 -1.2441218527432507
Ni 8.027971442039194 4.304438386939286 2.260588116500981 1.6951990195727256 -0.4797043436478641 -0.3063006618103112
Ni 6.111371363232547 0.4181651090939946 9.298375234587338 -0.8826527732909122 0.1818052756376869 -0.760654956729161
Ni 3.658181205267978 7.975665973071638 12.960222159174565 1.692638715044717 -0.8515383112742948 -0.2891051238676311
Ni 5.798590379284724 3.9569101113823932 1.404959588400742 -1.415603892078059 -0.873670881507276 -0.7297739508795883
Ni 1.3648415059139123 3.3639179627591913 10.594977894507748 -1.2304584963235454 1.1322408129005275 -0.8298883371046868
Ni 5.136934039436163 4.3228546360236475 12.159811007963238 0.12611209584044086 -0.24932141621178996 0.5888199049303084
Ni 3.444410626592843 0.3799393976929378 9.554249455269822 0.057098801895521016 -0.1455727756682138 0.44126995093106586
Ni 8.283289300086514 8.225918439962987 10.447351728688766 -0.3887338287055628 -0.263763559779049 -1.2368649140705215
Ni 7.503901828816884 0.47991951628163976 12.130196461527328 0.035642946014590234 -0.11903899104374338 0.3261187249775029
Ni 6.546681299004177 2.2633994547254326 3.871956397231963 -0.5228086310365061 -1.4899977336086017 -0.32414154664647404
Ni 4.4086525820334055 5.725848040717036 2.7187928821713756 -0.5523189817907971 0.5973510823297712 0.3910683903760104
Ni 5.251426642085382 0.659649559199339 12.660756049502112 -0.1179897238436226 0.18279052236909166 0.3094746886629186
Ni 3.539979518384334 2.4813219933644772 10.795485267742619 1.1223914309102734 0.4022678586362556 -1.0295288411515817
Ni 0.3950442280416392 2.0671409205202957 6.258563879899744 -0.3705175628078522 -0.06392328101652216 -0.7476629153448673
Ni 2.6157440038404602 4.397580688796315 1.778035334944453 -1.9810920642609624 0.2209886307053678 2.0988997540007657
Ni 3.8767496043458536 5.488429743403014 0.27522696740314906 0.7999177588845257 0.41106745920575655 -0.495301940975805
Ni 5.208320071082307 4.07274056779776 6.501784771927772 -0.05007094851446216 1.720608975005398 -2.024203807848772
Ni 2.3905786017088184 8.222845989589695 11.168304515426339 -1.0236896087619853 -0.1387423830099417 -0.8966472877977912
Ni 1.5652704532383532 1.6932061795929405 8.128209904803429 0.08138287125386628 -0.16528208117168305 2.8409111274868106
Ni 8.016844189335918 1.6436871370900508 9.832189036516057 1.4823715845219114 0.299482096226581 0.2553210854386506
Ni 6.919305865898477 0.37045724379313905 5.2333923733177 1.603280538894858 0.4581921806077012 -0.18730872195441933
Ni 5.033513330024034 5.942635710299279 9.098271985455622 2.6281741952672735 0.39196390560708627 -1.1385610986916004
Ni 7.552350588306855 2.6567007822399993 0.2210217460876605 0.7543799223537266 -1.3630901384500589 0.8508430849794831
Ni 2.5466922963518024 0.5534931694998796 5.068386103089793 0.9711306037183468 -0.21667843336578813 -0.9244936205860982
P 7.361019046592224 7.921063086257383 0.4276048207363845 0.16680700245664176 0.18154765110092602 0.295463204875175
Ni 3.0010458884912294 1.0561017629976281 12.386786664639144 -1.239477411992704 -0.034281032670057096 0.8287735067739533
P 1.4155969098282775 1.2701214592705985 10.31632233083218 0.6885388554892012 -1.633682291115167 0.4717444653708392
Ni 5.344790381807152 2.3083421146903245 7.615624612841292 -1.3045476621294758 -2.5722704421211184 3.96808249628423
P 1.4472809776417528 3.583593551160775 4.981541863169129 -0.8270647516129628 0.2585938426526514 -1.0698051721731254
P 5.2810716362276935 5.62295324623367 4.878654449947922 -0.7499360276497601 1.3026378467012727 1.130870157805246
P 2.2403330104814927 7.532854829631877 6.980354439892257 1.589738281434049 -0.21428036544725676 0.8922216479262699
Ni 3.346839567440978 4.768655190637422 10.149938532554025 -1.2543769548123558 -0.900031887999308 0.6003880693838822
Ni 0.8511490246280659 5.1874772320634825 3.1269388505435725 -0.17173143634145263 -0.6678764420438433 0.1100648125695911
Ni 1.0853315611435486 8.498213200973847 9.171220999363737 0.014266023000710915 1.366847548609962 -0.6331598644982643
Ni 7.28811062962598 4.8911841424612295 0.16350787400982125 1.9535758611185645 1.853641709225072 -2.2743389782111088
Ni 7.160885349754106 2.6292055807012233 6.635461274925792 2.0581706517125196 -0.06514686901097813 -2.005751257570539
Ni 7.38082850890892 5.926443066440033 11.104957600928092 -0.8374196124847255 0.8988226981825552 0.38243334040883165
Ni 4.441167041839663 7.897562992861657 7.964297906690454 1.2677232942122747 1.5678985598511386 0.037410322327658146
Ni 6.613343322869163 7.425623543630651 4.204857779164889 -0.0647689168462691 -0.5077406809597901 0.11370060954996547
Ni 3.1453772434144085 4.857756251462911 4.652448289851993 1.269431535152633 -1.3236877253930364 -0.6044951495737202
Ni 7.539405699797157 3.320257797094262 11.55538436159943 0.347939163286704 1.0828918301537545 0.7285976711833
Ni 5.336080492460641 0.2328954289266709 3.570843343440495 -0.8328664458964044 0.025010920222040794 -1.2600524079305784
Ni 6.983947269247693 4.567801820738892 8.163442514399392 -0.7177589286965833 0.796209456795003 -1.2767221552767754
Ni 2.0816820069716755 2.018341551077817 3.341288858298116 -0.8140539411755916 1.780704654745714 0.32457426330851846
Ni 0.7706960350785134 6.315878457899316 10.169209162733182 -0.6597808095199024 -0.3999685210791176 1.7152808779242652
Ni 5.920888666666093 8.031173064500253 10.941423892500717 -0.7246289163435391 -0.3330082530084846 0.4027923636811579
Ni 4.8779716831983 7.899888090441446 1.4055131830625966 1.1610129999372132 0.17761720569826828 0.5222653569385263
Ni 5.465796948310859 3.795288149853956 9.925785285995808 1.1956331611142441 -1.233106989689986 -0.8402424266455013
Ni 4.627230207688979 1.6254554195596407 5.517273870601175 1.2172939339171291 0.5860513410462359 -1.9566948663635204
Ni 1.5908649797714287 8.708366961191533 13.36487033194161 -0.46589571989954603 0.7876875353669208 1.1620890066102116
Ni 2.440300628921055 6.987942377390744 1.2789042385809208 -0.1857174662078995 -0.30710387443789694 0.7028275041977315
Ni 9.214583146569034 7.315744229830219 12.583823922001956 -0.885085808212437 -0.8962703640743467 -0.6072426304118703
Ni 6.22782922693135 4.358875195354984 3.563700126987032 -0.6124848526474161 0.4244271683421142 1.34402566561944
Ni 2.132225199598996 3.580059771902604 12.674503650271502 1.495350770390399 -0.6599402179159022 1.235197039449795
Ni 6.650378805747232 6.329146276628431 2.1830617973971 0.7517741092997634 0.29100825442761497 -1.570379160181147
Ni 2.2399085879074043 6.854692142282352 3.8373050620309472 -0.34683821691304134 1.1144053273810035 0.11645708924918008
P 3.6896622883721073 3.455768543738559 8.457694685014943 0.35415017719342234 0.2950934802405821 0.5468389325128324
Ni 0.7829655381007499 5.058784926337695 0.4210853209352774 -0.5624604411001732 0.4462036407872574 0.6016684787582025
P 7.642632651077635 6.755580244654992 8.694055616524823 -0.6480118419094324 -0.6855561187117934 0.8566550636755698
Ni 2.339002032379369 5.8751156147084185 12.01311672649171 -0.43647921441064186 0.8441502463403399 0.3343539684031016
P 9.148087201102603 4.874031934521435 12.009443625910306 0.531880254320471 0.45020710551969567 -0.6600836854723018
P 6.0656075378525705 1.9861223417578822 11.051643667018189 -1.4988150747899154 -1.8453524726330865 -0.25707509201527984
P 3.8587024183693948 3.262001185511768 0.7160460927180018 0.6701014747196201 -2.1940333991818215 -1.9913713346997834
Ni 0.1772093418907214 0.5980621530680199 4.058190254768683 -0.3143250747766845 -0.6704375179028003 1.7426158182937925
