# total energy = -340862.17965707777 ev
CRYSTAL
PRIMVEC
9.38524487481012 0.00000000000000 0.00000000000000
0.00000000000000 9.38524487481012 0.00000000000000
0.00000000000000 0.00000000000000 13.73625454937392
PRIMCOORD
 96 1
Ni 6.93294588583254 7.78904912813818 7.253909989002552 -0.015633335661882755 -0.626612807408366 0.5283652991886773
Ni 5.812263212889983 5.207046329343736 7.040818948788719 -0.544206894206624 -0.3416525589470438 1.8682165217154534
Ni 4.010315019373371 5.5429723894617595 11.069800281155379 -0.1748447851594537 1.1495165692618396 0.42741838975995416
Ni 6.539797989362729 4.434415452547824 11.044841161654977 1.4357556844355852 0.3009887626790945 -0.6640454983335273
Ni 0.30438225300331656 5.711446915351699 6.591575445319623 1.0247735858547835 -1.0568995198550508 -0.031465674708449035
Ni 7.59416452393203 0.3223474882246704 8.440282804503266 0.04041799880573039 -1.3885746558744085 0.18346595116956144
Ni 0.9004672935496795 9.245047820299488 13.598273398825325 -0.7038310057615814 -0.8954769216387739 0.5694330157632645
Ni 4.633926982343843 7.231359123267588 8.334059667548503 -1.3198105018258175 -0.027808794682152103 -1.0737438451058992
Ni 3.3504947827199056 0.6039752156851114 13.629316972402627 0.35180764510317475 -0.19944895686137906 -0.5233917572334856
Ni 2.70670454385041 2.3651754927036817 4.068774769488453 -1.685319812785801 -0.5495306204123827 -0.3889084066102141
Ni 8.178358459564876 1.7890059412074246 6.6695555656869745 0.19931808771046963 -0.7682962753245026 -1.0761357423768434
Ni 2.656409018016518 4.9406930874766255 9.191958307146928 0.29213979692889686 -0.8741010270661591 -0.7623598552354096
Ni 8.208663414391829 0.9700119560667791 0.9784277049033626 -0.40604480918018454 1.48821133113214 -0.11566544658582015
Ni 5.607242544511299 6.353491498724814 5.1398451624043044 1.866694171533656 -0.30973874095758264 -1.8709999979978618
Ni -0.035223761524011694 7.097854018772885 4.592730451153721 0.2525962303083198 1.3173206455244282 -0.6672614341676638
Ni 6.290657286099715 3.063090437205582 8.129170392594279 -1.5784909906550042 0.06211348150129303 -0.12506257153000397
Ni 4.56289945117928 3.3847415402806207 10.406242840100523 -0.96962085194204 -1.53695816151854 -0.575394632663338
Ni 1.367749237148043 9.322494858773322 3.8786644392124576 -0.6677136912137339 0.6565972695855983 1.792593692873816
Ni 4.6269537456029255 0.18880015012924944 8.286216506129689 0.31170846308944383 0.9060953205845687 -1.098880749382843
Ni 8.905001637800222 2.833668132855986 11.0183710177733 -1.5026383051907477 -0.35073883751902823 -1.3572007695488175
Ni 7.64570828729828 5.935219302449568 8.769443980310584 -0.8005237678996406 -1.3465916265744036 0.28374411666603394
Ni 8.899736515577269 4.814912039291178 4.23131594373962 -0.6688830289314868 0.7975168627525168 -0.5383769177884082
Ni 6.700285672094497 8.81912664967182 1.9266612008661026 -0.7425847294910114 -0.10304672938054513 0.3809775817989116
Ni 7.357168327186849 8.534162467754587 4.943265583022636 0.4829259359089554 3.3502852302849657 1.9948397528643582
P 1.4291287368594912 4.208963106665804 4.703924952175326 1.8495569976327373 -1.5732009459006584 1.2758466946503575
P 2.7661506831733935 2.59046828942743 1.7649712683005365 1.0779895077561303 -0.28869323314119316 0.32105545152198256
P 7.814257895145054 6.290000318977422 5.966287277662841 -1.9660164008747625 0.13832946384223918 -0.4059211391181267
P 7.4027336897402245 5.4643615806570045 12.90021110598314 -1.1584424109965596 0.809795937230186 -0.2006172661378674
P 6.615030110109972 5.031607951957482 2.9810005182260517 -0.8753086742210151 -1.3259384691004261 -0.16600378982905603
P 3.4762570604161454 7.556830020896534 4.273787929671452 -0.06866362391498497 0.8905938825148597 0.4136653018399198
P 9.040045922410014 4.849468509923831 10.17908613379838 0.3872934967146104 1.2580536323329947 0.9889640323553418
P 8.107133838263625 8.430267809986127 13.695526118987395 -0.0632941320729555 -0.6826245468872953 0.5687658144929107
Ni 9.201903850853995 4.2969310043409426 13.138562532049166 -0.858417040671999 4.114881688160378 0.116352959571148
Ni -0.06576053189268741 8.829797672786793 6.47613599816354 -0.28100794868179346 1.0139669821575827 0.06997462941692464
Ni 0.5295605497428939 0.588137615415529 9.770679706651064 0.4846663156388298 0.2360216137790903 0.1507116395566759
Ni 2.5208860859319135 2.1138292569586823 9.21267248051285 0.11050807075459679 0.5426282368655946 -0.6618811436923568
Ni 5.9087153716873155 3.8956836417777088 4.9064388217202275 1.6278654273230737 0.7669377044140792 0.3827472721048247
Ni 4.86064633624743 8.166842764435525 6.176451998609084 -1.4909693534932515 1.4057974475105983 0.06848956023096592
Ni 1.6659372287125895 4.480243601950118 1.597320766886845 -0.03716812440986502 -0.35947261784760026 -0.7358240137284101
Ni 0.08215749274067996 7.331349519280702 12.063480885589481 -1.9057515425464338 1.978067932722658 0.4305227397168908
Ni 3.4150840360859895 0.5434478961837241 2.3611388989994166 0.3520719545081549 0.6414593855028953 0.5867352544871379
Ni 4.074209764638743 6.204707216014479 0.6281121877581851 0.6214646875485232 -2.1646384909594723 1.1682187736570333
Ni 1.8804839203645325 7.6277355438812435 5.91098472383261 0.11962854499862624 0.5095237410021418 -0.5193047316483057
Ni 5.670011060424169 7.3130201365687055 12.869345852053314 1.205494627289356 -3.163557577644997 1.7119587555295674
Ni 7.210073388505268 6.9904586647670595 3.5661517488085255 0.4189836287290397 -1.7725159482873345 -1.9291881763028196
Ni 3.012119173760188 2.8916032477976947 13.317628306474942 0.08610650198178074 1.2403137918510703 -0.2372698843638946
Ni 7.777880687059186 2.8600594406829885 3.7653685819239735 0.24922217162976434 -0.8497745345056527 -0.5376012159646484
Ni 5.103451999402609 2.0511921344702713 1.0927465538537047 -0.3191656906984375 0.7055554446518558 -0.5405752109913077
Ni 7.206112815282298 6.836822210596355 11.151379642828438 0.7825826100401876 -0.7994436474615845 -0.7363811717834609
Ni 7.239364736914968 6.706817802339018 1.1954605478509575 0.47624826677846366 -1.3039768772276703 -1.2505750645677625
Ni 4.117006480033882 0.7342395952179841 10.497327577508715 -0.426804153214723 0.8696802722906442 0.7125568156703534
Ni 2.7913031387126415 0.4989777916756576 5.894089406496135 0.43706928258615696 0.0234029523049726 0.443697586535952
Ni 6.015941791290266 0.08269620578096086 13.429853307354088 -0.9194840831866488 1.3444115882039493 0.14096767279603464
Ni 4.5004406483383494 4.299465020384075 2.004957603976616 -0.01004530005114399 -1.2603108037982875 -0.04191643772812781
Ni 7.119881187858936 2.46705232288224 12.80935912264113 0.09530848019602295 2.16118318542102 0.6446498674157349
Ni 7.963905620358974 0.6234467826654388 12.14578854224383 2.2894876609270893 -2.032496386874867 -1.1806603418544956
P 2.723917082454507 5.400823474686592 12.895142135372412 -0.8068738784873846 -1.0103574104294537 -0.20309066737902443
P 4.013111822265421 3.4332163286612984 7.651437040604683 0.40262524197567434 0.23993329012867065 1.2150465326438495
P 8.251084720002797 8.721839204104715 10.340844578649556 -0.6830670337413526 -1.2002552332672878 0.09882266399686851
P 1.2419869594518036 0.9050416617697651 7.615956123378515 0.5071920075451717 0.34746967984945315 -0.7226247414293168
P 1.6508175996552281 0.8190568662794937 11.926969687248056 0.4070961332628344 1.5692920977645555 -1.0373660778078133
P 5.136394207963341 2.0664431569520914 12.498878337694007 -1.8732484277124062 0.12144194405828117 -1.2077006338017393
P 5.4067267935426315 5.764473547365412 9.48085866065116 2.183936419957136 -1.3521675780002842 0.278139883105379
P 8.957530851849913 3.50162537658129 1.610039650374453 0.15030540525719274 -1.2327058975968255 -0.29123348306454355
Ni 3.5502503288756344 6.069691087138502 5.838223737989652 -1.013905532792028 -0.921354046515852 2.174372173307468
Ni 6.895573841818628 4.11375918540083 0.766049004754989 0.16653986483818414 0.2551292811428187 1.531061593528447
Ni 2.244556329050542 2.782161910468153 6.611588540913613 -0.5262284553513324 0.4289245419918355 -0.3721579266247526
Ni 4.810904539845186 6.467268819061494 2.8078136610203446 0.14302918331075365 1.1255667433144616 0.7287259692310482
Ni 2.3359216852723996 8.477944852575447 8.259801735191177 -0.030336189089696146 1.026624008799961 -1.4384918524198258
Ni 5.241931283537537 8.916967824670573 3.7599016769420284 -0.7502962392026562 -0.9193056486272554 0.11061811396989982
Ni 3.031189990795916 7.677974758247509 13.089894407629641 -0.9328877581870643 1.2738029247474514 -2.29733158245154
Ni 5.0093179960225145 1.890469820623398 4.159090855363561 -0.6251321090977814 0.8664946754738109 -0.7504492198407527
Ni 0.3447594523394928 4.047818456811742 8.353895382019473 0.2433798539163744 -0.9431194632174016 -0.055430155943846475
Ni 1.1280688604460605 6.569962165520617 0.28352636244387 0.00022522863692864438 -0.4344693830694647 -0.2866270946407838
Ni 9.174780493947864 8.232989968405906 2.2168670418947793 -3.4776286274293464 0.02086193105067375 0.13599875882653353
Ni 1.8460213021779213 8.329038561685259 1.910396571967029 3.337641573379026 -1.3355384540840354 -1.0916317811299134
Ni 7.976200290790473 4.037607310682375 6.63222106265148 -0.49502400472407 1.1248923429552564 -0.28832119451375504
Ni 1.5788233882964333 6.13838169239662 11.053220308037604 -0.5383311521521374 -2.4374448776670796 -0.11720836559290781
Ni 6.4692678761621885 1.5662659310160176 10.388042035239604 -0.0335068735081939 0.4040537468920848 -0.04651845527651343
Ni 0.13280308819830813 7.285878009173368 8.597411508191191 0.05772178019150059 0.9224609064267855 0.4962838452731001
Ni 1.6505454275617064 3.510785375314986 11.324923139329107 1.385766497001652 0.45620137542991757 -0.14601371986037434
Ni 0.451819753112949 2.396982086667305 13.221405147645953 1.4899056881154276 -4.864849083268706 0.8205238651706513
Ni 3.795965417858116 4.367170174958752 4.369145768947936 -0.7421921220382831 -0.17973373782063884 -0.7785272090238915
Ni 1.972271612593579 5.976833477024576 3.593816634328317 1.4566520682686201 0.6309304609471134 0.8331258702053781
Ni 4.994508080037091 4.378789107778748 12.888329386314226 0.23323993726889508 -0.5488536489500161 1.0491589566776836
Ni 6.028733879685786 8.413242976274114 9.863811365907432 0.15095512302604971 0.3883149960005893 -0.13443141433941364
Ni 0.8861876438843937 1.3369468643570686 1.936922088791871 0.8288586102885919 0.7571487433481153 0.10705687898120272
Ni 2.9487406169480455 7.665454841945511 10.167424028853203 1.4317182811414182 0.5646330232714599 1.6833050963486171
P 8.940074296886108 1.1727613952512466 4.659927863995311 0.22874564894296734 -1.3897203394430775 0.07051584663237533
P 1.955594032931921 6.338212320509181 7.711958728959306 1.3568084192064052 0.6971973024951477 0.633886972472276
P 4.6804590250914515 8.439118095647885 11.614909365634045 -1.8518252248416236 0.6498882329965389 -1.4907826914037423
P 6.495471479097106 1.4822210655854335 2.622566764498244 0.4211790937184618 -0.4057514463094818 -0.2564287166805326
P 8.0797946207316 2.280942922381014 8.873606117550263 1.2954120183767948 1.442675037263238 1.1556648482514227
P 0.3858940409152277 6.167701196540131 2.2650255475322956 -1.3775132558539243 0.5952394353034072 0.16242918510392026
P 5.723291094042195 0.6563261100873221 5.651479894953183 0.5210844492565477 -0.34962220741608174 1.41805775293519
P 4.324026205513259 8.247095991046015 1.1558069508737647 0.5889769993334631 0.8889422058440496 0.09725017730342607
