# total energy = -340859.22420677094 ev
CRYSTAL
PRIMVEC
9.35213052194644 0.00000000000000 0.00000000000000

0.00000000000000 9.35213052194644 0.00000000000000

0.00000000000000 0.00000000000000 13.68778834670956

PRIMCOORD
 96 1
Ni 0.40231274611144446 2.466306389455782 0.5420981022239163 0.6595535240004448 0.7763744243469468 0.5069472385242172
Ni 1.0462789274323707 4.959687196078041 9.097328686856855 -0.5998170273717605 0.9173960903093684 -0.38272001841131503
Ni 2.322115244767446 7.954566636943868 1.9241194419941865 0.8782551584438487 -3.2310071266472224 0.009614126050996347
Ni 2.2698929492725917 5.0173056707456265 11.576761726376496 -1.19079794450913 -0.03976391016149926 0.16695972598442213
Ni 5.859277960036774 1.9805847989979983 13.40776294236554 1.816031612181782 -0.3061695355490856 -0.14492434345093752
Ni 5.664959397036757 7.4972568182828905 1.8782107696527304 -0.16734641989987953 0.48006044143570226 -0.012695078969165233
Ni -0.017923357685510195 6.480016255376222 10.972035213292909 -0.3230202885578372 -0.21970667866915064 -0.40123144695194124
Ni 7.245329132745571 3.9084890481173225 13.21985713509991 0.8977235515811055 0.23953502624898748 0.30960992868920223
Ni 3.899277199789523 5.902653140284828 2.3082535172634215 -1.1281267907321537 -0.42069932586856584 -0.3702761362210074
Ni 6.214537333060242 7.176291707003626 12.16886753964448 -0.8863855008604669 1.5334396068423204 -0.1548518869772946
Ni 9.727992398064623 5.013340367506046 0.4281227552637904 -2.760163318713782 0.6494056369331654 1.4265261954175172
Ni 6.514029953211964 2.650300200624437 10.974211454009538 0.456206260525924 -1.8431714058213675 -0.020604820734545157
Ni 5.426152750285125 9.136058663993825 11.133345432462502 -1.6616193838450675 -1.739778091734681 3.922788400333121
Ni 4.390292095986936 2.8517824954204882 1.3661208478647633 -0.49462676928565136 0.4739934093060159 -0.944876040897192
Ni 7.816426320548005 1.2905378661384264 1.0489050056155649 -0.3406398014118133 -0.029867476983393718 1.541012791203888
Ni 0.3927081083117998 9.443968201399377 11.134522865665009 0.831240223146891 -0.7449920533809234 0.01239143168581737
Ni 4.386046228838894 3.6566174753616947 12.63764681088334 -1.6254779009275038 0.5171046386731932 1.846919045789258
Ni 5.631628404711604 5.139154576190194 11.731186907232455 -2.876874690065613 -0.44323298819470763 1.1935287131767314
Ni 4.440522387731718 1.9815480684170472 11.183785211925601 -1.8779309207897399 -0.565017146083756 -0.9972013326634697
Ni 4.044169754249012 8.151279345296084 13.800848876740732 -0.4873628886343865 -0.49448690127367745 -1.5376230487960485
Ni 7.670925877620185 4.937026984404683 4.469131489477475 0.14013257848924898 -1.4259973194972408 1.2725371706611506
Ni 3.956839561675417 2.125785973756794 3.4819683127708436 0.5742360935788626 -0.23479082669578275 0.9178645453053548
Ni 2.407546954893789 2.1151432494958438 7.223675210290559 0.8089767837630003 1.0039491929102644 1.9561526207068054
Ni 3.794018973465277 5.946149898226549 5.27922891312838 -0.7672997157391882 -1.331938395437603 -0.17256550220697375
P 5.946037672663165 0.8041270236788567 9.638488770413485 1.2058856920801875 0.9674737236920499 -3.059807908660156
P 1.2183020118400276 0.596661235928363 9.102064605631677 -0.4273386855619543 1.2561024221438948 0.7539801158121466
P -0.160500324687168 3.366804310051872 5.428480495512322 -0.35677578774172747 -1.4286162451773268 -1.4235647987963482
P 7.731742780844225 3.094526389020855 8.69923281628958 4.186489225195035 2.0722934642671476 -0.03775844969569626
P 2.069495501589256 4.585181138934156 7.144997608653898 0.42241733700093703 -0.716480833315108 0.245168570385681
P 8.119809426897053 0.03376212553115594 5.5636206485137105 -0.04317345006368049 0.9079202896084493 -0.14067868080070609
P 8.038408484922266 3.846175804048158 1.7277275117106445 -0.35371926030359085 -0.13295688667641617 -0.8223999991474417
P 4.961061959229499 6.055036751100222 0.2597563537964071 0.3409478195705354 -0.19105996146673548 -0.5322245250337673
Ni 8.634971523482667 9.092870526351412 7.677753867939094 3.550451010707711 0.11952467243091026 0.6612249981655968
Ni 3.8128074032018753 3.2454884760333806 5.541515018166076 0.5690738326516328 0.16257110999842325 1.5131389476117552
Ni 1.7542071333911837 7.430940862453016 9.18718863067174 0.5170994964668707 0.14209458731162625 2.6316660104706164
Ni 1.9422130084508298 0.6482672260376319 13.192714447382375 0.02739227597002379 -1.431985932980508 1.9011844920010417
Ni 4.377058831637863 4.372812964489822 7.5745344060163315 1.2148845531446884 -2.2364447742684965 0.5634947959019585
Ni 2.1489699047259454 3.0300060422051307 9.63313654625308 1.6289905420664526 -0.7837262367263277 0.013940521340492118
Ni 5.6189656203097345 6.216202012250442 3.925479998413714 0.7794571770373285 -0.8537566590818523 0.3272705791937589
Ni 6.313838252394834 6.944246650445902 8.098064788778306 -0.7558973874395175 -1.2006408987414807 0.28800520593523304
Ni 2.1342309474014667 1.6999554256251286 5.105572011560453 -1.4967610204743642 0.32491056360201465 -1.7819133303418344
Ni 7.533131590044757 5.065319507613569 7.66201329746141 0.4702686521562611 -1.019682287374805 1.791121993424296
Ni 7.890588713684502 7.293240096180409 6.3565952568312465 0.3931689816587809 -0.9844697440294143 -1.0281581860563003
Ni 6.528591220061085 8.968262742473646 0.04531761770763201 -0.12696415942809103 -0.2356626877777748 -0.1348672163252516
Ni -0.024648474571317858 5.198970801474056 6.379043175147203 2.003687690173291 0.5048363628288015 -0.5338684883950935
Ni 0.025712746997412852 7.38474133885979 1.7747041973303088 -0.6231965826379655 -0.36359461043577385 0.0027454239556210782
Ni 1.3053609926354437 7.136722843780358 12.86082698314673 -0.701648653398282 0.726336385952949 1.1271114620937621
Ni 2.035332169669001 4.495569026571746 3.945559957342261 0.29016596103197767 -0.5829469910892993 -0.1348363630873162
Ni 6.482419752858704 3.4390682207411163 6.143558405071748 -0.23243852441352228 -0.17045796894566773 0.026465907501012485
Ni 2.0311517674329336 2.7355729245359854 12.382739536638166 0.6157889773199846 0.8034951918231387 -0.5752766190282351
Ni 8.159247360296373 1.5948187769945492 12.30322678976732 -0.2626415303594638 0.49988724635364234 -0.030769934193005076
Ni 7.655457454133707 1.9249489759502028 4.463834442885734 0.7853054082879896 0.08155256406251116 0.28147357546430235
Ni 9.30461210806685 2.1565544823846716 7.26731225018651 -0.31165087037863104 0.0807776335696996 0.14922837014293008
Ni 9.563020819889617 3.041537218842874 10.826205575379163 -0.7439127042738156 -0.8566936302229892 -1.1441959283798746
Ni 8.676438869153188 9.332182188138274 3.2740639101101228 -1.8620512734450059 -0.9109513631252892 1.9138862558384264
Ni 1.0302493761289717 0.31011851057816603 2.018017635664851 -0.2661454297476642 2.1320351031021536 -2.1189173347732733
P 6.143835228128096 6.421546736852973 10.08412151920432 -0.8086278850640138 0.5424634291529561 0.45106405420335216
P 2.7931539906824434 7.786078657782818 5.822840190031929 -0.9340198149089785 0.7381637176051803 -1.2758749767851316
P 9.320632307239967 9.496620694887204 13.377458299399649 -0.9979556943309911 0.07542305412600558 2.0620201073655973
P 9.251155331374768 4.383324758926824 12.253431372080652 -0.19779907996278195 1.0265124229227611 -0.8723475347101622
P 8.507286888742113 6.8598343225203005 4.018980726547392 -0.35500121233980797 1.3386901123391397 0.10615159355811396
P 5.926800340673029 0.2501638737661291 2.254364672152309 0.3105157283329233 0.5666076304993274 -0.09428003893150859
P 8.149455679891087 8.005479634199238 12.254704197012035 0.48802957568410793 -0.6061121163518529 -0.38635941493611525
P 4.708647962917515 1.5359471168691714 7.165118716955686 -1.4641931138406719 -0.3081251166135597 -1.6791967306071984
Ni 2.5728084491075385 4.8342564247354565 0.2989567430865634 2.2475056600683487 -0.060108021035490025 0.1654872552039537
Ni 3.5009045061658974 6.2705565934496 7.559409205711205 -2.2945892438197126 2.173530394132463 0.13406271814608525
Ni 8.403038692488327 1.3176871003471589 9.611222634576228 0.07410433531458206 -0.17782160839959052 -0.5006436649036926
Ni 4.8638746213386455 7.937545759830574 6.096171160932703 0.979564593418313 -0.037910401892528256 1.4712986145372016
Ni 6.522690025853125 -0.3151424749656725 7.6263704585305385 -2.6620639060361833 3.0740983571408993 -0.49223615756628775
Ni 5.550882111856557 1.0794976941941408 5.2316780067094 -0.4159353288210192 -0.09178015532779032 0.36207868801187965
Ni 1.2777628561731735 6.788599146162079 4.086160819215325 0.3853726255428137 -0.33867213616248126 0.4522760722335824
Ni 3.0863058665029506 9.387200770587455 11.343918933105714 -0.5419569218301828 -1.3850908110908662 -0.6395999636966533
Ni 1.1169436238433883 7.2157202882726645 7.068839470915217 -1.4948206089185418 -1.3415399230831089 -1.529140208136018
Ni 7.377091296289089 8.496868615607934 10.016818913629692 1.1636617504139701 -1.4817154389951515 -0.11020288080935214
Ni 3.690285144377002 5.79351377989354 9.930120925063163 1.0897975561346522 0.7222994968794141 -0.1866417777943818
Ni 7.461082778351999 6.455364039952792 13.98495023740763 -0.03978036522173149 0.12740947449562576 -1.2850682132486257
Ni 1.716938894217295 9.01651038259864 4.223038598023114 0.21997407339792438 0.28852996809045145 0.05245796068939998
Ni 3.5872994857112896 0.3746220235593823 1.8789907373182517 1.452352412452002 1.7574307718194377 -0.3232601724827852
Ni 5.8467835139799815 2.662074532649513 8.515624312888544 -2.660374434148902 -0.13248894590106214 0.3754499671124631
Ni 4.046152405868802 8.235822603045634 3.9450942212542155 -0.4418492204733036 0.14222777045538085 -1.3088560596968426
Ni 9.52346130879663 3.040031525867467 3.1479448219787813 -1.4068161185830996 0.25120346372585123 0.7507004166196104
Ni 3.633583178477055 0.9565265331157303 9.158813332183033 0.26249574881021887 0.6791203903887788 -0.4835635694929543
Ni 6.302653104577527 3.2965698116338276 2.9800778242684585 -0.5719899778571633 0.24445097549336606 0.17978824520765813
Ni 2.308292796210606 9.047840019043438 7.559833792426009 0.7878639130437851 1.0328607337382922 -1.007440751003291
Ni 4.3769559582047615 8.166448500613537 8.43727590623781 -0.0315741752618553 0.9122448851257322 1.4955675143868954
Ni 7.214186538906412 4.579476339462118 10.530522077891309 5.169944411917006 1.2950546350373762 -2.759259833062906
Ni 7.424946146942236 5.950723089934462 2.397566361456806 0.15308425355391053 -0.8981354423075434 0.2544764780501682
Ni 6.496214145024698 8.266516294631256 4.568943035125468 1.327555692988875 0.8205919994044255 -1.922338500370838
P 1.9556894281872348 2.1128519775767463 2.730604137717143 1.2770440573925683 -0.7623359439760097 -0.3866972578915082
P 8.895409647576635 6.86983174979179 8.670214091237469 -0.20442249881657049 -0.24285869130558174 0.10922020518110868
P 1.5036916195264505 5.777970539364807 2.075548200307786 1.5402617719704763 0.14729772877912053 0.5855132091545786
P 4.443515069421967 3.7101677733565976 9.88996100720607 -1.1886310187647982 0.9567738207760427 0.2245727485122003
P 4.013513471184518 1.217385503072389 13.146080049731033 -1.4744528438954672 -0.6889443184577361 1.0505571225767907
P 4.3099572968643 4.331158576213661 3.8476646631890565 0.9528888838993397 -0.16492598338384498 -1.8397232993717672
P 6.076995553002428 5.795075585650639 6.207603663669144 -0.714301566275602 -0.6266323477923919 -0.9641870825209782
P 3.0435198704626645 7.16332030230245 11.748160088481313 0.7071132760572789 0.22988978984973954 -0.8709781651664613
