# total energy = -340857.028869601 ev
CRYSTAL
PRIMVEC
9.41177046926910 0.00000000000000 0.00000000000000

0.00000000000000 9.41177046926910 0.00000000000000

0.00000000000000 0.00000000000000 13.77507743810811

PRIMCOORD
 96 1
Ni 1.6858645977439264 6.686159531136014 9.488190483253227 0.843079381873664 1.7503386408593469 1.0347474092380438
Ni 8.912137412326123 5.256370389784716 5.357334218471362 0.9735479549105878 -0.2659680236295355 -1.9897224862424505
Ni 8.909690351951893 8.03581685700191 8.05291051489298 -1.8953974530056192 -1.6478459842100588 -2.151104975249411
Ni 5.925942578798402 1.5560574566616296 9.349985219201983 -0.014606437059265167 0.224808004451458 0.4457123029731356
Ni 3.710487057217486 2.4540062609857802 11.484420454146237 0.937597762068224 -0.20315391651679204 -2.5898822416656104
Ni 1.0987865786538435 1.0146359370922995 3.8648739785818687 0.11115316053776342 -1.7972376194037307 -2.7810836138062167
Ni 3.327531520420968 7.603741289078035 1.524432966032959 -0.4925277206647776 -1.1759611366066134 -1.5644319414587766
Ni 3.4579974854501736 8.978650395651862 3.304145152659854 -1.310012799009105 -0.3283877235173377 2.3944110385050568
Ni 5.750083643827207 2.6782322854307212 0.8645661949343012 0.10857177296383236 1.4713199546934401 1.7062416505401325
Ni 9.185210526548989 0.8530659523524815 12.205462793423607 0.20792485554287418 -0.39796640304742426 0.787157888115696
Ni 0.6394865228895796 7.913030896839523 11.92483673323797 -0.12554439626242894 1.113912961125617 0.920542349247834
Ni 1.5671821695937116 1.093261869270483 10.607126721734732 0.4861467568390983 -0.48168486441300273 -0.6718827349897589
Ni 7.620889535238994 1.1510595529556908 6.824242442168547 2.0577178804458174 0.32682526412622426 0.5024933165179216
Ni 1.182739573031315 0.020838601440712957 7.795537175324944 0.43677797659798323 0.8185454012880419 -2.7504743735607917
Ni 7.938103853904722 6.076577968373674 2.807678014519286 1.1462584673358582 0.4682984158037677 -0.08406581740266812
Ni 3.5880022737165427 0.7073453894211457 1.3739811059857536 0.03305590201370436 1.4225774951824144 -0.22850396524580646
Ni 0.08223628740724157 4.664840603167666 1.037623245777001 -1.919133620280295 -1.2727803970202078 0.23444192799679625
Ni 7.72712019079264 2.4279074209175366 2.113868633675907 0.43730993784205335 -0.532637958422102 -1.0326452752933764
Ni 0.8264231119395054 5.840267230388298 3.185527665727263 0.6047990539673842 -0.23202354836329075 1.265918122682736
Ni 6.9666679441882735 0.6212079230711394 13.795602154035876 -0.6043761074973527 0.07510423733400613 1.2052969094562533
Ni 3.6070422857821955 4.598468796401979 5.338531383026597 -2.2083963527717128 0.8877175894083291 1.278085097062573
Ni 7.041209167895626 6.667166577923711 10.522643844668531 -0.24789548239854084 -0.5420780207890793 1.7812553850428612
Ni 5.310130423852441 7.60578364331345 2.89089312607622 1.7674639876857239 1.610386810922336 0.514636636748675
Ni 7.860475569417571 5.203560944554671 8.880351980418993 -0.8749389495864222 -1.7155780974497101 -0.390199871728128
P 9.309041193255759 1.4454409159757078 5.422904142375955 -0.21898291312924864 1.1201674266757613 1.148681474955054
P 6.733717208332131 7.14817394156154 8.584036498526267 -1.2096708701542327 1.2386487454438218 -1.1562274056231119
P 4.112623782639709 9.209492894877899 5.952320948455547 0.3862115765043413 -1.0393717953839323 -1.0753464137063287
P 7.523374179325879 2.8242747309189755 8.373566718092773 -0.14441372236310612 0.9423597022332415 -0.5365401216899857
P 3.6675599711910682 5.2920410006244705 12.912937124102934 0.656626837271953 0.39787744287804383 -0.5849002581609282
P 8.812278525516149 0.7192503381417806 8.673546202307378 -0.5613299270401558 1.3357749955748737 0.6458659992110232
P 8.60854192582006 7.112588036657817 13.335762803812214 0.3397296308927182 -1.0298116624993232 -0.6229795815311528
P 1.21997253780231 8.354621764910888 2.6930002947892073 0.6431192897038214 1.122814377380305 0.20482641912320854
Ni 4.230506210282963 3.8581389154903305 3.0436583993541406 0.8668019223015845 0.2326940920677541 -1.809607196712677
Ni 1.8965564959652352 8.667760786876455 5.217393423908547 1.3509905269730476 -0.31417492235206534 0.28041813761659445
Ni 1.9894130253966404 3.7497059055998765 2.87502393954933 -1.2889644629792383 -0.580437080183252 -0.8457137341727177
Ni 0.7235693997022987 1.44326679695091 1.511814605095529 -0.024214135352358297 1.0151602311347356 -0.5254684372568563
Ni 6.66546304743242 4.605028800559053 3.485480796983991 -3.3145587234176332 -3.0393758660580494 2.903299717026361
Ni 1.7983729043345422 9.147346973143096 0.3305150329767423 -0.4664140542968612 -0.8217520811507977 -0.7080028777510838
Ni 6.920314973637932 4.116924961835953 6.032133704915233 -0.41674162677239845 -1.012035826573141 0.111276316379189
Ni 4.061461397276935 7.574847153120765 7.792726820602845 1.7984951459599157 0.3297362671254321 -0.23176720937811052
Ni 1.850796466967111 2.7149476028148603 4.993617282101637 0.5137421499588637 1.2639252606224234 2.339474277257861
Ni 9.220777607911373 7.617106003429605 5.323819844292132 -0.43851732788659314 0.31320510223962833 -0.059208392039356086
Ni 3.4893198582403335 0.7275421081021565 7.756402091701517 0.5404093748374047 0.7750549342045748 0.3176101732858595
Ni 0.8104287488627033 6.899025548382121 1.19128357844565 -0.020200643317591013 0.775917025094554 -1.801068048893414
Ni 5.524530559717778 2.0441707071553994 6.697194832246729 -1.582767763653487 0.5362878964698634 0.05607575994764537
Ni 1.107059525072879 2.4385333100041025 8.240499339650347 1.1579582722712898 -1.293692721692843 1.7574793656691863
Ni 2.2175072875870017 4.795193626948829 0.5693970667091951 2.1287458908279207 -0.3342886623828049 1.6864325862340053
Ni 8.829840889586592 2.2857614484867126 10.24878202406351 -0.09765126939658667 0.5930982205906883 -0.7304606925339677
Ni 3.455757484030685 9.141116380959476 12.293429907991886 -0.444583331575015 1.0721857565901598 -0.9375620237342821
Ni 4.777132439032869 7.325529348069283 12.829115894514842 0.4652056358110569 -0.6843656979481182 -0.11842835404293797
Ni 7.0263856290901865 4.725668877008653 1.279581987341516 -0.36129887242306163 -1.9092878378344664 -1.5898138718669912
Ni 7.016776211235993 8.367638243747663 12.053399638237677 0.27952647904026057 0.4010352717807351 0.6033414955852512
Ni 6.436258196302984 5.550092928857825 12.865564858789018 -0.14654311000128312 0.9823228728897405 -1.322129379766981
Ni 8.327158218095477 8.085407476662771 2.8417298008037806 0.8323506826022503 3.8449893897757716 0.27561917356605437
Ni 4.842440715712833 1.4892715319864571 13.149840803640528 -0.5770650783872255 -2.1973730050780156 -0.7218976334553052
Ni 2.6071545933299745 6.964390295686105 11.886266355854751 0.6882094971742405 -1.179615445529749 -0.20316574359133396
P 5.301584536083973 5.838987229577162 1.9022967348969415 -1.1396103658917212 -2.297474792897624 0.44291519984397276
P 3.023776033813512 2.773319404510945 7.066063771881279 -0.23751388205390064 0.29260465238045735 -1.17347487984965
P 2.433083894786103 8.944918609570152 9.265268930223165 1.6216387296870718 -1.638866663529584 2.072104488184793
P 1.8414035198383312 6.295712224886081 5.079132630410348 0.06888088213211363 0.3009041733850882 0.30654954459632366
P 2.36472620440902 3.2105526227620453 10.09126380659718 -2.042958462748456 0.45046035918108224 0.035804154182802854
P 8.788758510611519 4.030101377404096 3.218464157187348 0.8053412438929421 -0.204949317854318 0.0020489121092287297
P 3.448623361862734 2.872971232366177 1.15185672993145 -0.07379168917016969 0.486006374606492 -0.09320660336167173
P 5.073970274197787 8.73550671215998 0.6952437346935052 0.9132136767969046 0.19361640934000202 -0.7338432358529555
Ni 6.7908466562997605 6.9629973536269265 0.7465736495742064 -0.018331708429652302 3.340703500133801 0.869092003887342
Ni 4.910553700052493 1.300339647554466 3.8071421772913516 -0.43951131636874635 0.9396669858924268 -0.1177189866807392
Ni 4.700530037548762 7.066950360678403 5.170874806194411 0.7499095452871988 0.7976875840024262 1.3250087581973051
Ni 4.77172067089755 7.627590715956119 10.032885416661625 -0.12327334084006511 0.2769749162630004 0.7997758339900226
Ni 8.85854679013046 8.96892803654963 0.5890488438684058 0.0183155104797362 -0.20709567477335947 0.33099662189509443
Ni 5.8362484043121565 9.202951714262165 7.890750412132146 0.38053406650358984 -0.9910491970191448 -0.3497613040971073
Ni 7.775016691732881 3.6899223383032735 13.060357452817293 0.661557441804351 -1.208741416361428 -0.09483591143497862
Ni 4.150176747613488 5.111203238968783 10.786740012026238 0.19448955597357473 -0.21904616226701631 0.5525131000794743
Ni 5.143118553311161 5.174224455375908 7.102016735841136 -0.21619583730241476 0.7988481799694306 0.746275033858405
Ni 2.0576483627550113 7.116917451166071 7.1461108814306495 -2.227165662959416 -0.4148996884676532 -1.3047862605028433
Ni 8.846273841176622 8.592852504112969 10.153802199168927 -0.6612247410552805 0.38546749924946516 1.901306876511519
Ni 5.44556580379547 3.5830893294267403 12.323212515100414 -0.5752272538475384 0.23717295377471412 0.16546154417234082
Ni 2.004490682010173 4.657066480594147 7.832096257315958 0.5663219809381086 -0.4969831853329699 -1.9935665425788893
Ni 7.583891864734751 2.337554422484384 4.391921841983791 -0.25727152429680206 -0.37109477546756087 0.9547179666882782
Ni 1.4293467881298023 4.58209231543597 12.250451998403848 0.7875286411915533 -1.3363954027676919 -1.0188489928402324
Ni 6.317989886062255 9.411573022936047 5.29053888202552 -0.8157758089627047 -0.43231968371631346 0.4330647894124542
Ni 7.089990375278857 1.6660057616299728 11.68789164190943 -1.7302747802299363 0.09646341973607257 -0.41952921681986455
Ni 3.3829574378973057 6.11547681655328 3.492615860329009 -0.6671228517072705 0.049564184081372704 -0.9522360808066891
Ni 4.200699132570692 3.161611415277421 8.939309194250761 -0.08241979715881291 0.9378548723843526 -0.7106583130960599
Ni 7.500174164624032 6.371834626066012 6.72011625853674 -0.9487748617309659 0.6091732717756799 -0.027937092729900272
Ni 0.5951090830028962 4.672473549181134 9.634565164246137 0.2343416549735061 -2.115987048500356 1.3637385706673353
Ni 9.352758868018467 3.4788727927965 6.676063524738176 -1.170673662955429 -0.954575527573143 -0.3221324866362452
Ni 9.108523419128849 5.761123650823257 11.521434124660615 -1.6098851886955692 0.5421461550228533 0.18179447700440948
Ni 2.0809707304755687 1.9983447957625844 12.76989609228138 -0.45599234474290495 -1.105278939599703 2.322012630137988
P 5.361321044527226 0.11977419354794865 11.058177360506635 0.1260007670735572 0.762186562882339 0.44853023203790493
P 6.554018270927527 0.14345420855397087 3.116625033828381 1.343713276585344 0.7920465836665649 -0.7544102613710297
P 7.0058397337173135 4.360134527722527 11.11443527851021 1.0254467006624082 0.6319727861686987 -1.2222147682575142
P 0.25317286631796315 6.0642391370251465 7.894813473530437 -0.8085648930365622 -1.2940110242642102 -0.6716935017970883
P 4.992351398946506 3.2237291017002137 4.833468474733007 3.2607095388076615 -0.6620978876888532 1.2660590191359744
P 0.22278790588654737 2.7376299701298494 13.275662059844027 -0.021394149405059928 0.5535060601203627 1.1081130666143886
P 7.02907739550184 7.437755301539796 4.724672170494686 0.3138972432106465 -0.9563997252660754 0.19455897575892944
P 3.6100822877086447 5.606836494227978 8.803252637443503 1.4583325412948367 0.9980341129774102 -0.4486438747976338
