# total energy = -340859.9307725303 ev
CRYSTAL
PRIMVEC
9.38377464621473 0.00000000000000 0.00000000000000

0.00000000000000 9.38377464621473 0.00000000000000

0.00000000000000 0.00000000000000 13.73410272121537

PRIMCOORD
 96 1
Ni 3.17127476046647 4.588646987357954 0.37021242705295515 1.909966866179362 0.10442844021942015 0.38165481037159427
Ni 0.6006572856947885 8.214049517167425 2.478620825839253 -0.6296297398578188 -1.3146826936809488 1.0331980624730528
Ni 0.5399836762099663 6.624757156746999 0.37632689454967794 2.62287206632807 0.6239571149530738 0.04469734290737464
Ni 6.512320770089951 7.365784449179014 9.11368981243915 -1.1176001801692172 -0.4340469508200654 0.7046331899479026
Ni 5.329101869542425 5.843454703946761 13.35971079316598 -0.019680252037746752 0.7427801333312691 1.242570963316363
Ni 3.7393590879436034 1.6354792987550935 5.41565874436827 -3.1649691132805424 1.719427295992471 0.2629675462403149
Ni 4.959015185068439 2.007395819266313 12.684418718211012 0.9102126851870518 -0.26455597377335727 0.7649780095845471
Ni 6.698044435981813 5.33715314810625 2.4676202269343905 -0.5528918235751317 -0.27548701886356425 0.10313723221182237
Ni 8.840810586905159 7.787228531764669 7.716779844331203 0.5431866804722257 0.9911350718647317 0.3186995496952963
Ni 4.144850753794408 4.372923394230024 2.7682594727193868 1.54351241769729 -0.6353440166337767 -0.49392074435756217
Ni 7.450229036353673 5.876457439038802 7.836500855171348 0.5587814495866893 -1.0179717324416016 -1.9584475873885687
Ni 7.819771461903764 2.4480766396792886 5.189197298022874 -0.7938898075228908 0.18949338831056398 0.9023736487586074
Ni 3.2362198641264124 2.4739195547897466 9.401185205212084 -2.2565027213606363 -2.9225958462518116 -0.5321250233414254
Ni 2.7819888732633635 3.4533228721131803 6.936244045911693 0.7823041595678204 -0.4363946251166355 -1.2361036104244647
Ni 2.926226871870063 1.6493391337653138 2.240182868035804 0.2813373069967542 1.1820495088925385 -0.6578468257219832
Ni 6.628266688428666 4.323367680831938 9.3290127183938 1.0632128636675882 0.1151730803304339 0.17919971969403978
Ni 2.153407351262946 5.65020525086587 2.1264374448290435 -1.062682445085415 0.1515765586601325 0.5105586100245595
Ni 1.0265474006621924 3.25248194542141 2.684851792632492 -1.7275735792486893 0.19424041607724613 -0.5104686214139145
Ni 7.822605361817838 2.168487076964655 3.006999588063342 1.0528796000623803 0.4459336749553223 -3.61065673366333
Ni 0.46296728496901707 1.7254133940414518 12.804289869443956 2.305486350348191 0.3934286630780708 -0.014328500807530162
Ni 0.3702771750973496 1.0147801473766027 3.83320152533 0.23291212161583114 -0.36520772055916456 0.17957432942463913
Ni 5.696420340524186 1.9935078329324427 6.331558305802628 1.2736887677670903 0.2262107983362556 0.41597389536843843
Ni 2.4422962345565424 6.524651049848536 9.062338044592211 0.10350669973609915 0.6034093727087091 -0.4757569289643419
Ni 5.057816947304464 3.2000360294619505 8.421998653080752 -0.4271134569250257 -0.42520492704840324 -1.420807033545553
P 4.034272354498244 1.2909540161550679 7.768805367190826 0.011685149647412135 -1.236708076777683 -1.0837755183102884
P 1.2823115597945989 1.872532211434975 5.628743620092766 0.5149197152067325 -1.9289464926056585 1.213080152946098
P 3.4798320352166825 9.357603202692472 11.30519904188456 0.8421260168214594 -0.29048837736840294 1.2034660268951016
P 8.600811169016605 3.4623312956810963 9.679795101863707 -0.45978189369232425 -0.18522535706282936 -0.42259731422222707
P 6.30727591239982 3.349388185198353 3.7711926047267252 -1.3650773440834165 1.951683272081542 0.20573684675261986
P 4.471068292247555 6.425117353197617 10.212418145316722 0.4673702475625435 1.170473631129481 -0.1900330628641179
P 6.55732535283133 4.057675488225724 6.968793544692974 0.5216922580438756 -0.22361501258462135 -0.4046816102840708
P 6.777356098477671 9.094557234509335 10.287378551553786 -0.687412712304558 1.5387669325925046 -1.2342809553934293
Ni 2.757637978306341 9.063403103003626 6.480875741573195 0.4599718982159433 2.243493453585162 0.051399694628214705
Ni 8.762953409464538 0.7691579717777415 6.546758284310674 0.4022130941389202 0.029548403081078145 0.7825054769453491
Ni 9.050725623586695 3.4705890172850187 6.808585300179779 0.5439418134706955 0.2296614758890174 0.4006076973250133
Ni 7.395061825774739 2.2782960067477274 8.110248079851205 0.5684056029400146 -0.00025633898518020364 0.48902484971784166
Ni 6.615711198080883 1.7120790504060266 10.878178182083891 -0.06982601965420233 1.5069330759113597 -0.1704327721346871
Ni 8.078913779874139 2.0059976368583756 0.5417675317519046 -1.522107726769269 -0.309833357553918 -0.35774560785416454
Ni 5.2900935187384395 8.213073604614234 11.65396297544878 -1.5300683763772422 -0.8496045845866917 0.3108805678715098
Ni 5.99210307659192 5.133619078118654 11.261030553455578 -0.44140673361924626 0.17840344904498953 0.6253223707317166
Ni 8.429350840440609 4.493626886265544 3.87113543394802 0.8439260461446756 0.2047965943265376 0.4316892492211662
Ni 8.643582413415105 0.5082759020058131 11.22874098522933 -0.9181517375284703 -0.44997622045581215 -1.09997809621208
Ni 9.274059457874603 5.820483223848576 6.092104085215424 -0.08868146179780857 -0.06718781070040686 0.2565066211063195
Ni 8.47200947954451 4.181128426204369 1.1941444292559888 -0.21386924605176713 0.5606719817411828 -0.40087380650220633
Ni 7.236504187204873 0.2728379369259715 3.993602137221469 0.748860020976762 -0.891681973372716 2.1506470617763864
Ni 1.095405538309448 4.40964210404383 13.151172356210918 -0.576228184308227 2.1294552581901196 0.6166778076828412
Ni 2.978766625575022 6.063485449593102 11.760677136385292 -0.5477123362567212 0.6227723506163533 1.4666719143984677
Ni 0.7482978409532867 7.935848753086178 10.848319949843527 -0.9510358898510008 -2.649073921534418 -1.8435863818715994
Ni 5.020075406064716 7.299553768405733 6.612723404264192 0.010191852931337285 -0.48329026122690966 0.4867406816693553
Ni 1.602636087830401 0.5902853996847705 10.799385442320643 0.6548368352510658 2.0334291831017817 -0.02591954807923923
Ni 6.793195909917922 9.435572985427692 13.172185442560535 -1.726292912764053 0.45265016774354944 -0.08906301350694339
Ni 2.0633888020056386 7.073564325920199 6.667742351205236 -1.7109547397450855 -1.3646155739556498 -0.4090195755377923
Ni 4.231941565392144 6.655226272710564 2.2128657619435548 -0.9494392347878422 0.1052049133741285 -1.970287774556607
Ni 2.9911813593045555 0.8258003117159213 13.338271683451797 0.25736434112092454 0.5570855499415052 0.7014095408042824
Ni 3.9369626124156536 6.135787432500175 4.378706614485135 -0.6562990216188891 0.5914894813426717 1.6827366254396567
Ni 7.846721662411112 8.861933463417012 1.7700782841441236 -0.48461977867161055 0.585282066980379 -0.3388289734553197
P 6.990930807233672 4.079032959101324 13.196288605869439 -0.47265026501456026 -0.075175971112206 0.4309148329489869
P 0.46000201221124487 5.861480934857142 8.284891384754532 -1.1447862536657059 1.4115862862782336 -0.3995705143097506
P 6.123410233868841 7.223179227343998 1.5537391154057185 1.5758795211740861 -0.1102267920687521 -3.1014870335664972
P 0.14040754183542592 6.226603602594225 12.050026763009289 -0.6253398542332134 -0.5657841061567676 -0.4596466536660407
P 3.494254896699897 5.621584738488638 7.013346767878502 0.9920899795788335 -0.6313053277880288 -0.2617588706441944
P 1.078214463334009 3.9237502578493775 5.066029626790547 -1.1248946569481013 2.470466326898423 -0.23142011045133692
P 3.4973046234286187 8.252053804094569 3.952304145427305 0.21915440571010644 -0.5773972649156637 1.0418130578355735
P 9.317947371444543 5.87352970137923 2.22889418725226 -0.26228311857878056 0.30497371546877156 2.153694847463775
Ni 1.3902812697658884 1.5275471238820035 8.32660226262889 -0.11903899104374338 0.33027954122341185 -1.8727277793222457
Ni 0.7036911302528241 0.8592900647071029 1.4091604857828566 0.03985338455151201 0.3290374412861946 -0.4363928253444226
Ni 2.7786294819744946 8.815324255227598 2.090618638994574 0.07719737241760899 -1.0251613082115054 -1.1186041959536994
Ni 4.892343466891313 9.273543350274359 5.273167066205309 2.013718334936416 -2.0282687219467648 -0.3125957507904036
Ni 5.748321997559752 8.054778711731766 3.278247913580559 -0.4886990909473068 1.2929532724236572 2.553939247912098
Ni 1.5816445841622473 8.496407293374283 12.84841800764237 -0.2889488007954249 -0.5359654801334383 1.1131344310883797
Ni 5.981968600078015 0.20239394137978078 8.0773551349214 1.7700875413515 0.3424963950045779 -1.6028331669447944
Ni 1.3524271232315426 4.016856068933606 8.489776718277314 -1.011533947236058 -0.21606522526182145 1.8356969518211932
Ni 8.969640427700902 3.570385459623335 11.85757117725532 -2.7411700654407305 0.2740325458052248 -1.8063447239113215
Ni 7.897957071453633 7.107374065623532 4.111316897062842 0.4809994083102038 -0.3303062806962892 -0.7525109874657878
Ni 4.58271644184241 8.502534898155375 0.35276142152248346 0.3265606976109279 -0.6497301101521198 0.09015444679890926
Ni 8.288688059937426 5.743508121215646 10.183191441103565 1.289457600565573 0.003447078008335999 0.16346071169222817
Ni 2.735210757132051 3.0647783030995166 12.391594279871182 0.459243504690351 -0.5737740663407797 -2.068966713886759
Ni 1.0351147868262625 6.559549307399658 4.190316079866188 1.0450415920752 -1.3500245635153525 -0.9651160220931508
Ni 0.3601483288481744 8.387189541387853 5.261768595259531 0.16423101419934943 0.3765689112082547 0.1372665697953636
Ni 7.741266804019199 6.8608810757464385 0.22618274824126314 -1.503986591688526 -0.39499626467550686 -0.7522546484806076
Ni 4.7337107581250475 4.240734162145411 5.5951909958121 -1.793648102280259 -2.2915599700750855 0.30007293573304444
Ni 2.807278145675377 3.2169174398772427 4.009931781693226 0.32265442057798627 0.14861850447307307 1.7072500371999886
Ni 3.2555410559246813 4.597176838423825 9.962855722784353 1.1546364069869082 -0.0843676649138031 0.7741617329663442
Ni 5.6798673622181415 3.182310079337167 1.1431098329888365 0.6257520020699674 0.08851742541611853 -0.0012516130189139734
Ni 7.4737916942485025 7.620065971932533 11.558497145065248 1.9152242579235597 -1.863217011618333 0.8609444350795431
Ni 4.48653275270581 8.812537274186273 9.444090637586648 -1.560081634909881 -0.9760005302161385 0.6454201699228562
Ni 5.177019035411998 1.4695741647126461 3.3338570999407935 0.18356596708253548 0.6380138501564561 0.43722611987899535
Ni 6.334366869525416 5.581900755917059 5.22855941712739 2.3189283347857095 1.5221707187967206 -0.38322164063808195
P 8.813860386397812 9.327744032074651 13.351937274328835 1.341917875247818 -0.8394024472427092 1.686608192579921
P 1.3415137934299948 2.6808599349389595 10.369000499343832 -0.6050240254939967 1.3965926410828786 1.3470089166174801
P 0.2794309769247398 9.402917449993998 9.166606793881014 -1.611044242000677 -1.7316166389698113 -0.2435063521919096
P 3.0080440021707475 6.9037743092140875 0.16623168939678423 -0.2593122088759147 -0.5662319923274636 0.3829884415813533
P 7.583591240257025 8.293764681968929 5.8851730888407605 -0.49534924927397267 0.16003240273696953 0.2224772994357523
P 1.6717945062632538 2.776461830053465 0.6671891856311208 0.6782390162250901 -0.6761939607706031 0.24816956199553386
P 4.62545953491726 2.9660046921871412 10.7960213591445 2.1971300358292742 1.1540671647469996 1.1024260435319402
P 4.9486367304162355 1.0591654009976872 1.2738858686262327 -0.4636377771033047 0.49586861211255245 -1.632372571164808
