# total energy = -381170.76266551745 ev
CRYSTAL
PRIMVEC
9.22973585905246 0.00000000000000 0.00000000000000
0.00000000000000 9.22973585905246 0.00000000000000
0.00000000000000 0.00000000000000 13.50865138571874
PRIMCOORD
 96 1
Ni 6.068726671335349 9.157199333289723 3.7920406564811007 -0.5031126952694754 -1.9538993058962544 -0.21227130543702796
Ni 1.2705008258154133 6.971680957041783 10.052111750169955 0.5516456098728564 -0.3445072547870196 2.376783812341597
Ni 1.0766302247660156 6.726299200341031 3.1845966686998652 0.12001112514902558 1.2749866606429074 -0.16170413401243763
Ni 8.481019656856496 3.2930589862990978 4.141508913025431 0.3340636908561924 0.3096490094572538 0.36833906709929465
Ni 8.085866976888495 3.5650593011253657 0.3394050755719832 0.3057306482394541 0.9325054351469811 -0.41282480821649553
Ni 8.904830666567815 5.12228187041136 2.157466440148466 0.8467545167324062 1.2360848413713874 -1.561819186426278
Ni 9.128605611697195 -0.118644562163751 10.527818795516621 -2.5372856985158174 0.7169749993427071 -0.9538237370087832
Ni 6.591831179075205 4.234113621500029 7.334184369494806 -0.20239826929769014 -1.1574119128495164 -0.2697403461877742
Ni 0.7254867711690562 8.531672447075923 1.2954515706769625 -0.29733471086627505 -0.37091659801848376 0.47191030152474217
Ni 5.736769992575881 3.4671041147917663 0.8519406128161634 0.9033036167720443 -0.8013159247836329 1.1698827916230174
Ni 9.265916391597784 7.9045118976207185 8.295649642503907 -0.1363602559310103 -0.7458623718010187 -0.48009206600458604
Ni 3.008976947275084 0.3581940487953233 3.0007440229172615 0.1860833341877505 0.1734795293808109 -0.6147014006827607
Ni 3.1242101990771185 3.778718455788185 8.927732410075734 0.8807540136063026 1.476183967653961 0.8904370452220214
Ni 4.486823788447542 9.05357708915825 9.387850431610334 -0.9069072749629026 0.35910520720585254 0.8410050158431387
Ni 6.162583854961691 8.010663089368832 11.171938061580642 0.7516856633510152 1.0947718694207922 -0.45106559686524894
Ni 5.753881922799427 2.1817987927095954 8.064394919460199 -1.0437964068141894 -0.4665379814692352 0.2698447329761223
Ni 4.88922181103986 4.036098869064238 11.67817522709637 0.13254499594997818 -0.29579976227898735 0.23660936796176024
Ni 0.17767333764632293 6.884432264267684 5.94927727620747 -1.7173801836554552 2.89447620519746 -0.8699965179794824
Ni 3.8826268217302995 1.7168416206808184 5.993532013551515 -1.7768881092131013 -2.1225438757822674 -0.09686631160144607
Ni 4.022161967965234 6.683851645271943 9.996145401034834 0.29881258096338215 -1.220807860607659 -1.9424627819245386
Ni 0.584449023941461 3.0470311480904453 2.1538465377570555 -2.0389760810619397 -1.40725706277526 -1.2971829942342885
Ni 6.669776298135532 5.269182345836364 13.12312821275443 -1.0938614417913808 0.3692173559391899 -0.42998923581092396
Ni 4.385961235328389 7.463118241158669 2.8062328782014587 1.0569216313422376 -0.11881299107586633 -0.12351785275070339
Ni 8.007801871262414 5.919417234859457 4.181995149231248 1.238168206262977 -1.5416234282046937 1.65167589947911
P 7.343343959329674 6.0062044408421995 6.803308424188485 1.1650429470322128 3.4316740150761023 -1.053386878716102
Ni 3.905359661072583 3.4999065959214763 4.574637341054263 -0.9088168332807897 2.088145086587423 -0.37304187189160265
P 5.069072443367809 5.165449344874965 8.770140208668554 -0.18635998488790487 -0.5847385357720832 0.483085087194639
Ni 9.230751098096324 4.81806977754832 6.656509475857579 -0.34290365774532555 -1.7581247125626691 0.7390458630998175
P 9.039335606776948 0.006906611319460338 5.3492503041369375 0.09220541579066702 0.2949016759447502 0.5668197465101334
P 1.5941322828587883 1.300359021216261 1.5703269482133893 1.1073839017578475 -0.8449130926482932 0.32630307307416706
P 5.552470627579243 2.7384903091244697 5.952492916169652 2.05006961987194 0.30188813456491237 0.049975817697494575
Ni 6.430393869722431 3.585383179416762 9.74395209929364 -0.43804450201523265 0.6448954077676378 0.8598841121358288
Ni 0.9728787643329625 4.385149018575599 10.16296364637484 0.27175994772096423 -1.1162197548819228 -0.4493951511413616
Ni 2.2221142788026103 3.746303623563215 6.466659347734489 -0.47568750917898717 0.16165554016268935 0.36195064707444763
Ni 1.9501416531838238 0.5428561424099683 10.736730174069951 1.5066571965421536 0.9805164158086209 -0.28916554479192136
Ni 7.339522848697232 1.3899151479471492 4.959458254737347 -1.0829856754191414 0.21679696122152342 -0.049163606208844364
Ni 6.762442845840171 6.650144650031172 2.3704979727750386 -0.9655680220289047 -0.03172252791426149 -0.7904203609170516
Ni 1.8983720649293094 8.698832192641534 4.847822753960738 -1.6136300004499824 -0.2216766579113279 -0.43541991990819207
Ni 1.867978544850487 5.615408196184615 8.3372692902693 0.12233720217904091 0.36851955854121693 -0.8792026099587827
Ni 6.335050698627917 5.781866481827361 10.75688514819571 0.76903495326274 -0.5798878925480013 -1.037705463425103
Ni 5.756041680982981 6.308912086765413 4.697430669472321 -0.9154304819425653 2.406757732995868 0.48141078481600963
Ni 3.6240557725325426 8.24534758224591 11.539792874866249 -1.2159392196614478 2.0535804612386763 1.4623352346963268
Ni 3.9753856667932106 4.656254049026633 0.3213572501355636 -1.2675975672676878 0.6832413545356879 -0.8537738854730329
Ni 0.8791831010835952 8.021914137342135 12.325455677681191 0.5529131637313703 0.25500946773550276 -0.23180243349142016
Ni 2.7603647830348277 5.820659061508896 11.864040878262877 -0.7839355245236563 -0.22081148169755524 0.8540567068207743
Ni 4.126568739642015 4.847918743213341 6.786489999564242 1.3154617379388183 -1.4774348093419265 -0.21507380788282962
Ni 1.1091373543492566 4.811553584054349 4.587146402020807 -0.2959355165259033 0.25638089416173265 -0.3499631356952682
Ni 5.957711408806325 1.1305134225249485 11.229066434456401 0.5681775460896087 0.6539492904397899 -0.2394442663073941
Ni 8.773851485444652 1.4795081936213461 0.5170258037240913 1.9356218477433051 -1.0137880333775573 0.1586388648235526
Ni 3.029651555527912 6.490996315163533 1.4293233510083543 -1.742051204039574 -0.4345115491613098 -0.976797572196137
Ni 5.428515275420547 -0.010460982586497856 7.327322060907315 -1.3666650002855107 0.170056619742191 -1.4624007978269393
Ni 4.163810723704587 8.063023380716285 4.9310223616274635 -0.20793102619046128 0.6122094874988425 1.885492278076766
Ni 6.707830498950894 7.608809621190316 8.702867433145165 0.4957693675305268 -1.000749197915728 -0.14046965011369358
Ni 6.849516173633556 8.325434000018138 5.82033786670211 1.0478872890541115 -1.6602315023586052 0.3383612897902818
Ni 8.125047205474768 8.06842277617517 3.7272257596084852 1.0758673192068053 0.7035006190053561 -0.1838495597612253
Ni 1.3843496172433747 1.725794464433159 6.128618427117761 1.0416729327132837 -2.357983391805642 -1.1853184094517975
P 7.110136224184941 4.34536885716056 2.758480070978923 -1.636942707033994 -0.573149031162271 -1.5626046584420508
Ni 2.857230860540823 9.022795920174685 6.884508871075049 0.35729823590410076 -1.282711797201307 0.7876453692750758
P 7.607822039456811 3.819781550483199 11.62481627833242 -1.0454884498046317 0.23498443076382758 -0.5352003198326396
Ni 9.144222324716742 5.296382377318991 12.019187199675862 -0.2929054714503278 1.188228898230373 -0.07747299467649883
P 0.7660090033445991 3.198961829541249 8.110729116286102 0.4734123399915654 0.1840778737219475 0.6054778252019636
P 4.801880820907489 6.680187440148563 12.245389565327784 0.10596775968208202 -2.0179424003200923 0.6168762968468925
P 2.533174835649399 7.882988153671793 8.641605984566006 0.40741443583420156 0.03041769305990891 -0.362955177079562
Ni 2.9262231358488093 1.7436540032587047 8.20029170383207 0.5950016082609882 -0.7947503557509732 0.08210200880807796
Ni 4.40727269535329 1.6918474960608816 12.936721699068451 0.7303123398815615 -0.42037973774561793 -1.038009110708451
Ni 7.707198605107791 -0.04336499081030663 12.66598124318259 0.16529725068033466 -0.08924607605202693 -0.5853627996196435
Ni 5.298717500483262 0.13427327383987311 1.7027921168047226 -1.616784229808248 1.2576921352285177 -1.663122450753155
Ni 1.7423987591862116 2.647863533037631 4.017040387554745 1.0750635923585872 -1.396783416937446 0.6616970527060088
Ni 4.7960383981289 4.929758810792726 2.718157201097246 -0.18835516094106272 0.1394329813190631 -0.19328627969409293
Ni 9.146003663731383 0.9981313215560595 3.232363320526142 1.0852173929631375 -0.9709547402621149 0.3591797691975298
Ni 8.44573437678928 2.376638516020845 9.52519351558632 -0.03658268422004022 -0.6325420284086074 -1.0163498805674624
Ni 7.257332051156413 2.0169741703082558 2.3697282128070536 -1.30445973040136 0.6713320046926117 0.2601511598374423
Ni 1.3848203337705596 4.239180746469137 0.17729584145099228 0.43021832110259456 0.20491409374100839 -0.3265601833902957
Ni 3.0355678161931188 8.75244772806148 0.4133011095249369 0.34348446994946 0.4414612410062655 0.2287939856823995
Ni 6.218303770150229 4.241109761257013 4.661092276547228 0.502000178931587 -1.8342355367843186 0.9455386141818555
Ni 6.106254777208563 7.6164149235118925 0.16792581363926418 -2.713095418691702 0.5654879150725874 -0.0162704550252494
Ni 0.03862275254231422 2.4844972088969817 11.678958831668096 0.6718220569551526 -0.3267234484410373 0.781141763828603
Ni 1.9663675287679627 1.7672821269762224 13.014815416875596 -0.5431920797888645 -1.1632424034883644 0.3810374885025696
Ni 3.665635732433877 2.3661073874420606 1.3563493676645335 -1.5089462496866464 0.3014150515832357 2.060815802644851
Ni 8.126690098452002 6.909518686245892 0.26887512627519294 2.8942028969314157 -0.017587116954143906 0.7116921536772131
Ni 0.8052713765797352 0.8373927032054012 8.161129934717449 -0.03671509603284645 0.24328369465814234 1.2144814041689986
Ni 8.453505814355745 5.499556552082161 8.8650385064962 -0.715798976756735 0.1812352620668298 0.19951811953641768
Ni 7.501246279860647 8.945118463453348 1.5688132715377356 1.028393441995558 -0.6150256167913989 0.27735312553802555
Ni 8.608011592102326 2.4270236439012858 6.475264230446147 -1.206574490617096 1.3187293529464967 1.3642995853771278
Ni 4.914991233469278 1.7738721583568111 3.4719395733916127 0.04029998517062737 1.0355112839872618 -0.13634534353267486
Ni 2.169532473795306 4.41797918891279 2.4475376547507213 2.952448667947186 1.6564272981211667 0.4353330166213406
Ni 4.628223341319561 6.926095291791463 7.3274438934202335 -0.10807375028149131 1.5500260504460919 0.46626261632066157
Ni 7.74185626313876 0.5019019585977146 7.644626534041175 1.6648546029529134 0.10416593058665286 -2.4068508069303065
P 2.9442211207117626 6.031226254669618 4.069049025967183 1.1539658632824448 0.039265116148209794 -0.6333516687940963
Ni 2.2627712651212293 6.250035601923988 6.161552893469799 1.9058207052214724 0.8373951870046933 -0.6304110981085337
P 6.669157905835113 0.5157142582630526 9.27067708933743 -1.5812523554502251 0.4081988794087099 2.5752948307697388
Ni 3.872381814962157 2.1101575832192156 10.473216601336754 1.6968877201290582 -1.8060372199732313 -1.4364318845670034
P 8.378477291816798 7.053308740697145 10.49666751412639 -1.0573582046590242 -0.17379577506964908 0.09146416674926829
P 1.1024088769312606 6.492260788971853 0.20793302655565168 0.6157871775477717 -0.9858560828539796 1.1582182108008956
P 6.568719920564008 1.563812600666583 0.19544980884942412 -0.6005253662926948 -0.9187569752126371 -0.11927141876952363
Ni 2.6101785216553566 3.3115830661041987 11.583924856723792 -1.3626795332752015 2.1550115093926694 0.705487824638714
