# total energy = -340889.30801969144 ev
CRYSTAL
PRIMVEC
9.10828366990885 0.00000000000000 0.00000000000000
0.00000000000000 9.10828366990885 0.00000000000000
0.00000000000000 0.00000000000000 13.33089383033831
PRIMCOORD
 96 1
Ni 6.611903619442068 2.104223056849586 11.271244394545821 0.21516996714106168 0.2684457957460667 0.6650307450649321
Ni 4.968678132428941 0.5861280840160217 5.864220083354381 0.28438149313971667 0.1683512070153101 0.04210130004542426
Ni 2.916982548466694 1.635592745157815 4.7234958831372635 0.13376472728969221 1.2878480899866078 1.4908048028909293
Ni 3.684774442781081 4.561801985151277 4.752956627207681 -1.115151975739041 1.4753110781307044 -0.4418625902097423
Ni 3.8173272974593253 2.918968154343135 2.6770967662261667 -0.5911508670563302 0.011082997287038977 -0.4472999591752297
Ni 5.456745521828633 4.519903879501588 2.4128918661411465 0.06917398789250023 1.2032960769761407 0.9435750626975814
Ni 5.300665969999705 3.122474540110744 0.3782479003499388 0.3870057902708625 -0.5527547837766351 -0.32462542826142804
Ni 6.183140266104361 7.94144891939658 12.244919025880861 -1.1212789145723852 0.7566054692501356 -0.598729964955169
Ni 1.798330452471509 6.840885875101456 0.32569492426785723 1.5544501476557162 1.0429140042092362 0.8033000450931972
Ni 0.5442308891947164 -0.009066385731239218 0.4010559539058924 -0.5802902701927426 0.9226619666939981 -0.6468219353663892
Ni 8.006600473681846 -0.0707959577789864 7.203695234347868 1.4195963010669035 0.48637481368950436 -0.6119348936812171
Ni 9.030307818961301 2.839297995621868 1.195312877736744 -0.47023085693979016 -1.492180085971901 0.7987854450522953
Ni 7.4956166421485415 0.7747788588456648 4.70377918111555 -1.6367359903398264 0.1906285303562717 0.6509408426307692
Ni 1.0999618975618888 8.005161364835617 2.750350138984346 -0.38143061017593016 -1.3113266327245223 -0.6409539066213864
Ni 8.003676714570204 4.355007508918551 3.7246386686499924 -0.24887018760698432 -0.9203109499633182 -0.5137339224287475
Ni 7.860895257143134 4.182669670440776 12.380961264097019 0.09400210267977359 0.15054194674803104 -0.1451894241868661
Ni 8.243106171790503 7.217677360865876 8.913675333601555 1.3490444589902701 0.9917377384457372 0.19000529494997598
Ni 7.065168256301009 0.9215579420487459 0.505917804063227 -0.5745883347119588 1.072751913506275 -1.6971653992704772
Ni 1.9839390604996312 6.768183553515408 8.876215694665582 0.20462073087030566 0.8530233804602535 1.499859971114662
Ni 0.2210708003186654 5.202314721128978 1.104440440724487 -0.010904562727645737 -0.5445316245358944 0.09423015953017964
Ni 6.8879119445513135 2.035655896125486 7.073918584583108 0.5457431283454924 0.4414031340748204 -1.576181368685221
Ni 3.4994664081195763 4.907525114748069 0.4465272393047928 0.8214093530993983 -0.9834644426933514 -0.6907680019300362
Ni 6.197522246282809 6.050778685386691 4.547888170762046 0.87269900451231 -1.2490779111969457 0.793698260337375
Ni 5.848110261732076 3.300013208659383 8.868003665958243 -1.6342307074194695 -0.785794432109266 -0.060210350941309214
P 0.4441108116028662 6.120065400533905 12.298176072303535 0.0923357707209442 -1.8782088570414748 -0.3946535366241074
P 4.247265619411992 6.435940683997212 12.411942180739814 1.8857707285491327 -0.26109963979364065 1.1031181845029583
P 2.47763536931052 8.786269570119536 1.1665917263138823 1.3101336408576856 0.026597033762238067 0.688834275242433
P 6.88938748653289 7.968591605230508 5.738136842685479 -2.0013950374843725 0.4369589822605378 -1.228454321409323
P 4.82873845955898 1.012385748470202 12.556568976472237 1.0526124624439226 1.0838004580109526 0.7597224176125625
P 4.23898618940426 6.306930951731518 8.050113478055815 -0.8129825624882837 0.6263783228000568 -0.6063514860561687
P 4.980865016202698 1.4323140664861282 3.803477241056952 0.5567163395275444 -1.1533575402744844 -0.8726869203274519
P 0.6546360408951816 5.748902834180682 3.252098170707045 -0.22507411362865107 0.8276100825934715 1.0881870171144228
Ni 0.7287710955287715 0.36168539702094005 4.72689509466519 0.8759589062105043 -1.1258210254171126 1.2997137310759423
Ni 2.112575353128013 6.901355771494561 4.749637568577518 0.4591352612472609 -0.7738989662232607 -1.0609173827651923
Ni 6.165096755823484 5.740204423116452 8.917447984766794 -0.16554047703939231 0.0258293023582781 0.4067212664219189
Ni 9.104777147611705 2.6440710398619918 10.318258319117891 -1.2912548016753118 -0.491626806117063 -0.6601417924037469
Ni 2.4734637753132254 5.632699348989654 6.949701631272384 0.3839101820646743 -1.0815486858622987 -1.4517831702120934
Ni 0.626356641238409 -0.031327942256979394 8.906650114278163 0.8747926538165451 0.5656658354113484 0.9173639515198524
Ni 1.3975295305130493 1.1254559840213407 11.479793126245532 0.6960678168763947 0.0523214351115357 0.03849841318551434
Ni 4.393153001627442 7.393485455485506 1.4056359031278804 -1.8002424676683253 -0.1775696402897845 -0.35634795617568954
Ni 5.8857730153976116 8.10027006466041 7.693352019277097 -0.3600796553039799 -0.6565147371741209 0.5473364409745414
Ni 5.397487027185834 3.187544119841479 4.968250953916992 1.3184228774496713 -1.2687681905370214 -0.5303674172203704
Ni 0.7817922374000692 7.662771867123126 6.62104196061562 0.34084600388534847 0.31182416273170166 0.840903714378584
Ni 5.3618736373835985 4.879927014722296 6.657901363646742 -0.26577621933370355 0.11911895235205937 0.790081232410078
Ni 1.1341817199370803 7.812147722048105 11.075000043481364 -0.9041507952636881 -0.5717359528648284 0.2030628994648825
Ni 4.732600523660618 0.4276740025908165 10.461912350136535 1.0544798546699645 -0.3751437487259539 -0.23103778741125372
Ni 8.56571247700927 7.337897599228973 4.623074321350412 0.30847067287843655 0.37451280001017434 -0.4675648800718528
Ni 7.569120492712234 6.284151133855459 6.884633873198417 -1.4616595487855408 0.42339229931969663 -1.5246196945578452
Ni 2.692873224660042 5.640650880779257 2.46194908288663 -0.6765467161243316 -0.23843793653006679 0.8765782849620581
Ni 2.578181714585937 5.642937060022316 11.499522579864616 -1.2819448371282955 -1.0572489327746695 -0.9658127910498593
Ni 1.4022020801213735 3.5215722129917055 3.6372811183703915 -0.41500381814568527 0.12593700371515731 -0.1063418551920491
Ni 1.8609225789986095 1.1800419290558162 2.6749371921284406 -1.0865366259951934 1.9248347844301301 -1.8473700172837473
Ni 1.1903433980753375 3.6018070853108597 7.758167477888782 0.2064575269687283 0.7111949023258203 2.5388157620070984
Ni 3.83007889483097 2.823914104221363 7.003772047441692 0.17351809592823023 0.3871158334861655 -0.014389950173084894
Ni 4.398754596187128 7.259284001432785 5.875125431592289 -0.35408744227628697 -0.4365997991489062 -0.30744428849645117
Ni 8.15566664695637 7.188093654963661 0.42433035159429455 1.194651513927265 0.6390222368163123 -1.4767845773524373
P 0.3133522888404891 5.833773822972813 7.791360796675557 1.6458880891527399 -1.4580741454271278 0.6916213510692669
P 8.920206883940988 1.8894315074080716 8.141203603051775 -0.5351237009584333 -0.31739780016473723 -0.1918022389493987
P 2.1995958969056497 3.3126737231926584 10.551882156220556 0.062422270990963466 0.29912496999747834 -1.2790181503998037
P 4.480273736527284 6.416585580843824 3.379914717790107 -0.7606125335269998 0.0004864527181152912 0.9330319970744125
P 7.021056837678955 4.219412487438786 10.293942844586933 2.6937625226910447 -0.28332065597537015 0.3901129684412765
P 6.426969024417876 7.663509638113914 9.86263554757358 -0.8818300202793006 1.8685823896953047 1.6621660003771568
P 2.5720427312798737 8.74424394849613 5.790980373021958 1.0077616246778192 0.10870521321790312 0.038515125356062704
P 7.167891481413442 4.197415981972699 1.172304441936379 0.3349316952834426 -0.3494715407708304 0.6565872422832693
Ni 2.884894064509334 1.7667793572605257 0.2934707268813279 0.057706610682849005 -0.726897914883374 -0.5871700280317114
Ni 1.7846680267161754 1.2396738633359279 7.0680537606205345 -0.453888925246657 0.32960899751894845 -0.34343201944496987
Ni 6.834100203642974 0.6887757103726087 9.182586483945094 0.5825196737438935 0.47066280227088614 0.18494870636267502
Ni 3.1059065718114436 1.7289890876212735 9.17165472168406 -0.3291971067925104 0.4323801046406038 0.031024216295656253
Ni 6.828535042218634 2.2735915947965353 2.601110908316921 0.01459486709503938 0.039043487055706955 0.023133243583353707
Ni 4.238485233793231 7.055640991407623 10.26586838131649 0.45737919778810265 -0.0023569302679507793 -0.8973342865624869
Ni 7.940993505204736 6.626249166485168 11.106474629108117 -0.8115481440346024 -0.9261216431078244 0.740788299712221
Ni 7.798448863157423 4.149069211366493 7.768098239756142 1.3593129307958138 -0.29322325980106273 1.8555702937063527
Ni 3.3488518265927816 8.37342749692871 12.25238508614196 -0.30239926987337595 0.9156456832771649 0.8779093450686558
Ni 0.5786128390222047 4.92394735050598 10.135465081623751 -0.31595284018809455 0.9304248984688686 -0.16852861313343878
Ni 9.007072586893397 2.8066721229181324 5.914730982200233 0.19026471925894975 -1.2613371881802729 -1.3027936555528465
Ni 4.148604688890812 2.721682726436122 11.372198790937132 -1.0179123399585759 -0.46849741918845117 -0.09940424753195139
Ni 1.268665530788745 3.4954132218121607 12.41092933957715 -0.3971583053238321 0.4722589431134125 1.3259161005029227
Ni 3.5647545866623958 8.652978944450505 7.8694670630620305 -0.6475498146713492 -0.04752992726016331 0.5875022145601495
Ni 5.777940043052683 8.252533245561684 3.684499372609207 0.43005505605185285 0.7611509225289731 -0.388694233716879
Ni 3.404385033146293 8.818093913845626 3.471217976627849 0.7327407468173961 -1.7533476028889998 0.12939796568056425
Ni 3.555400379161911 4.43815703206551 9.202049975676143 -0.03337446169538768 0.14865064326258914 0.017495842791918258
Ni 5.297022656464949 4.65726590804571 11.33333920877543 -0.6757869551401716 1.4325173800039457 0.9392347834510147
Ni 7.943625799233597 8.915643633738707 2.3472903626343378 1.0027744558758729 0.3403729209036719 1.5818915316961206
Ni 4.81135074571436 0.7014271166220474 1.5290403975203537 -0.10127112553736108 0.3802641006716547 0.21419114816756016
Ni 6.085034940897231 5.989024520972584 0.44517283749824743 -0.47418572782248014 -1.1452940465400598 -0.785640423029905
Ni 8.121046060092356 0.08056368136566606 10.977284552822452 0.7314120007036436 -0.14975390362909693 1.2561116781152755
Ni 0.2536538640883681 5.2907925903205175 5.569874050396328 0.8039466775382607 -0.9422203484418998 -0.1240151041020961
Ni 7.722932081865778 6.489032870482437 2.5972043653792793 -0.7674920342556524 -0.5100068512861474 -0.5098489855520445
P 8.959554670116347 1.7372229762098212 3.4843621410328636 -0.7673557657881042 1.9566316172257532 -1.3512571503708728
P 2.0434981285090474 3.464490598185923 1.3549783609122554 0.19996034928015882 0.4803327212604825 0.4256677256174346
P 5.171064199284613 1.3690023855359132 8.075509195049829 -2.264182349393081 -1.1102974758602169 -0.041691466201515294
P 8.600068923642016 1.8039958050180536 12.579044577668144 0.4401533208281194 -0.2023504467788902 -1.54825096082354
P 6.385681173785259 8.10147235812688 1.1763020677123894 -0.19200458476819193 -0.24783300459172156 0.9189264109109659
P 2.0737649556990294 3.5320740642556383 5.881110484901508 0.3787731179484251 -0.10098059088013578 -1.4350056936434383
P 7.203650603757067 4.038849868656301 5.767851707874946 -0.10023394252209836 0.681144362797343 -1.0335814139544004
P 2.6983928446651966 8.865812212867088 10.093473160650541 -0.5655017990296584 -0.3497481914709848 -0.9669970411659475
