# total energy = -381162.2334262275 ev
CRYSTAL
PRIMVEC
9.24699328077898 0.00000000000000 0.00000000000000

0.00000000000000 9.24699328077898 0.00000000000000

0.00000000000000 0.00000000000000 13.53390936683376

PRIMCOORD
 96 1
Ni 2.684550122639457 0.21229432282609703 8.560116516225985 0.027785911864016664 -0.594225649326912 0.015102917079709472
Ni 5.337327576113628 7.401977758269254 2.514830806615109 -0.11531346256304012 0.06986484331193775 0.47023085693979016
Ni 6.531317852004216 1.1372692186554705 9.22437428383027 0.11519673447951773 -0.5406502872036172 0.4032960427904538
Ni 7.071952565455209 6.781707938051253 6.822321657562559 0.32478997886375033 -1.1496006443352138 0.23722617561015272
Ni 7.651988717588765 1.9133971118597635 4.809437068903496 0.1038064903647051 -0.34617024431173926 1.4297274759636345
Ni 8.662158012589737 1.2744761060461904 2.8432710647682313 -0.3326274726302981 0.2589008323701089 -1.8839038505437231
Ni 2.069782263467248 2.724802284710613 13.056960824186914 -0.386327019036283 -0.06731508030689053 -1.150229279058148
Ni 7.3921204633535975 6.925961034377929 1.6855807859891818 0.17561740165942014 -0.3144209769246004 -1.0838097139823335
Ni 3.551215327775448 4.985081858269263 0.11410142509639513 0.306560343229601 0.329276039659562 -2.253793292849273
Ni -0.009118460146649748 0.10627014642466036 4.683179546343572 1.6966419226668394 1.91435625349631 2.2942634850491777
Ni 0.12025160037632288 2.2726150626932515 8.991157713840792 -1.7688649817983082 -0.0017187824633196206 0.41298318817123064
Ni 4.525617252482088 4.966245732806606 2.2837521414891397 1.1113886520418668 -0.5868864353530214 -0.9229280758711912
Ni 7.893483196028988 3.3100167531225613 12.666602698533572 -2.6563360024134703 -1.2733979759995488 0.9454740794925073
Ni 8.338744420023998 4.5768086076913495 7.695746414840525 -0.9088062917578283 0.5420487102130407 1.2425755913020535
Ni 0.2885505782214543 3.0556597069265417 11.46743040756725 1.2597330769179467 -0.6486055096293734 -0.09417102415747007
Ni 0.5776263856654313 0.6289462740823175 7.110012265402066 -0.696640144440097 -1.7501283246207537 0.42019821786243117
Ni 2.963420948217657 0.6948015113527872 6.043796943680839 -1.6916568107474221 0.7353475883126239 2.289784623342218
Ni 7.192061762133877 2.1576564413129153 1.136483224220357 0.4983047323578708 -0.4718573367996196 0.2088648508586403
Ni 5.243137701806992 7.044969838847438 5.350360288547143 0.28376699948416934 0.6061635384150786 -0.12623936544692452
Ni 7.520163580330231 4.334398676909053 5.599492783497996 -0.37473031533761914 0.15456546608512736 -1.2685082520074153
Ni 2.0607849389335393 7.2884986558256015 12.974215028855529 3.1831540117196857 -0.3526306552251024 -0.1588674358945909
Ni 3.3534961158743584 7.095467669555128 1.455057865163804 -1.1637373408469118 0.3991190285946288 0.9662295668723035
Ni 4.313232309121119 8.431343811473699 13.43171464855492 -1.0971869066201878 1.7917393152933208 0.4216663177675254
Ni 5.472389161046157 8.388215834469364 11.37300473493008 -0.1432027327741405 1.6458613496798622 0.3163557320534681
P 4.793400933028513 4.954233888439404 5.6185212464224215 -0.23807052588831903 -0.1815949593990937 0.0694480674894933
Ni 8.559849278118048 0.9998496504176021 11.035170456228348 -0.558631040051754 -0.3545885502824216 0.5107439865624881
P 5.446701013507983 0.8094457349590783 5.831937229542392 0.33860785858344905 -0.46859794932205745 -1.5663677250289088
Ni 7.544686606705768 3.515632897348201 3.0708571405042915 0.002456174849976415 -0.6402036587189233 0.4723527883787994
P 3.9993431197102827 6.760449100329776 12.280993828666986 -0.5326037627500568 -1.578712876857823 -2.1295622160816294
P 0.699876261305613 2.7037653748296386 4.257767918282847 -0.3354243186491449 -0.8363747161599789 -0.6510506287357561
P 6.512296786674474 -0.17844940245011814 2.4537248251313946 1.360810598387263 1.2389408227629437 -0.3062168438472533
Ni 5.49106808762179 3.345839605377019 13.47754089822003 -0.3926663309907496 -0.9099188080957168 -2.065719924814687
Ni 7.335954225719736 2.3046004127056863 7.302125949931795 -0.5397678845986639 0.3872654716901524 0.3317898072203512
Ni 5.938659553942077 6.226777372874551 11.576838058837014 1.196592696814036 -1.783954272031263 -1.1088131780052064
Ni 1.7998347864759225 0.8634999593108234 2.880990475359651 0.12209449004061551 1.2957215791974137 1.689085193365504
Ni 4.069814456063206 2.052989723535886 9.640839445820735 -0.14667140804903125 -0.40139882576774094 0.944026291302387
Ni 3.9697897289500226 0.3057647810497711 2.113495575150908 0.620212560308977 0.4759924420139157 -0.3162739709729392
Ni 5.921275206436041 4.235622293898696 7.556685505282273 0.14114636446574402 1.2973046074138173 -0.7104953051556344
Ni 5.523145907567767 6.41718221303241 0.25400750984722775 0.13041869363559475 -0.35772298214634524 1.424911285521914
Ni 7.815854686819857 7.931127705974238 10.587739887592427 0.8925198958929791 0.6553957930783293 -0.02478929112953795
Ni 1.0239565620921949 0.224301543696622 0.8657035178271468 1.5309186401926795 0.3996327350062536 1.4989572567947345
Ni 7.290884380111005 9.249767452280443 6.9260183657367245 -0.04441580711121383 0.6757242202230362 -0.15370337519514818
Ni 8.353927983111717 5.357652467506322 13.440863623779638 0.12385389593388349 3.168726780550762 -2.2555408716679994
Ni 3.4171801591052446 0.6823125221285047 11.486256361337215 -0.8341139451502602 -0.4695490003814171 -0.2357385353210327
Ni 0.3372008596569615 6.832769835353553 8.589647714202195 1.2085339283363123 -1.11497868338597 0.4291587694898287
Ni 0.8342369241418873 4.614601069530268 5.302626384153044 -1.3272314768802367 -0.17911050241434312 -0.41590319003150306
Ni 3.1858573733547217 3.0940624703268425 6.081381348169286 -0.028244596667990066 0.7438520262392092 0.8952784324747226
Ni 9.344549134161753 4.545886661914657 9.81675332269311 -0.21645011940506595 1.5651140551274656 -0.3568138400685146
Ni 3.4553240066916255 7.69033599902894 9.742155053206174 0.5891718889530886 -0.6241327212989896 0.7903943927751226
Ni 0.4015599334027097 7.712417819158945 6.215908456885938 -0.7477894136204025 -1.4719843277503166 0.058906287417905
Ni 2.6711142412956965 5.461080088173879 6.4505314945646 0.9460965435678546 1.7911777863628957 -0.6835961667719452
Ni 3.803898668174344 3.882008021037898 8.304583252475302 -1.0214195817808862 0.6498614935236615 -0.09032593937976702
Ni 9.045603086011424 5.345095050531218 2.8175024683878758 -0.6876657088556286 -0.22059730880422007 0.29500529140215
Ni 4.494269945011099 8.713562048646146 7.158152112804418 1.60665948266942 -0.6307473984020299 1.3218928382761428
Ni 1.1623563116256161 8.580248145457576 10.179543387059354 -0.5075972134033903 -0.6473330706748529 0.6520608151678253
Ni 3.843780950511329 6.376754358087523 3.8149922861014667 -1.8099764071266375 -0.8406625449020555 0.8827314490476476
P 1.4620976012044131 7.9416415374180485 2.6669512448876027 1.0337068837886714 1.0806251456067646 -1.3263166783754512
Ni 5.521499942750706 2.869369778811335 5.391814559754352 0.6950578875546417 1.5192509740467641 -0.9065156959514388
P 2.421260480863209 7.997567353224698 6.769674825599335 0.23615788224663845 -0.7809936682865131 0.3850561227436594
Ni 4.550769074405713 6.455159614738414 7.486891048842883 -0.036236870844847266 -0.980946304257188 0.67709538953895
P 5.455448669221126 2.9881196674669237 2.3709919755907034 1.0823778666318131 -0.10625983700120412 0.8928232860660108
P 0.801697679227532 4.3426192540010025 13.541353474658541 1.7798497629445864 -0.21649331393817553 0.42684271976214233
P 7.913354984747324 7.948623017400525 8.389156253693494 -0.45943839430997646 0.8840239426068259 1.3105198205525108
Ni 6.200007327113927 0.2999290035438887 0.18984262296191934 1.0233196270170763 0.11778120737724232 0.0742863694184011
Ni 6.578634716998037 3.768954280288542 9.744360461121168 -0.35711337358680434 -2.1360506520194504 0.5616394878607747
Ni 0.14373618939817298 2.776215567760377 6.6187583458615675 0.9246399163559753 0.20854706250790536 -1.7197186019806445
Ni 0.29748687259902484 6.461586275119634 11.506367647183426 -4.020133965563831 1.4765650051424635 -1.2114971247296942
Ni 3.717716690112509 2.9301595131223332 1.1996919719928336 -1.8360185968266702 -0.664144742915553 2.1270996134737494
Ni 5.646694985774224 1.5503046708108343 11.433677032425479 0.5886317001789023 0.825905698307855 0.42176761923208006
Ni 6.863516088256516 4.58706352332124 1.0134473541450622 -1.3095327740488931 -0.15388078131327693 3.264718917077371
Ni 5.8792568686342195 7.761362154983119 9.266776371856293 -0.46381852565554316 -0.15566615534847386 -1.8052900573945618
Ni 7.289044228433504 5.810107852330957 9.638660854186467 0.6057398206140986 1.0537638024395466 -0.7185066054958851
Ni 3.6735715438392043 1.7134401275669389 4.376419788808881 1.2282501758183169 0.10603589391585609 -3.760016487177802
Ni 0.4889699121819924 8.502490178341485 12.568048243363718 -3.6777442713404467 1.5777104037352376 -2.898340573248873
Ni 2.1509431241377124 5.172731094407548 1.7854335190259758 -0.5686724834481561 0.37127141025474125 1.5241869778958008
Ni 2.4512207393310574 5.51183683469549 9.211070634491476 -1.6274931315853196 1.0911036765405853 -0.37088008835359354
Ni 2.8872627109518554 8.514696209569127 4.349365860352281 0.16901892250629602 -0.8356602065914576 -0.6615692688788928
Ni 8.6444500203163 7.929241319329966 3.214479591884207 -0.35775897759060327 -1.319994335701849 -0.6485792843771282
Ni 1.2153970655057327 3.2739719730276002 2.1326599688776415 -1.168983676847516 -2.0259089634653367 0.3216169804524074
Ni 4.17252081124913 3.9314979294699732 11.465833451814966 0.5934687165562296 -0.0758467719269855 -0.3476175182812271
Ni 2.1257543142406696 3.544733185434102 10.353954627511662 1.9718049825320816 -1.2754972817307386 -1.1699288143696045
Ni 4.92893411462211 2.0485696607125434 7.5341783234579704 -0.029585169856284534 -1.0578891374618298 0.34494408521412206
Ni 6.857191144802192 8.592315471784904 4.750875859990877 -0.10474699990110349 0.3427532482103903 -1.0987141418979915
Ni 1.95745903519288 5.3924581504918105 11.738744590176337 3.496107145849508 -3.140662161104062 0.4248999942134747
Ni 2.061450722455047 2.157166350665139 7.786857040360188 1.1319690472963795 2.355032022486802 1.076428591026914
Ni 6.500858255895237 5.542592334591806 3.5478605185865177 0.1920596063758434 0.8009842524758269 0.8527037923373056
Ni 1.512724889819064 6.445857139424015 4.086915845572601 -0.1799085728356063 -0.0977235173954188 0.8602402099236668
Ni 4.642258826652902 5.579423109121881 9.6623590487548 1.6634695496799285 -0.23482373681624716 0.8789362436712734
P 8.236629872412747 6.375829658752096 4.9761344674996675 0.34252519135998427 -0.42198230634604744 -1.0226313427008002
Ni 7.452022486302585 7.619559511895325 12.903527312858115 0.5235740484476208 0.3527715516783408 0.17757092584136516
P 1.6027166291428603 1.4169167916754295 10.297654308474163 0.4020624274936689 -0.18995541554864703 0.08164563799694971
Ni 2.9389071688354766 4.086348080180648 4.075668727555797 -0.24291088469975583 0.659637856184135 -1.202722720971174
P 3.445059844068381 1.217357428096839 0.01661962115563695 0.6554320456329035 -1.5335275385704363 0.9405617297925544
P 8.655305990514218 1.0148945086050063 13.361744499241796 -1.7757946190386062 0.7352331742219467 -0.9941116379945525
P 1.159924352373442 4.648676240040769 7.617155293623214 0.13914578909594746 -0.7136078826426872 0.8597884670982289
Ni 0.6151830491738159 6.693556350404957 0.9682609964200661 -0.8551481401127401 1.5763366633161626 1.0502231362761396
