# total energy = -340892.44855203514 ev
CRYSTAL
PRIMVEC
9.06550021280103 0.00000000000000 0.00000000000000
0.00000000000000 9.06550021280103 0.00000000000000
0.00000000000000 0.00000000000000 13.26827591624317
PRIMCOORD
 96 1
Ni 6.235405280903117 2.0037384854296056 11.192838813050873 1.0511091384255187 0.24883007839766821 -0.06292903542405291
Ni 4.629515345535103 0.041859948045148844 6.010369645102545 0.21585233792006697 1.0113110325919745 -0.6039161371417986
Ni 2.917268959606032 1.8752984759215017 4.8900759577091515 0.22831678893566484 -1.2421719281057317 -0.5647356102875951
Ni 3.451226932504628 4.501138794529721 4.944940366061992 -0.019480220211798707 -1.1623911112316627 -0.24962943437051205
Ni 4.896929476003062 4.793990719088571 2.548026596021206 0.9195681582600228 0.01793627276344653 -0.2935312779597848
Ni 7.2410956320317865 6.0879730480805385 2.599786070490892 -0.3987377339958101 0.25091678572336784 -1.1555314079973518
Ni 5.002959568550125 4.5810058529547915 11.284376796676447 0.09913016793495832 -0.4776297205070226 0.156716193879543
Ni 5.538639986522587 7.593127143128532 12.446146961448544 -0.44526878767781375 1.2746048518234563 -0.20478759546547312
Ni 1.9116783289816388 6.360853675282926 0.38943757880089075 -0.172430005070374 0.9067558369867028 -0.3582536578388346
Ni 2.8626855817652435 1.3953980818411458 0.33226328094899155 -0.45977520882410494 0.8554972959220427 0.5057784150270966
Ni 0.721171434527178 8.921975386615712 4.758348797760079 -0.12498800953832667 1.6230610639558951 0.013134223389112864
Ni 8.539075846695201 2.599069895960179 1.6792996378661622 0.5115029762156997 -0.7854805004132731 0.16024374741682726
Ni 6.954172544727193 0.7539060498809903 4.953459216777321 -0.3523671171510706 -0.5708826037255974 -0.9928042320370386
Ni 0.43811568968843406 7.427854005540852 2.3188969802450647 -0.2834522964572279 -0.4257433160503764 -0.045233932137135
Ni 7.538144883270637 3.983698163339466 3.6891111020062053 1.1183509422923126 -0.8755770973910534 0.6024876322253881
Ni 7.745989610683983 3.8349604984609043 12.691145735655228 -0.24359196992718046 -0.9088895955002542 -0.4727022012984181
Ni 7.949872714427437 8.817731197645237 6.963297877418529 0.5629620633269401 0.03459290748352107 0.3679726848988114
Ni 6.799977448614592 0.5921630181446985 0.609334888981108 -0.20589959758272927 0.15008506171627056 -1.3011070118790429
Ni 1.847929730247803 6.595940231364529 9.255285732859607 1.2860514030975012 0.1451536858529242 0.026043218141297085
Ni 0.21704530375790992 4.95874712315409 1.347791513099555 -0.6338041829504826 -0.36908597256764825 0.5018608251402453
Ni 6.567121005628627 1.94396964136644 6.964385737465181 -0.3067819723221039 -0.023490884033088574 1.3434823915214604
Ni 3.285863139913061 4.125292213911676 0.15537451771318042 0.6475302742873236 -0.4746338711034922 1.3878899711025583
Ni 5.854164727553752 5.52954728963265 4.661822069270566 0.004607931085656581 1.1755345905921561 0.7396976377512035
Ni 5.574185813546957 2.916235492561712 9.018978053875635 -1.0670299234208334 0.0688294600688879 -0.0624451538090989
P 0.10516071105977934 5.474963911791861 12.455541539501427 0.9297592398604116 1.5688164436797176 1.1877853829350513
P 3.927211030417035 6.144487377504134 12.806818800965827 -0.22109687414845794 -0.36198535696712497 -1.0599748163462648
P 2.0927888957485004 8.459825242296569 1.5232642451746403 1.886534346188035 0.6525205284130634 -0.6641285449656369
P 6.433296088889593 7.592211527589265 5.858023911069252 -0.12663171578933677 0.3500497818718036 -0.9476404910162066
P 4.853469467139296 0.8256014662556225 12.54685379216732 -0.5426418637123495 -0.36487064893472 0.8489029305339768
P 3.9654130490553148 6.090692698197169 8.305569407331362 -0.22927709596640516 0.9511711298772846 0.193606382037673
P 4.9140088787355065 1.1721329382665002 3.868485625448617 -1.266268049822987 -0.8354570894417159 0.9910103733614095
P 0.27599100038577495 5.60771909948502 3.6184446199256985 -0.460878983411245 -0.2248897655319869 -0.007446943196348466
Ni 1.775170024127529 1.3203991971248454 2.6811471233800317 -0.7704266914039442 -0.5452271079410222 -0.4913694386906182
Ni 1.7810897958813965 6.676106451302428 4.907166239042063 -0.3681647463049595 -0.5001291871611192 -0.48239474599583376
Ni 5.85809008922209 5.460504438671772 9.131426520697948 0.49119460367565076 1.4152735053218337 0.16463750560914872
Ni 8.608245614661522 2.3046133778325175 10.260637034273735 0.21173240221442247 0.9268752334443973 0.06484245039668188
Ni 2.3533676389233262 5.083724111513683 7.241002257377782 -0.9651103656661958 0.9113272584074692 -0.6510832817459045
Ni 0.6034296220278628 8.985053138320778 9.166706728560927 -0.1684694777607292 1.0221993973697039 0.2700337090584769
Ni 1.4727721276593038 1.132244736555909 11.453760232140397 -0.17341910845652067 -0.05304828597523122 -0.3253196261149752
Ni 4.082348938570068 6.899598232386793 1.7440753577940455 0.16265929883685537 1.514700121451288 -1.4216979207909386
Ni 5.685147538305511 7.917644860545357 7.922513940804166 0.5698469633722315 -0.8034108596394487 0.9012598468691381
Ni 5.494409410125775 2.8220540090227733 5.106522031891364 -0.8480948328103844 1.1547983864860691 -0.7957026923619135
Ni 0.8961074889792479 7.462447955024401 7.100544114004284 -0.08811581910232566 -0.3324896615008532 -0.06383174974398038
Ni 4.942873431973352 4.6551797771357135 6.992792482933395 0.9548712044366909 -0.9752214859582689 -0.544110992058708
Ni 8.175721525612882 7.237469431876278 9.20706905594185 0.014841950108838955 -0.06549396793775172 0.35865063616693715
Ni 4.577089556786842 0.3781165819153939 10.405937061404874 -0.07150752112168329 -1.4509653022964883 -0.26407029238619034
Ni 8.222961848138766 7.357088709506108 4.401061109537926 -1.2347578950298477 -0.7081417173217933 1.6542326044626932
Ni 7.563156598843255 6.182526217135417 7.186881220056821 -1.0351050496877785 0.27571970369966065 -1.2031976037250636
Ni 2.4210053373239444 5.558275860364665 2.620736441889341 -3.1775832025001276 -2.444204564988416 -0.7441939829596603
Ni 2.435809299458807 5.190026169072409 11.430765590404278 0.2006532615821254 0.21198179922106716 0.15557282430371916
Ni 1.284998418106696 3.401810889885439 3.7809147047931697 -1.311488355113367 1.1501408331093999 0.8998187435472375
Ni 3.793848454197829 2.847691244122217 2.572957628640364 -0.9735664668533491 -0.7633358459954337 -0.009878435455976536
Ni 1.2550006773202536 3.238885716898451 8.27489356711584 -1.302458383700615 0.41985703247292855 0.09577719230232538
Ni 3.6590716599179745 2.4324006713126294 7.040545006231245 0.8041392531650409 0.7109951276101885 0.25973181291183656
Ni 3.8543516037924848 6.690810692933015 6.072717624026315 0.9549411384426779 1.088857560818886 0.2809758098922774
Ni 0.7650257926578564 7.34165922784442 11.316327246246631 -0.43708188099164724 -0.2572157313582022 0.5834673823691435
P 0.2570848993249936 5.506792883656836 8.318691719144107 0.2770854736989357 0.20026502500477125 -2.0052018128249722
P 8.584240169632057 1.8346759686794203 8.04557720203169 -0.5339245384440096 -1.3916957180018936 0.15916285564782265
P 1.7749615176185873 3.2432552880858387 10.44827657442059 0.7742679195269052 -1.1707279132321322 0.3946136845251075
P 3.7716107817441746 6.3118546456816205 3.8582950964615996 2.0668234422915113 1.2604900096886293 1.5392880952032975
P 7.011702210194333 4.046150395517707 10.311653137711543 -0.033908222711670634 -0.7132566699508555 1.2100457369951485
P 6.4243665710066535 7.766205676550943 10.282993464782484 -0.9915518476871762 0.5313164113972011 0.2117336877660031
P 2.4524716891733678 8.64130749457937 5.967659353120929 0.5118138225878992 -0.532090056338432 -0.1337032779241375
P 6.754731536174236 3.9348260507436024 1.5464837113203986 0.0778738296593433 1.1033007328274096 0.1741644712629775
Ni 5.603703082812795 2.692752776977736 0.0269825553571372 -1.1117429500574918 1.2627494951467673 1.4107077403280222
Ni 1.4796165804528258 1.008953931268627 7.245806066033792 -0.31298347314712555 0.6012514458254419 -1.2256682740237534
Ni 6.943021979249005 0.7067083352069333 9.148807804593337 0.1356722287250502 -0.4210209708740426 0.28331757065157653
Ni 2.8930459425672366 1.6250634686902634 9.136667286472697 -0.2877599226936463 -0.6660314184153046 1.255620854521786
Ni 6.206604186167993 2.0855818229394276 2.506948094109569 0.869629878668683 0.34108048849365774 0.021763102708704456
Ni 4.140857678079195 6.805353290345132 10.482906785905694 0.1329579151176807 0.7972342985150915 -0.27838439501601736
Ni 7.623351521424693 7.266424640118012 0.18695781451761875 1.2115804284721199 -0.26198975570807786 0.8233412800147883
Ni 7.570300213149607 4.0037873122009815 8.130454762521634 1.326672004832341 -1.0409473674011687 -0.06840779915043703
Ni 3.011577360150414 8.378326393801519 12.489322313600102 0.4962877019278421 -0.783830880624992 -0.2099367437665804
Ni 9.449605640242945 4.965464658942169 10.388795106719748 -1.6577203059009773 -1.4116184250677497 -0.4184421544032729
Ni 8.62662138394956 2.3449639200629355 5.8032392791198335 0.9791570735672491 0.7881670461065007 -0.3333368399924969
Ni 3.64782137393551 2.502803347331823 11.516107304514126 0.052501412332825716 0.3726338378199066 -0.4796061275071031
Ni 1.1112943651574598 3.2104381766784886 12.649603080123686 -0.4633215314144666 0.6495254503404814 0.4567482490723231
Ni 3.3134131955945354 8.293709013172734 8.053378971666266 -0.720911615392952 0.1862746242629502 0.7448768679592978
Ni 5.4390373337511635 7.981212149271418 3.730389044926395 0.2588905479574638 -0.27296965175834925 1.0847317115759707
Ni 3.004261501336676 8.601591537376164 3.713923376570271 0.4887510272311647 -0.5541382943877231 0.20467755225017006
Ni 3.4056274655491108 4.162759927018465 9.248917218836494 0.49953191989675266 -0.14787725543167435 0.567796508601106
Ni 7.297600895954994 6.0465890388058 11.35410137326656 -0.11427396555493224 -0.5802709869190329 -0.18699864691316825
Ni 0.46309748910976956 8.81844737217595 13.349743460298955 0.3620558051937442 -0.3166663213153514 0.5781503410316043
Ni 4.4995432664612975 0.45163507041820783 1.82932369724989 -0.3204833810685965 -0.6438859926665169 -0.5265102482578095
Ni 5.906128175782187 5.355217717156589 0.13625900359341844 -0.24029478723314746 0.2696616704310388 1.0681465535237797
Ni 8.0881941193593 9.07492850917505 11.306694245533523 -0.46631815214894523 0.03953508198014482 0.37711707040224085
Ni 0.16703728396333395 4.9598893762030745 5.890159296847367 0.13335257945293807 -0.48599300487005337 -0.4704110912713963
Ni 7.688614058723454 9.048049300522345 2.75807695967914 0.3754741354821791 -0.08855624907385394 -0.42474572802379756
P 8.857302106842221 1.5868161225500397 3.7302430903701356 -0.6055410743397314 0.041059489044471216 0.009001432167661918
P 1.7377929660246274 3.301401407579414 1.6769371684648484 1.5844070990291228 -0.025678892823342875 -1.6851156671947949
P 4.898660986577318 0.9385059277474899 8.248555568836345 -0.19433811799737497 0.5288345255156117 -0.9100460777022006
P 8.57706935882454 1.6174756448648624 12.908347872569864 -0.2814203536288637 -0.012634400934558887 -1.3971986500979938
P 6.022746772783333 7.821323918914668 1.6540494996333188 1.8658819600450058 -0.24941911813191886 -1.0264592010873226
P 1.8247311147529386 3.3817580030254777 6.008658078629145 -0.0030128186843948112 -0.6186799257145345 0.27109480333313957
P 7.074489865886958 4.214832161251564 5.9223744590289025 -0.4863213347437496 -0.5505747454061808 0.4422428563672964
P 2.364046798381298 8.548068823080863 10.310286060252915 1.0047552337513275 -0.11915494779631737 -0.18013457280348333
