# total energy = -340855.8846117254 ev
CRYSTAL
PRIMVEC
9.37116748800704 0.00000000000000 0.00000000000000

0.00000000000000 9.37116748800704 0.00000000000000

0.00000000000000 0.00000000000000 13.71565087082395

PRIMCOORD
 96 1
Ni 5.722447165407492 1.9087287537376336 3.37060744522671 0.800250459633596 1.209651586880523 1.1268579513220593
Ni 9.007425568223384 1.392780388428484 10.397121905449964 0.851346764088779 1.4298015237346795 -0.3767506882017576
Ni 4.66394569044946 7.021722045198479 0.7555962929335089 1.9059240635685566 -0.23858706051342132 -0.6701960913159555
Ni 4.619020313779971 8.701166445374913 5.325334574304808 -0.08764710699602325 0.1326558104962296 -0.030855294817959764
Ni 5.772873417359625 6.001492418033145 12.194214752919217 -0.4509020747041912 2.6759782021244303 2.186345800729576
Ni 1.1345391275020944 0.4243976821979883 2.109466657067169 -0.526845520110041 -1.794087503810523 0.2447098855817076
Ni 4.162719429176141 7.628224001404015 10.5047619459253 -1.6761872543569134 1.4789319627127433 2.262181774023285
Ni 4.762249236812194 4.652241102326768 0.5083914558919038 -0.2750861838807198 -0.34852048971147076 -1.161075734854349
Ni 6.979467451247139 6.894986376846754 10.326033166426795 2.1099480413951275 2.5155297948959645 4.105915480106026
Ni 0.6921684832860807 1.933627945604724 4.43208895142815 -1.8202875592446586 -1.5479699392480115 3.0310557762281283
Ni 3.029604719123726 6.173097236049767 12.64053534420786 0.8301027671083382 -0.13620573263101704 0.5774000931291412
Ni 1.9659397309106064 1.6443774916455143 12.324951909764447 1.2022367824736906 -2.3394927892006225 -1.376530580225681
Ni 1.4768210179595602 3.2636121410707037 10.07059294744586 -0.012625916294126644 -0.37402454751984615 -0.2569807325292606
Ni 2.6672685303615653 3.3848844188095146 0.9655610477166903 1.0879067668698423 -0.28597454865844946 0.4259405196628471
Ni 7.300823524828725 3.298341687574067 5.00810556286032 -0.47978919005218656 0.619114956369424 -2.825490679166682
Ni 9.325623558380354 9.123103259005232 4.6368770733218385 0.976713497122763 -1.084540421500771 -1.9698306324145303
Ni 3.7697582652458763 0.6925695692521747 3.3472498104021993 -0.1954172099941667 1.2796177316570156 0.2646508474800087
Ni 1.168678290457236 7.333135310134606 8.353448340690086 -0.6244307121553827 0.7481419118638147 -1.9219921727750124
Ni 1.6974932686506592 2.5133002494521564 2.7977732822544814 1.35871746330366 2.0607319846817926 -2.6055387172559454
Ni 6.584350918807491 7.9893044537302735 6.901207894904925 -1.9626094320757426 0.7078295853980132 0.22505868700968334
Ni 4.719432372814926 4.436198208347125 11.162742536185592 0.6389204211311253 -0.014540616818336249 -0.808376174064524
Ni 7.408695033139631 1.479145067482721 8.336057328169595 -0.2152021059305778 -1.7558945376805695 -0.6657257142494277
Ni 7.359590115795426 6.094248233276074 8.391577746737816 1.068560758243063 -3.8050017936392404 -2.8516974194690374
Ni 8.322786817968996 1.3279225386309175 2.5886238190378923 -0.3224505320972963 0.07944940167657931 0.6768616762615891
P 4.631540193469258 8.492273752145964 7.522019623779278 -1.8601041770209643 -0.8650484299455876 0.7880567457808815
P 0.08563279087778988 1.3642826682674667 13.35653376915703 -1.1842238908360379 -0.44933678709960034 -0.21845943652561084
P 6.007471222854826 4.096980689639957 9.00156765146158 -1.09360844524031 0.3220910918753485 2.464671831703833
P 5.296743142469469 4.346019464148023 4.1631392574770985 1.711643281171678 -3.4383676250461948 1.3943714650618437
P 0.6726399074743268 5.509740407033679 11.835207202828936 -0.4598348584174468 0.16244795415699764 0.30149269889870656
P 8.669538755291574 3.608770979929824 2.7444738303676672 0.8354187800046129 0.2458450276274153 0.24972430807716345
P 8.310632413809563 7.809434266038539 8.899167030697532 1.9951963648728286 2.6931583134481425 0.24326955359075525
P 7.588471509157046 0.9545658569686069 4.700477312450017 -0.29929209170296195 1.1286901194347916 0.41229233275179317
Ni 1.1223847233426603 7.594778304838848 10.521289873925294 -1.8814736438356756 3.071564534975452 2.4952368489748835
Ni 1.3778614898765802 3.583047125328709 12.996868363113018 -2.3079944614820254 2.9630184730432325 -1.2014999043076662
Ni 3.02908930491496 2.8192688661102325 4.70205447992884 -0.709042888979824 0.2880435153723362 -1.1664976772008684
Ni 1.835193202897942 3.3990067681296896 7.067428040115062 -0.5201526814708978 -0.5759736450952597 0.7895952939125951
Ni 0.5910076679733006 7.115265038505704 5.84252461929871 -0.4419646630052453 -1.101000109718691 0.04946442527871481
Ni 8.485545253929716 6.634252385383426 1.4455747343907077 -0.3155494341020888 0.12155661525927453 1.9955833158986023
Ni 0.49695394604102533 4.175229937697995 4.798159550412002 -0.4882008111546495 0.561431999835659 -0.2178860805206441
Ni 6.045087088927276 1.4709546671470652 6.036916368043228 0.5876143146579815 0.30518634570020986 -1.2158605439047125
Ni 2.489488113007189 5.224575782074865 5.736460809185456 -0.44184947758361964 -1.233314991935734 1.021875181261066
Ni 8.8190744740056 8.604540337982527 0.17460827717860997 1.120731012488715 2.481780466359661 0.25497887160788346
Ni 7.440669456417958 2.794229106731661 0.9850268367066491 2.431784851167825 -2.490498305848633 -3.20158522184168
Ni 5.960043744480965 8.789114851725175 9.271820874802435 0.9609868304161254 0.9649643270066348 -0.4979897722206133
Ni 3.3665918999820548 4.540855406228822 3.3973808705802204 -1.3421351334649465 1.0944489388637344 -1.8916423568385616
Ni 3.897759041200935 6.451870724819888 7.249585729776972 -0.936902278663096 0.49250406651569373 0.2665665764454828
Ni 1.1538624747470854 5.151958605643519 1.9933091625127985 -0.3402507935035108 -0.8336578314494483 0.40300113725785436
Ni 5.307801120039349 5.9965725551312925 3.056710820921076 -0.4805610352212046 3.265003023976693 -1.8929091393661273
Ni 8.081975928466314 6.803692463723232 12.410812420010839 1.2402112048349352 -0.2280033714603041 -0.08036034352662288
Ni 6.610712012793989 3.7717918085786417 7.099947865337937 0.4945781754359031 -9.873036139337834e-05 -0.3426573460624744
Ni 2.8765735549575266 0.5736082214021199 8.736581961334307 -1.4410403298732923 -0.06443955853130838 -0.8955620251534125
Ni 4.278209696609346 3.773159999023729 7.172201440472917 -0.057947008828429236 0.4964121433208482 -0.335948309473415
Ni 0.9465816223164575 6.755749571140607 0.0669223179828583 0.7719516126889028 -0.5709761918806683 -0.8664766777516819
Ni 4.899949171059476 1.167731802546594 7.848355535734282 0.06847104828820466 1.295120455278305 1.5116032276935192
Ni 6.822088065392446 8.210285952946633 4.127052765929567 1.2861804724761978 0.04271707925255224 0.8506183705631868
Ni 5.3276305103256725 5.994951343165539 5.4175862207398895 0.9765304345776794 0.615307923918508 1.3602392992648253
P 7.693897142768174 6.410215885584202 6.292877623933387 1.6374726113955347 -1.9706749826926966 -2.260207938126366
P 6.650267710524885 5.880276367298927 0.6353801457642958 -0.47524810764872355 0.2985634410670535 -0.9645622064722098
P 6.420430458085192 3.275616606551224 12.791860955901416 1.2752327152154426 0.7512089808249127 -1.3653154282361517
P 2.1320717871468813 8.950120879376092 4.09609698855111 -0.07744059877666663 -0.6800688703449771 0.9177601585170065
P 5.964307625662571 8.522664448128266 11.602028192082956 0.31533423276748923 -0.15470841942089486 0.9395577140080723
P 2.731376686764564 0.10054325537900477 10.74650058100376 -1.7723894500117994 -1.6315657589927965 1.7168405091019012
P 3.50046839791704 1.9307791107053656 6.337385046535404 0.7109023107860659 -2.0330728282036277 2.982354197257367
P 4.516471628570497 2.98987096921162 1.8961610810944436 0.9735901210024329 -0.7241301223302496 0.4561129294811693
Ni 3.1228009792359637 6.900337313450484 4.557176231428568 -0.24840250394194638 1.7635124592371436 -1.7660776488611585
Ni 2.3872486763229745 5.953343359767014 10.458073852661832 1.8868940435202985 -3.168276323276905 -1.4541827807925212
Ni 0.11653327836839761 5.195871896230341 9.54144341857511 0.3678449010716955 1.424640034138398 0.6303321652414821
Ni 4.636385087031654 2.194118286714818 13.117991639289658 -1.1306968654521752 0.9854138531102384 0.10252916631417826
Ni 6.613129773991472 2.3519193751039555 10.557567537288442 -0.8941638592543052 0.6140835645931036 0.4311333767176962
Ni 7.62151424552263 5.755236880252411 3.856045163610427 1.0517976798521114 -0.5493904952900925 1.2290317911793478
Ni 8.933196550993719 4.4745918813164405 7.288250229485075 0.736385542658835 3.59331644261267 -0.27420198150355357
Ni 8.838800781450171 2.5618897525875965 6.488092161178443 0.6434931281034724 -3.6146157183110783 0.4416134503134136
Ni 3.3066539130863406 8.31646127995233 1.9586498997651753 -2.0370423543743366 -0.12686645750796213 0.31545970260175993
Ni 6.596355384288012 4.302818382286041 2.016091407656978 -1.0053208764468107 1.7420067239548835 3.304054224341884
Ni 5.351358306263751 6.456172090671222 9.171710567358794 -3.505905362886852 -2.833026839642727 -2.385002086486331
Ni 8.182200564152629 9.002814953846793 11.32314787200411 0.07302215799399682 -2.5348884019282343 -0.3952682873899709
Ni 6.084033660775084 0.9807863834436238 1.2973303625488257 -0.22025098120839487 -1.3887754590313048 -0.08778260413262302
Ni 8.665471668626044 4.881544198222831 13.660499767334866 -0.26578907484951 -1.2107461054962825 -0.24430493683380508
Ni 8.527743620876464 8.927049065158261 6.693237324551294 1.1972375294868867 0.9822290276243536 1.8573857496485366
Ni 4.64297301773642 9.27961112628874 13.469468519231501 -0.8358155012223992 -0.783524919348799 -0.5278510785564199
Ni 8.204307148124952 3.315116077277527 9.252921104325376 0.7512532037992868 1.2164459840945372 -0.6049481779507387
Ni 4.0156202139944615 2.9989610016207577 9.425834137315519 -0.14869435201633102 -0.5752979591844738 0.2825254137675844
Ni 1.7525863619839772 8.835071056812195 12.96145472138711 0.28597634843066233 -0.4321070534848752 0.012221995987488628
Ni 7.455841376490528 4.864713581514779 11.122144764636246 0.7403627821390281 -2.6291489004757174 -0.008890617621410494
Ni 1.7360556226337522 9.12514617350543 6.515647141895791 0.7106981651950599 0.7528444595458066 -0.29667368024350843
Ni 4.710829641112259 0.848462687952137 10.791130765899137 0.10998973635728154 0.3484497843745354 0.2607042041274349
Ni 7.059862696647128 1.0894731833211238 12.567911607959312 -0.6256139338302065 0.43233511033528116 1.5215472262801084
Ni 6.6679885881389875 7.988779668354076 0.1994943494112957 -0.4285337343113201 1.2348764228855829 -0.5623704524895283
P 8.540141675389133 8.508729522156733 2.540577843613514 -0.32444673659171863 -0.17692069385187595 -0.4296696476879761
P 0.7153761794316773 6.15589177264443 3.9113191204751847 0.2623245133396772 -0.2620658603616519 -0.20166704755862042
P 3.147672057600758 3.253463166741739 11.652021496099726 -0.43313575185970565 0.12054848570973434 -0.5902630651347383
P 2.0729303494828963 5.448771591720433 8.220105062181988 0.3335996067355803 -1.4454878241216846 -0.6371764418568252
P 0.6271428895914796 1.7251475837427874 8.412371430152904 -0.04253195982493966 0.2514502896293347 -0.23304479053895347
P 2.8515056820766587 0.8175884397303392 0.9208277799795592 0.4294984122174345 0.8616265487482321 -1.6907692659361464
P 5.224322760554198 8.264760549229432 2.8238326246496657 -0.09888077092831357 1.0915093966194362 -0.4905677687249293
P 2.825219557429617 6.326390792904064 1.193209195444245 -1.98292320393243 -1.5128728384345624 -0.363611065496006
