# total energy = -340873.0037031187 ev
CRYSTAL
PRIMVEC
9.19067333572126 0.00000000000000 0.00000000000000
0.00000000000000 9.19067333572126 0.00000000000000
0.00000000000000 0.00000000000000 13.45147943432532
PRIMCOORD
 96 1
Ni 3.911872337801939 3.992934078540866 1.507736429868419 -0.3025831037494079 0.45701975756615487 0.02068503915317728
Ni 6.207362536461415 5.319754856717273 10.17203621289365 0.3434325336656021 -0.4819342614196474 -1.0942717898559218
Ni 3.684109065807372 8.140106040650968 10.326943177497556 -0.8746764399536548 0.5702503694582373 -0.35300089408032753
Ni 4.161196929952235 0.10281790317398205 8.102498723538767 1.2784275680036563 -0.9346438216462226 0.407873120638175
Ni 0.4839578926258546 1.6120809039195823 5.1563290567969355 -0.5930874219574108 -0.47030901847589324 0.30143279219504865
Ni 3.284461817021488 7.676813377509409 4.789736065445014 -0.9069183307064961 1.382649034418593 -2.7229448006819554
Ni 1.325910901494643 1.4097390349730727 13.187453928589168 -1.7113319205788464 1.4979457848110846 0.6121192417778812
Ni 7.643037652201523 1.30297098030594 9.76124159615513 0.8870524450205045 0.2813874435083992 -0.8999532122425727
Ni 2.8752654584138653 3.109646015366712 12.679956882858944 -0.8237333732468846 0.5997825745893993 0.9582637750580079
Ni 8.14629136395225 8.057215355874963 10.104173198444425 -0.39592854668178906 -0.6514653476756717 0.5112792902406679
Ni 5.18068158451076 5.980895149437844 4.214887006715121 0.2742233216597923 0.03241903976065384 0.7174640231639838
Ni 5.396671603683721 2.1564628798207286 9.31662897701038 -1.0396895837346674 -0.015900987500972616 -0.7151862828734005
Ni 2.480057304954161 5.380845263825169 12.160971495187262 1.0764116217460493 0.4579245287686113 -1.0366124874712406
Ni 0.23845294440425502 7.4316613511522505 8.21111961799422 0.6124151757517452 -0.4586256686006941 0.11166069630180124
Ni 9.13148561548391 0.8456007872020401 7.689605876028061 -0.1013480015218835 -0.6421623251071908 -0.11831008329751884
Ni 5.974608728727477 5.809038744667187 0.9498919553465947 -1.6443428561528066 -0.49861917827449614 -1.0484009954657363
Ni 7.294196446817542 8.030691072000524 7.1633166600836775 -0.04248747974024941 -0.058989076939698404 1.3393794250966804
Ni 0.13504683812287033 8.44837042229772 13.375088881715902 1.1596775689552414 -0.9675459716908821 -0.796733447619273
Ni 7.235330182709513 2.0251649174401947 4.721603764260682 -0.6394870922678728 -1.1087769254506326 -0.44364950690683597
Ni 6.017032877848893 7.233363378569134 11.81378920637963 1.070308337061789 -1.2283015978815428 -1.5443146018836114
Ni 0.7885781722087751 3.468587770985622 11.572590088717687 -0.5388597709620978 0.663577043337541 0.7363618885097512
Ni 7.923757585209434 0.4452596425628925 1.1457139604744877 0.11469074137737668 1.0360262759504673 1.6337748508289736
Ni 5.3002890101316655 6.834690341179886 8.374487516671172 0.81144735679068 0.9059577665654397 0.33066829202139825
Ni 4.890697452561256 4.625886575473876 12.130934535880805 -0.07227679518754004 0.008762833794294586 1.40840403189551
P 6.017722178365381 3.6365657115168424 0.745632911896895 0.8676917811057057 -0.39950289429660873 -0.8065378353042045
P 8.326685904453798 6.912544536848758 12.054085799898647 -1.3554436776483947 0.23988855293366432 -0.33829109867397866
P 7.1749290761181035 9.01218148209026 5.169241953139134 -1.223221612255474 0.8555440899995781 1.6094930954634732
P 3.90247027875705 2.2103110361687297 11.032271309594394 0.15838638249311432 -0.42924284456320266 -1.5511923028400512
P 4.184265520570682 2.1754232393609105 7.512813160491999 0.8238387884764973 1.1004187832939243 -2.266627982720096
P 6.779353295716272 6.969591047593262 2.5400429931009665 -0.3603568202247665 0.44720431413762984 1.2095202035089814
P 4.176912981728149 6.097000928434993 6.591830468806889 1.994659775643068 0.4614186579647989 -0.904360854391965
P 4.319956624909629 6.242673104252678 10.768259102038785 0.08897559599945966 -1.0189724057919742 -0.2226202527715198
Ni 8.15125432767096 4.390623713859925 1.3499371602973302 -0.05884740915551156 0.1137800566376492 0.08379148069535892
Ni 6.654066033839509 1.0466339042345785 7.423171925991191 -0.7326492155448543 -0.8245715528774638 -0.2854783257483212
Ni 5.156142486123806 4.476960901218369 7.674001950469496 0.5827526156903061 -0.5350110866399689 1.553496011272563
Ni 1.581623011764389 4.332575419698126 4.56722158711666 0.2268952259977899 0.7984213768446572 1.2459884736383444
Ni 1.2482405192968344 9.174681781183793 9.98351344070168 -0.15747184109864493 2.157690341776413 -1.0853863144408338
Ni 6.862822992926129 3.127558638121833 6.7986472767064345 0.11748861583748799 0.792624567657222 1.9878923750122472
Ni 5.658550655907642 0.42578368623637786 10.94641111819336 -1.4861158820556921 0.2897203888541268 -0.47718877631486206
Ni 8.780420267100066 6.7502004792056285 1.7527680584020306 0.7356103550557073 0.019502845919618025 -0.6884118429930338
Ni 8.68302669945716 5.779582635929288 3.990408481448456 1.6945958387710878 -1.0561310171201423 -0.5318774261069936
Ni 2.779425114601447 2.086926243717472 9.081470889074936 0.4078569226882589 -0.872597445937439 0.4291592837104609
Ni 4.697077532816702 2.2254940288785607 3.132971025777293 0.16003420250918246 0.4047736557772449 0.47431145476706704
Ni 3.562102874389089 1.0911902896203287 0.713387433735611 -3.1552925094227273 0.03562417696151284 2.0415422991272196
Ni 4.58752470406296 1.0970723206943551 5.637084918756867 1.1097804270144822 -0.43606398125009416 0.35862004003931786
Ni 2.7065798360190505 2.102265477877707 4.79503540781577 0.3668092607183296 0.4500986049662893 -0.11721170802701748
Ni 6.123175966714411 4.357785437254462 2.8895394935092873 0.11561505296385896 -0.4180721726583639 0.35450678920189266
Ni 7.0104435915370855 2.2588653645501076 2.202128579504346 -0.0463130241339267 0.4108877390947827 0.04912786787490249
Ni 0.9325592640926784 4.770612111915585 7.83324047951901 0.38242357021681883 -0.3012690129236747 0.31490460142923826
Ni 0.328678705743044 5.4065975311211405 13.00339782374404 0.029475640861613753 0.21992496532754383 0.7331940323047308
Ni 5.106623137019346 7.872933160460424 5.743526704512862 3.0091777452081145 1.2181413695190892 2.047183299463081
Ni 6.654507186170061 3.009054093327307 11.215965301901532 -0.7494128081564383 -1.5361526348981092 -1.0746527300734139
Ni 7.17619738906844 6.631337498142528 5.405087503456355 -0.07827826418661357 -0.772197924371754 0.23442830115004143
Ni 7.4817964753847725 5.581486858164342 7.791002901070723 0.5680230227896153 -0.4020601135008237 0.0782695224358652
Ni 1.8518380049010315 6.927534525413972 0.520837308392645 0.10023882761810478 0.31695814152415736 -0.4488279657839819
Ni 0.5677630494204015 2.5692803638082995 9.241610104132661 -1.339878476220286 1.0025625969753829 1.4623367773582234
P 2.351185680391663 7.957073776839662 8.435651449167493 -0.05383735753542986 1.9679264734132815 0.15058539839145682
P 0.11954492904074474 6.192280641160669 6.32978230818959 -2.1417633861335115 -0.9007672235034357 0.18342944150467116
P 3.586467349978533 4.181012022132862 4.016046784392369 0.9839359830131312 0.1710135843388216 -1.4434759358979787
P 0.9980428131589882 3.5630954671328308 0.6603315134478924 -0.24202411121942832 -0.803817608159564 -0.6642414163944174
P 3.7098061890620246 6.07792109013862 0.5545882188819377 1.6105865856379682 -0.5964496535614244 0.19183309218733413
P 6.379218941232071 8.71448637502965 9.094290040546893 -1.2021460225320975 0.14514031611648553 -0.7920517258728875
P 1.3601461604801874 7.307274775283697 4.064229809562198 -1.3556966741994652 -0.8016730510127354 -0.5150744956170419
P 3.2240055663887603 0.725393210598112 3.0399540568804073 0.7953049427028626 -2.2159132299740483 0.2865877567624161
Ni 2.344816543619319 0.17111287928020552 6.53626273743709 -0.23306535936424377 0.6019847244470407 0.229894674945746
Ni 8.788636729256595 3.791612374358758 5.981711281249365 2.634039395798799 0.4738784809947065 0.53554896142131
Ni 4.43237694381196 8.519092655289334 12.692695156403634 -1.9096981858990079 -0.046804619058364555 0.4108368312521892
Ni 7.044908617361459 7.767470181437841 0.3313127527833814 -0.5639851052748158 -0.0736181397067829 0.1730504122631923
Ni 2.1978576735041897 6.75345397764345 6.47500414100317 -1.9785839531271279 0.07593316099320471 0.4750421622855045
Ni 3.2812542719514335 4.192031639723107 6.380628790555127 -2.3688714994730558 -1.0180360100206338 0.15583276283332514
Ni 1.5648684138769668 8.389164103268223 2.2126877443495787 0.14052415750071282 1.8046429107288664 0.6265325889897339
Ni 6.1703516940628145 -0.00815764184579041 3.050486568772336 0.12678649619964616 -0.1192343948840011 0.39241050622620155
Ni 1.8529225043803053 2.1770316072327147 2.508848927994165 -1.1322747514622562 1.0343817983685089 -1.3036806861434902
Ni 3.405980902741453 6.383069833450848 2.806408932153543 -1.46613712494092 -1.648669765662935 -0.5497555919389951
Ni 8.636236980397992 4.948782509417267 10.066024550659941 0.1218512636815579 0.017052841717228696 -0.5237378277189948
Ni 0.2746706316752175 8.429832833740983 5.87595603880779 -0.41647346071267627 -0.7830163551434967 -0.07450362763552976
Ni 7.547666032740316 0.3990084969739385 12.122755755485842 0.6210250289079434 -0.022955066134276593 0.8432120507967865
Ni 4.260823831268557 8.243243779264601 1.7360750380274146 0.01401019823616297 -0.3875758038417196 0.42361624240504464
Ni 5.212168832103908 3.492511094244514 5.341582706406043 -0.760800995388722 -0.07933447336526982 -1.4340340737587882
Ni 4.895605272238647 2.1911484818103784 12.85918420781924 3.847379230164187 0.4746446697367696 -0.026583664025799376
Ni 1.3606056941578457 4.897379072234409 2.2938138198033777 0.22162369318620542 0.51205550628506 -0.4956896633325269
Ni 3.9484420278699877 4.096972503162708 9.840053460008242 -0.5354893118279681 0.770960195309911 0.7236871212555601
Ni 3.078802114922286 5.972485683136696 8.519911544302921 0.002231460433680028 -0.8355406502944579 1.730442416156052
Ni 9.055800418773586 3.3560479733271005 3.5080387372125887 -1.5725728253983562 0.32047643909006096 -0.4467574564081983
Ni 7.965088044178023 2.566716165886966 13.215984536500264 0.6957410296645954 -0.23281904768139255 0.09101653768888841
Ni 8.443352314537691 8.159820035422511 3.746600131564771 0.6190172544492952 0.7458657142351284 -1.8565249443101381
Ni 1.07534556841467 7.346252421822676 11.141685359177485 0.39240767801272414 -2.1100097478709983 1.0893558406115433
Ni 7.384733771989783 4.724217591819202 12.242178448568328 0.2583519018451744 2.3314460076367456 1.4735365027287848
P 5.577746254028203 0.5040146995209294 0.647062018971831 2.7075505776140725 -0.5511113346359412 0.6182713774222062
P 2.1551853761968385 8.868944834764163 12.50218168432005 1.3236095638569334 -1.7729147263876497 -0.7303894729764001
P 0.04397921108661139 1.5199260202019835 11.281096848170755 -0.103136460880874 -0.6289339993423748 -0.2095513354027036
P 7.071138799682196 3.487364317054741 8.974127498243375 1.0462816351298885 1.1388750303875934 0.3243048116972157
P 1.3484280516999003 2.4408407009028 7.273685620648941 0.1431749648599986 0.30298753827667824 -1.6809162844014665
P 8.967735384787147 1.326581820664024 2.9515370200968816 -0.10024139872126607 -0.8879834414752061 -0.2462371208595114
P 1.687729337935694 4.853548750059359 10.093358532874415 -0.27381143093335425 -0.13022354690565313 -0.6825468995718246
P 7.147834970483369 4.2949855648656765 4.8505764862322645 -0.6332074299067482 1.0483685995659042 -1.238363610103235
