# total energy = -381170.97379401897 ev
CRYSTAL
PRIMVEC
9.18254457108177 0.00000000000000 0.00000000000000
0.00000000000000 9.18254457108177 0.00000000000000
0.00000000000000 0.00000000000000 13.43958216560595
PRIMCOORD
 96 1
Ni 6.891058759707149 5.929279066280085 7.391608433837401 -1.7225275321843494 -1.5047162707656987 -0.12935785647124817
Ni 5.863522866312248 5.583840931021037 4.757867395259707 0.5874628766817819 -0.3666007442519493 -1.4111962499286663
Ni 3.776174436192334 6.336478994722162 11.834613729957722 1.613517386131518 -0.2253070555750636 2.027834462622824
Ni 8.309844502037894 8.459253680878373 7.551888826913591 -0.5014067683219623 0.30380489197165095 -0.07191992606875355
Ni 5.449133005657518 5.356334212629315 2.234047840127757 -0.467521171318111 0.5254712654703337 -1.3189805497253544
Ni 0.19273425951192785 9.177117449190836 0.6005879851105067 -0.050058864329604116 -1.0916361520052875 0.4920114431499914
Ni 1.3556098373204506 1.7372731099727559 1.8982467851460785 -0.065710454823932 0.8180864593737524 -0.4123985193123542
Ni 0.7846135195771201 6.868726811889557 6.76035166890947 -1.3217959076869623 -1.8191650156044412 0.7921627975294552
Ni 2.8652935860024886 7.9009182552612325 5.782097572694766 -0.9504561060881308 -0.3232619722549981 0.07651191631481016
Ni 8.647780498576969 0.5744700742644631 11.74444757238976 1.0139230162935247 0.16844016718469054 -0.7255380584213699
Ni 5.522519899965987 1.20047993336058 5.00222591901115 1.1448554163407443 -0.1028299853840487 -1.264654939699596
Ni 3.9782730544149447 1.943898722551482 11.091324414641914 -0.17743645714602987 -0.21874637163841038 0.3847355061794471
Ni 8.132198999373774 5.310045006647209 0.6411509564466219 0.2413954764964939 0.06533070288701007 0.6886111034880334
Ni 8.274060126772614 7.401874518401574 12.492520993303003 0.5138159406195925 0.738647084999502 1.6494763207246304
Ni 3.454730289275132 2.9619857778278367 1.250628562725801 0.7173112996362033 -1.075978905084005 1.0553553152963824
Ni 8.508876150453318 1.7408359371739177 6.150852942778325 0.4645898566039289 -1.4369067673208928 0.9989820787129763
Ni 7.519677379648241 1.283251387977265 8.68359609449298 -1.3214243832801564 0.9033599239312764 -0.9852127928430258
Ni 5.800787723429933 -0.009098983179462262 1.6888315155990195 -0.8498480680560654 3.0407508920287047 0.4233218510930774
Ni 1.861944514380425 1.205557880376669 12.828376225296246 0.39622396643502084 -0.13528784880243797 -1.2149570582538365
Ni 6.415274407642705 7.469127473095672 3.147765178262033 -0.09749726031722564 -0.4565127360227493 2.156172619580306
Ni 3.6823747458318468 0.8195044332788083 6.395265643541334 -1.475928914220361 1.2101953751991352 -0.9654309822304082
Ni 9.034457440435034 4.479272673217509 11.673029415586262 0.9804626797525502 1.8144817511961588 0.5264529126573126
Ni 2.697556048673558 6.383401796263238 10.093085428941103 -1.303448515528026 0.9840439693459052 -3.4365562828690686
Ni 2.4083701799978035 6.488137896924199 2.5740021599112026 0.43834814929858057 -1.706764612923138 0.3532366642402175
P 3.5386587444777606 9.008957514822592 12.149234328181153 -0.3026774632354271 0.5666266566627209 1.1418909343957817
Ni 4.781268191237648 3.6942385931099424 12.56510808800008 -0.0024929416251828034 1.469333777501347 -0.14928107775773644
P 5.200579895654809 6.015264411413281 13.391561870830019 1.2423915003157053 -0.19426227045411706 1.0190986469571932
Ni 7.331297482658969 8.151050762889199 10.372911530178342 0.28705595464808625 0.8852855829280688 -0.8321766189182314
P 2.6341964927766064 6.588668392280696 7.568177742305707 0.8352532009610262 0.8029606594759074 1.3813634828379502
P 7.15127370101263 3.590879874098915 8.300003569276333 0.18405062002843786 -0.40357037949776303 0.08395885951115863
P 8.861889884787002 5.217301308885004 5.515161008937607 -0.4817617403975251 0.40930316821648216 -0.24297567649942023
Ni 1.0864419152903997 5.917525409533984 13.227101583573498 -0.0687430710026687 0.2311645427971051 0.17555338119070413
Ni 3.4049976291681907 1.771643373410769 8.614006182266161 -1.9457823332160746 1.4919553715556046 -1.3013070437049912
Ni 2.7160221453270035 0.14918971603092274 10.152864710802662 -2.0251947110071313 1.0380255657686832 -0.4390415758211794
Ni 1.2562730727272293 2.5985223080433224 8.395895043235853 0.3264971913628441 -0.6830842601325332 0.19272089410892615
Ni 0.6112287174834614 8.506562149281429 5.388384965368839 -1.6629468444072393 0.7920710091465971 -0.7942435913178838
Ni 3.2533570920548196 5.173546485138775 0.5766591928334245 0.6688200369040352 0.9411057752214824 0.8006214698197694
Ni 7.191493245190696 3.7404176085600542 5.9692708833586945 -0.354697307946144 0.493096448684054 -0.018908663979044855
Ni 6.7513738953152025 6.064804238089232 11.365598749575486 -0.24129263237004253 0.6124959083910096 1.6354252419482027
Ni 4.689029533413752 4.147507346470136 6.1437300431393025 -0.6901270259119275 -1.983567008164016 -0.9797959927028288
Ni 3.706001432400377 9.13279330769597 3.937555816334037 -1.8522864807487585 1.3176353485513694 -2.165808342897857
Ni 4.922458992900188 3.613524028423826 8.73908804640551 1.9918932686415243 -0.11853299794160231 -0.03949111611608683
Ni 5.685188672823161 8.993016617860693 7.0030839640595595 2.372097205499205 -0.4975498564697174 1.4423415651832192
Ni 3.536004989165555 4.192253885004317 10.37717131249437 -1.0062703848442736 0.1500855759369028 0.8553186042523334
Ni 4.49762857933896 6.264414386797629 6.364032137247437 -0.7011699139896506 1.4564805756877628 3.3967026412072405
Ni 1.0505657145817922 7.9264181808736724 9.259024826385795 -0.12274986423642731 -0.6636755165886183 -0.951140276639349
Ni 9.038589585384834 2.524630373796544 13.274852650613402 -0.20225840128571618 -0.29107330333759546 0.8231566748078082
Ni 7.523414675191726 6.948008899659743 5.492071501212552 1.2326323640464127 1.7335269686186467 -1.0277745774646365
Ni 0.2677345268596864 6.217941529928864 3.6598132344059326 1.2618005009699365 0.276320313398137 1.0292344498396144
Ni 3.0475487259217204 4.58076733572896 7.8360692906734855 -0.7520836701203822 -0.8157338999811757 0.5110203801523263
Ni 5.952033411136991 3.253825401815797 1.3356873891358088 0.02312990114924404 -0.47546742274838116 0.41324698335557863
Ni 5.217181935808676 5.860391618694733 9.680114271385804 -1.7501748615879729 -1.175232228860389 0.17310311987799865
Ni 7.581292252121943 2.174876442701037 4.026431826423228 -0.2059556476316453 -1.4827078848154078 0.025787907597381397
Ni 1.4664431474184518 8.016104091373025 11.713845825145965 -0.8094586084954253 -0.10120736217896119 -0.2608489572354153
Ni 4.622171428125967 8.302480101482914 10.438375725236392 2.186577971345041 -1.6155765826533919 -0.5794510621208988
Ni 1.8497133653290132 8.597588711253383 2.430844457252556 -1.0492674572310896 0.955980892561102 0.15491076523968805
P 0.03653183437397584 6.61138600696027 10.801808892624608 0.36379927024741215 -0.9604538407307911 -0.7648311995940377
Ni 1.934091765203954 3.5465740976927136 13.036474717985968 -0.1984642243506066 0.49554182490075305 -1.3466412488654163
P 4.734868794723547 1.656723831084631 2.9246412882804003 0.07986386350617859 0.306146395620634 -1.2008306461547835
Ni 3.3948692827690117 0.4997103895782264 1.0378249343199053 0.1534686334765228 -9.564503759983528e-05 1.3897630197555548
P 1.8928345935162723 2.789106015672487 10.831308734548458 -1.0471774074712805 -0.07217240839919183 -0.12345974581925834
P 6.113627826307217 7.404280345016792 8.772646572924495 0.6296323109609802 2.606796500922446 -1.7411235500189821
P 2.370005509774983 2.7019269397760146 6.364340670737022 0.3284234618512795 -0.7608781284835606 0.8425060258686975
Ni 3.069283808357675 2.4634470809064872 4.205339010678688 -0.35640169223176044 -0.528028998895181 0.44108226040029197
Ni 1.4341665040883378 0.4505231726046594 7.433500119338486 0.022612852303509443 -0.31885201611276054 -0.05058825447051288
Ni 1.5084073750197662 4.244640300423464 2.1570797535294597 -0.6225846600855793 -0.2276534443200531 -0.17048239442569993
Ni 0.04999803563816134 4.131382798621579 7.303310924041183 -1.30703520443802 0.556841295141183 0.3688969964852937
Ni 2.689760068534933 7.56864788857555 0.1846334189014509 -0.21187895509461574 0.4263305560124141 0.6136307933264012
Ni 1.1284245079803799 4.707945574739508 9.405865647576366 0.08515056582641464 0.24139573360681005 1.3045741444920371
Ni 5.455257762727556 2.2456003991529676 6.958746967002626 1.3779853103943365 -0.5618158655376388 1.613137634194596
Ni 4.3930761295646565 7.430560786897527 1.7309509281995599 -0.1366327928661066 -0.4364401336425903 0.38232046898005123
Ni 7.506922825569855 5.237227430087379 3.05254586654768 0.9098133928661041 -1.5533160340512733 -0.10199591951852756
Ni 5.514981031068682 8.219212789472254 12.676348184812028 0.6700317978239493 0.03174412518081629 0.04956187008852754
Ni 0.24568264664424724 0.8789751816507806 9.618157808262918 1.854155158526381 -1.4836152271210257 -0.06427449370835382
Ni 6.818479929299974 7.389074051601524 1.0328792159422098 1.7851871159970998 -2.190219938973002 -2.033980427619562
Ni 8.64587971190006 2.8701786995875866 10.22420206121603 -0.1942319314368139 -0.10664216004128729 -0.7871427186070444
Ni 0.32894444912830834 3.312924257142287 4.488148520569682 0.6665872909187746 0.6799793959549644 0.35393857540324847
Ni 3.6789312917070123 4.478336053695554 3.4274021190860133 -0.8465526851342453 1.1417528661560208 -0.051408950599595334
Ni 7.185322575398993 3.7208771542196613 12.73623490244228 -1.6313377021423903 -0.592219931750793 0.20262041261082522
Ni 3.771775997456879 8.461595229683258 8.162932975255961 -0.7749538898503363 -1.4474932845874877 0.41998764451352183
Ni 5.185667443658192 8.063458472497746 5.036093897274156 2.2363645558498644 -1.1418917057267302 0.20727462355338497
Ni 1.8458842443421974 4.64443909813323 5.6412648902612075 1.2601706786759976 1.1298625424763382 -0.39826285124192057
Ni 5.702415125991665 3.3715088899861354 3.9360498790634426 -0.427088003003729 0.31522161844902485 -0.4128163235760633
Ni 1.1079107039407001 1.0380315415673953 4.16594773199945 0.2696290174208905 0.7137444082205514 -0.4242980989634177
Ni 8.600141458577928 8.489877466228565 3.1398893099877117 -0.07764294459545983 0.9542466834788147 -0.21721450837491624
Ni 5.012053077956211 1.4797302890681459 13.282150936849185 1.4056969173769918 -0.05949738403468463 -0.9277308965764732
Ni 6.613075595117523 4.053992314983969 10.554103331463827 -0.6605835079268559 -1.7490160653931814 -1.4077442868243242
Ni 6.411922778961199 1.505202667047587 11.051247199901008 1.219898204309196 0.2861555543210039 1.5043336906152995
P 7.529025209779124 0.02203167861790676 4.919719839925687 -0.264585541459712 0.1294121067479513 0.8816086482971139
Ni 7.616140007865266 1.5127782661222227 1.7474143119340013 0.5836599579959239 0.15354088147535494 0.2691585055423752
P 7.371370106127708 0.6591065036351581 13.310642535405279 -2.3962352361979895 -0.5844287178411484 -0.048843246754948146
Ni 5.2651790950367 1.065413888768078 9.235197042096376 1.5691612286136458 -1.0972776665617814 -0.6806139442151697
P 3.934141746351068 6.4542543083358295 4.312036502809155 -1.2583752773384715 0.3731372598188864 -1.498492401343174
P 8.7884662603012 3.148464888140199 2.507234961812314 0.24869792369517815 0.8864590344108797 -1.4604562725060588
P 0.23887929954800788 7.096251895369944 1.6711854201545018 0.08872439922060205 -0.6934931141706832 -1.578450624335372
Ni 8.5924005737053 6.271393120490627 8.713284178575652 0.4113932179762916 -0.09391879893734793 1.4854152564442418
