# total energy = -381165.87982350355 ev
CRYSTAL
PRIMVEC
9.23077535992672 0.00000000000000 0.00000000000000
0.00000000000000 9.23077535992672 0.00000000000000
0.00000000000000 0.00000000000000 13.51017280033384
PRIMCOORD
 96 1
Ni 3.1962297353764675 4.280578120812787 0.2969835744508839 -0.20006653584071996 -2.1041540604211697 0.6961068976444463
Ni 7.643626424360166 1.5444102179749555 3.7030980593728415 0.9919321138447303 -0.09184880378219666 -1.118179706821771
Ni 5.713259036599788 0.2416450775393846 3.32190858494268 1.159118868238294 1.2319816178362912 0.1904207852208398
Ni 3.463866829530264 7.260530794865412 7.216796305371336 0.19524597452362505 0.8512698881042565 1.2645932332237253
Ni 6.403656400987072 8.775522532497257 10.45591406816235 -0.28701173167371213 -1.11030390361812 -0.6921381428046853
Ni 2.8193371867698755 6.031693086300537 12.698602886331601 -0.470772331265557 1.388949522715324 -1.1006434977102206
Ni 2.640093995272379 8.298882227822999 4.070209678650421 -0.9063439462602648 0.5224054820608165 0.09506319695443628
Ni 2.322389176806994 3.396842171302675 7.49351186686666 2.173550962957753 0.8041078857064733 -0.39570743180991846
Ni 8.98926113066002 0.01941878164348975 4.876645271056901 -0.2550035541982318 0.13703774161400917 -0.6607683702441522
Ni 5.518166604202033 4.1492795753467036 1.1446871932363853 0.13410771245140776 -1.3778331010871885 -0.4637578476209368
Ni 2.3003553165688375 6.834096676129711 10.269095179514682 0.20711007295106265 -0.3874881292239198 0.7426826885214564
Ni 1.7269118730937632 2.9129095542747745 3.5491896533004157 -0.57630634584433 -1.0062279616421121 0.15457780738030155
Ni 6.514785702791498 3.6082269218069842 3.4494040510547115 -1.5260638832035396 -0.525527829739882 -3.0851936957231123
Ni 2.560903175421878 5.599388194581397 8.280938524045474 -0.36724249160100625 -1.3818489071148008 -0.5731063508497937
Ni 1.3800285744386787 2.0003735863553422 5.752104907584385 0.7339481368619359 -0.9510068363852783 0.26110246800711806
Ni 1.8345980957742556 4.143879571894956 11.820117401716113 0.07291211477869379 0.17241432134109017 1.6050227183969454
Ni 8.291432992292126 2.4508815666331945 5.738864283736203 0.2939493393338099 1.2838124864646536 -2.008202547324509
Ni 3.9272517411161294 1.3007085237363412 4.625207264180833 -0.37417290017225235 -0.4354116923780759 -1.1356105007037087
Ni 1.864164268519465 1.4050255134939482 8.608033810051822 -1.5171141302094195 -0.7706454922829695 -0.5292471875729982
Ni 3.8139716687061345 0.2768097154016626 2.3045516269434776 -2.1295868986719775 -0.7318524306751718 -1.0583719906355191
Ni 8.66655323207353 4.259236568709469 10.735683170071074 -0.19621476619479755 0.4263313273433625 -0.9990059899723763
Ni 6.569154968314223 0.6451739508645454 5.548182315696132 -0.26501440146701455 -0.9995999148026333 0.8196841428781755
Ni 6.19179165017594 7.510666339370468 4.309177831401761 0.9839166997394215 -0.25412192292422686 0.6487759737689666
Ni 6.366465607983496 5.839166809389254 2.4621348045956313 0.05375713911679775 -0.011513657066554365 0.4893040715211573
P 8.647030142671056 1.4373055341277285 9.141009535351747 -0.20860774054251172 0.6209473815924725 0.6594671349342256
Ni 0.7370801634582639 2.379416905567502 11.121668955259402 -0.34602189165933317 -2.025015762227106 -2.3748680833761227
P 8.277023752312335 4.30831660008202 4.086368150517575 2.8863764589084613 0.4137465486998165 -0.329903903051548
Ni 8.065251309252517 4.348728933606381 1.6573330593873732 -0.21796989848370202 1.2935739367267913 1.2913681873247242
P 4.272058115366696 5.911037624560719 1.187418297473702 0.2791652390460999 1.2464692699295048 1.7747355816464723
P 2.2129952607272316 0.09008498066033427 6.668418108687502 1.1172086011577531 0.6024997164102462 0.5366547928909791
P 6.925453657603123 2.3749215180786107 12.344649737003536 0.44813531059233147 0.13739178251931822 0.430255344988117
Ni 6.18413010681705 6.261742464120117 10.687762524055001 1.0243390694205263 0.767241351697427 -0.5645031825618149
Ni 7.224253848599826 4.991680113819336 5.758805527252118 0.8869735121534531 -0.030903631557391936 1.7213036870795777
Ni 6.214425510797624 3.957574837422097 10.110108000965075 2.501457118852982 -1.3356644381389384 2.0143307717094343
Ni 8.602713191266202 0.6423557952169923 7.086450375898791 0.8276519915750004 0.4001878361787753 -0.09204266496055762
Ni 8.6804824717465 9.228568975936188 1.00078125509612 -2.8676961088901387 -0.38556263006643277 0.13354206975592484
Ni 4.603544481102952 3.078435813927319 8.78362530690742 -0.9709436845185214 -0.09798576991786996 -2.534421746704461
Ni 5.861357592804641 8.444110012962051 12.82558512134634 2.6787729912607476 -0.002055596977448073 -0.9904341891429652
Ni 4.991227805837907 3.3222759697929014 12.207913341907668 -0.03867401953143017 -0.2760058674815118 -0.013443269989099428
Ni 8.92724878332867 3.5216237895261355 13.312640509601122 0.8065501765993787 -1.2992411623148978 -1.581188334981509
Ni 4.856864643028268 1.1218899478948792 0.22584383666980923 0.9387804695224155 0.8876743948752196 0.7430063904094624
Ni 0.030690481156188967 2.4001861496126846 1.940249855615833 0.465725769980585 -0.5149739654834357 -0.40411879580206533
Ni 2.486955435845895 7.043062963549647 1.7497968107990158 0.007955250291334686 0.19060898997224593 -0.7176085191616479
Ni 7.733155712357602 6.593090368229404 0.455833214451037 0.7067432943123699 0.34450494079417443 -0.3461789860624877
Ni 1.3393762407609069 7.815328072575478 8.246541886674112 -0.17951725093445856 0.33408297412990207 -1.0794756053833539
Ni 3.1960358890987126 5.967529968363618 5.372738511242634 0.14980661124390326 -0.8798189033865428 1.551328057086967
Ni 0.7834131161517718 8.470620799138837 10.332066604382165 -0.9258056545293024 2.3241733852347326 1.635106168045887
Ni 4.377335105737947 8.542694691363188 5.706196570546912 0.6217050856941035 0.8100360782654502 -1.1208045460391278
Ni 6.085711582368275 1.6497425929969936 9.504879306403252 1.653900417934255 -0.6449967092321924 0.6416781863819206
Ni 6.084391581524515 7.852408096277479 1.6021441010329993 -0.8583360509224185 1.4228960548640979 -0.14724476405399803
Ni 8.386482283818017 0.5039117067218534 11.661156992414385 -1.756207698045614 0.07442572320974279 -0.6840016297404801
Ni 1.6900995418705675 5.889779149433583 3.7262543818669513 -0.4109265627525181 0.9934989441112181 -1.1332728537094676
Ni 3.3482144479115528 4.352015089553086 2.8811113801028427 1.452390464778789 1.0486959009983359 -0.28021990556285936
Ni 0.29742665165718113 7.190986135027008 2.3544042741945095 -0.4764534408107343 -0.18997906969773087 -1.2429154911399753
Ni 3.1024635215938137 2.6841617157486923 10.287091498710456 -0.8416827586364537 -0.25525449386677335 0.7724974578900438
Ni 3.0243434716585313 1.8477334887859422 12.599262207447222 -1.6419075072384368 0.33889042282087445 -0.30256279203443376
P 7.654463354364186 5.071397087852314 8.525607603517837 0.1652640834495541 -0.8593269540807781 0.5060954320468832
Ni 5.911222240063343 0.009583390741204097 7.805772374159667 0.0765247718306166 0.022232843256271388 0.05408546899049394
P 7.827134233968273 8.44456232094348 2.8772879930435025 -0.5616595424654327 0.5780847779009914 0.9115697134355785
Ni 4.000959480538702 4.884344660593828 10.537070120038281 -1.0006615232979283 0.7551620519353897 1.0575741773245722
P 7.689651069164292 7.5686356071943575 11.845219571607876 0.1365345767253455 -0.028883772913885743 0.014705167420658544
P 0.6799887423493511 5.3268495588329365 0.5244631044739405 -0.024540922564157734 1.0394155041376743 0.2305590480026223
P 2.390179989370472 0.5560286631125665 10.636356337349389 1.0993697732041197 0.8988970030639164 1.142319280182452
Ni 3.9609533011201137 1.587970245819053 6.926340735093231 -0.12513636219073285 -0.474723345493505 0.48066182246512706
Ni 1.1581115095096788 7.699998768086358 5.860996669497012 0.16766575091251124 -1.4853486648723644 -0.34913704024954706
Ni 4.683113762733831 0.9343205972290468 11.253527808775948 -0.2825647516459521 -0.2499230543515309 -0.016236259353204295
Ni 4.119141094543361 6.694019663513863 3.477342838144292 0.29131241593159507 0.8662162250014436 -2.527696255055169
Ni 7.951906621416603 7.585998695216131 6.153735010465059 -0.49593571790506197 2.1004629847228276 3.2809194380966336
Ni 2.899903392114924 2.416626160121339 1.4960621870703084 -1.1128284698121866 -1.44868987599875 -0.34331246314797004
Ni 3.664497727006734 9.071738106457225 8.949124797312082 0.16896801466370254 0.1745899888361703 0.4115595683508267
Ni 5.419305002546961 5.300024926301691 4.558386606083644 -1.2753527857330746 -0.8611488377808653 1.391312623630862
Ni 7.149770724066233 4.810461536443763 12.53638585956359 -0.3559818310855224 -0.9066951589520965 -0.394294867733108
Ni 7.21693384392079 2.867761833108112 7.698028920673362 -1.7669291982281765 0.18610518856462144 1.0658163627287065
Ni 4.265088880142645 7.630703339176496 11.262363506731525 -0.42566541162458954 0.19267230025917786 -0.6527239026731211
Ni 5.960071502057613 2.8975218521310766 5.397881296544976 -1.431922169622108 -0.5386489405028723 2.399467884202674
Ni 0.9784437023561471 4.409273587691873 5.164169147153339 -0.8303007420517571 -0.6109475900672834 1.6618993769793313
Ni 3.902060955783105 8.154955981977446 0.14434255380397093 -0.3455999736305661 -0.2511024193716127 1.390916673744024
Ni 1.9285027711838771 7.986586643584493 12.599668361552993 -1.5380246551098415 1.6720061263960302 -2.56077298300448
Ni 5.900302233083142 7.057758357558506 6.750600622758022 -1.1589442903336427 -1.3274731605773977 0.4958413584190428
Ni 5.101452491679477 5.795329858291221 12.76776169976952 0.2543543506500071 0.7528912536233421 -0.14355240280407536
Ni 0.15414286776075803 6.236708601964323 12.006246751461479 0.8439910950546561 -0.2098236152274838 1.1346368239365296
Ni 8.098694407552827 8.578990099179038 8.78193607505841 -0.17442800933700928 -0.9443397087777479 0.9188184245781919
Ni -0.11712745948467594 5.743794440733772 6.9861912348888575 0.8043562542718535 0.4931902939494409 0.9897633883281858
Ni 3.6389654029938554 3.458928364835076 5.177300847854974 -1.1187607761362217 1.1491116205139373 0.37093690973345794
Ni 0.6440441039884873 1.3532593265582205 13.065673890198603 1.0104985639930082 0.8964251444846563 1.3741926761211238
Ni 6.896985947098526 2.0616936255518543 1.4944551091199676 -0.34596481316915256 -0.07923240056976677 -0.9004381222987912
Ni 0.14142009039743536 3.396223709368885 7.586759311086941 0.10234481821751407 0.10040517799264 0.7536355879885343
Ni 5.28592953267636 5.23569565441241 8.642660293723951 0.5027195735961149 2.9712262056650056 -1.800653844174131
P 1.5073855789237423 4.85842464402544 9.946310665494604 -0.6970795459703607 -0.32455498003480876 -0.8928271427207526
Ni 0.87636979095542 0.4446925919452008 2.8967833901205813 1.2518457037500699 -0.09503800014345568 -0.3007324236939143
P 1.4715978637401088 9.08028580422871 0.7320558525543558 2.182887152757015 -0.1647956284535678 2.586475787087223
Ni 9.005331910163427 6.583804208447425 9.748845923888132 -1.178681877971886 -2.125048901592308 -1.3803173009616228
P 5.04435091671792 7.422300129039562 8.874697057429277 0.8118785307908276 0.3290024742832012 0.5129278815876844
P 4.547864445511598 2.4157492364838755 2.81930303290189 0.7931971523312403 -0.20433919507414486 -0.010695274930317064
P 4.628559881708482 4.4430213015715125 6.850806225272196 -0.8048151961861431 -0.7169472314285652 -1.920299358453622
Ni 8.544854692743886 6.742481232952624 4.379646491830798 0.7465434570284434 -2.26407950526663 -2.056466010316587
