# total energy = -340867.9507442405 ev
CRYSTAL
PRIMVEC
9.26517885445562 0.00000000000000 0.00000000000000

0.00000000000000 9.26517885445562 0.00000000000000

0.00000000000000 0.00000000000000 13.56052579212759

PRIMCOORD
 96 1
Ni 6.504350267628163 6.0215325217254465 2.908353604142728 0.45709072001340634 0.3023149376896858 -0.12098763012968197
Ni 9.031353734324231 6.757206269305947 2.017860567535241 -0.22943470459019197 0.308941698977584 -0.5850876915813858
Ni 4.908979085593875 4.533201953350732 4.623705148909296 0.3650642530027648 -0.7331495522200405 -1.4960717077168233
Ni 0.2854425629434379 0.5322057828725396 2.060712020679492 -0.0933608695513489 -0.29120648648135006 0.3164074112270099
Ni 3.7037831240591967 2.7161150364533238 8.027452126490457 -0.3010769515175266 1.1198385825814328 -0.5563342735977773
Ni 6.09974916333491 4.461582119230719 11.954430634508372 -1.214365961637057 0.4278027696825665 -0.5727919049331683
Ni 8.237151850632976 8.411022200839467 12.390334146249808 0.3626602715469625 1.2737910976729094 -1.0241680910603008
Ni 6.177104143291959 7.145945387051535 5.268088160711286 -1.4698562256637202 2.2348018393484352 -1.225154567612129
Ni 0.9441217460322552 4.932966634175597 4.298741038175129 1.4291721176807968 -0.3652408877899452 0.06506947880582342
Ni 5.468169702473469 6.788754203999175 0.14024794192212808 1.1975897706199825 0.9173438969151944 0.5062131885716702
Ni 1.6281699159003749 4.889929877450181 10.221531767123446 -2.4717009706364723 0.7206375357959588 0.48383842042089575
Ni 6.073185894975003 3.7718543945999126 1.8870417983406598 -0.3477802691113365 -0.4587565377516035 1.1476422350572622
Ni 8.827769954878042 4.4695409080417265 6.146390074713971 -1.2999417879263484 -0.5477017947337599 0.36532007776731273
Ni 3.9334947084495564 6.152671866115441 6.0968667661298985 -0.3288564356236401 1.3945894946099209 -1.57677117975042
Ni 0.90212268936136 2.132306838816048 5.36070659664884 0.21697513867060053 1.000311339047361 -1.2185404047297208
Ni 8.118752127448028 1.7655632561546666 6.624425135186836 -0.19366063231437614 0.8099941692839211 -0.0950994495090104
Ni 4.163076580333102 1.8041064010368468 5.910273472040666 0.4282167172915335 0.04894506244013506 -0.7590004518448734
Ni 0.6809183923822542 9.005262990096293 5.467929734335862 0.001814941721551713 2.2523362486877727 0.728115589340559
Ni 6.820014918141598 2.5733478923452666 4.884067798660047 -0.8503769439763419 0.787499844836147 -0.9258462779592506
Ni 6.037348182377822 8.691006646799709 10.738431474191813 1.3223273547104 0.31704247370784755 0.6264305161942308
Ni 4.500180855187248 1.032001969399438 1.9229230572794145 -0.586937600305931 -0.5221743398866169 1.28063820250173
Ni 1.388285164904093 4.015000488624686 7.992031346950896 0.4577262967148762 -0.9516406133145353 -0.6336293479355152
Ni 0.10610112450307137 2.299904662800125 9.727046381232718 -0.10522059710341235 -0.30240441207969854 -0.9985077101797191
Ni 0.4091234381915691 0.4183682338558575 7.8284648023750485 -0.29697115687926917 -0.6429868778910152 -0.6612962177231643
P 4.698742907583886 4.902104322732678 13.714573760913982 -0.34700071063283466 -0.6561550398418571 -0.9029758011189803
P 4.9179292485641115 2.631829702560729 11.50310986481406 0.2539352608347175 0.32989413285953506 -1.1026769832004815
P 7.673282318328981 8.823165160886107 6.878020498153467 0.45186623838967344 -1.3613081068489716 -1.6481663436639549
P 5.678202046544178 8.041925262697298 2.431036595046874 0.5055704127813487 1.7626951055421707 -1.349400042557476
P 5.80478292283753 1.9126572388829108 7.480610140259653 -1.2393285451196656 -1.0364685056942085 0.18289850870186564
P 6.923766393235504 0.923588256203436 13.23111393810253 1.892698566017218 0.41582965648109027 -0.2603838446735387
P 1.0224125090741842 3.121503680966526 11.452840709315803 0.19627030202308135 -0.023022171926786156 1.9445597736628835
P 8.73406193388324 2.109579354586243 3.6741706852712306 0.006970260670246059 -1.3110504962450003 -0.2692675203164137
Ni 3.0838963191692255 4.165763482259984 12.214317980573437 0.2117336877660031 -0.310277129959556 0.18184718461921587
Ni 4.594806128908813 7.642716492615926 9.398773675056862 -1.552133583707398 -0.8082183083304211 -1.162898132775068
Ni 1.0581019788064339 4.7741707302968255 1.9444303174272524 -0.49417091269515545 -1.1748465633861962 0.22171239624526978
Ni 1.453308191534656 9.2505308101254 13.292475365969285 0.13587123210973373 -0.20879594529391782 2.0175487644260994
Ni 7.455717383683943 8.413820284915047 0.9125191467825847 -1.4769588981467725 0.4002014630255301 1.9523468738074699
Ni 6.295605783446546 5.590006807089015 9.435427649929073 -0.029755891106193918 0.7046133924535607 0.2944972414174799
Ni 7.813529333733205 -0.10288425433405864 4.591810696519292 -0.5486119652528552 0.4960671012766037 0.01958409277951466
Ni 2.8605128520756273 2.420880105763257 10.124885757849285 -0.6561175017357023 0.791570929581727 1.3692456165284934
Ni 5.071870198616378 9.078541291267728 12.874119176846204 1.6945837545862301 1.1068671100224292 -0.11842758271198958
Ni 3.77550487514885 3.561729398738622 1.4415923726155413 -2.165192306580413 -0.3453451773072827 1.1584403541140307
Ni 3.756779948272194 8.32679245802122 0.7989048885812057 -1.826176156814952 -0.8741835594776365 1.7179856784499379
Ni 1.8645802247498258 7.2037323088376315 5.0833803305604 2.155755329537229 -0.6208352814946405 -2.3277611025859914
Ni 1.55048138949723 2.8295300933049514 0.22575164686087848 -0.3965980619449879 0.5302193216782805 -0.6933465612904898
Ni 2.77384636716507 0.8061743480702822 3.9168498142714707 -0.05761070853493304 -0.7237971644708632 0.23784504014107424
Ni 2.3714689058457887 7.33786430606343 7.51552874709426 0.14823078211635118 0.6031895433884192 0.8547984700828052
Ni 4.275444671951151 6.845929623967429 3.459330639787214 0.1824976737190212 0.37425080459803933 1.8253310352058372
Ni 8.651296089356192 2.5261325398645957 1.267792437769894 -0.40041357903633623 0.06204868970162862 0.12647719248934347
Ni 7.9952009647067115 6.20463099027392 13.319704800703477 -0.6851146602990007 1.6662622819337176 -2.534885830825073
Ni 4.639621800013406 1.0289537254892849 9.36910286564083 1.2795159159718286 -0.7419797489171608 1.2317245075201626
Ni 7.360489873323595 7.750683624181322 8.870658468738526 0.7557690893917693 -0.7200055586389148 0.36956496908659575
Ni 6.219195851753435 3.9022339943071342 7.029410744411006 0.276132365757047 1.2396779580392845 -0.8293363212559589
Ni 1.7045149913400783 2.609213400479623 2.6789496236971004 -1.0226298000389034 0.6689401074216672 1.630405163025792
Ni 5.35819202705244 2.2704784541112297 0.307904136534272 1.3245536729377574 0.09689639350843313 -2.5939805801047
Ni 2.2891848506297685 7.112007036161288 2.3185925289605476 -1.858184077180116 1.2807222775751042 0.48410170138461145
P 2.8510160435409553 5.267643432116491 3.2536445912127148 -0.1217767016898806 -1.746415394545541 -0.22979003104708165
P 8.37557362576273 3.5735795627540807 8.135787085664465 -0.27835611288124323 0.5120699044627632 0.4675990757438979
P 3.736396554344118 8.802262916930772 11.288093780927937 -0.2866049831535967 0.1875864010958382 -1.1329152132597327
P 4.44506230496992 2.328052276778987 3.775738357661117 0.8161339636330719 0.5511090206430961 -0.2088784777053951
P 7.5486934555331455 5.028796381174729 1.2326245976186219 0.6040866012813918 -1.6787293040524767 1.230823592972448
P 4.789578723070639 5.640918966013914 7.819420134578418 1.264565208199267 -0.7393585092442299 2.5276404621165693
P 7.333889544247455 6.905847536936914 11.104877644605423 -0.8336593741113448 -0.925185247336484 -0.7481421689741309
P 1.4306085028420257 5.6047106462544045 6.421464902291265 1.654152643154377 -2.5239871816346984 0.31224325254699126
Ni 3.2949848936525705 1.655437337868706 12.563515167134367 0.5461887005233431 -0.5194852230902279 0.39139877713223564
Ni 9.084220846030414 1.4762024489875087 12.504337541971633 -1.201929278535601 0.5045504561572666 -0.1572666670663743
Ni 2.199349674481302 0.08100082791645723 9.185913598337587 1.5859800999431977 -1.152272791850738 -2.0264944036551613
Ni 7.096219171046087 1.9191891901189533 10.617186414518088 -0.42062887764194656 -0.0955229101996742 2.4910274388792257
Ni 5.369078612445844 0.2695157201423638 4.377256018550268 0.13234162168992047 -0.3619131089682928 -1.0954382993601974
Ni 8.447425089359198 6.646570766171785 4.387291133988223 0.9084679345818032 0.2972974298704364 0.46654389500650617
Ni 3.091957024949874 3.95196947549164 5.929191114641732 -1.8280767162717741 0.017873023625678896 0.057543859852739604
Ni 7.050773467765536 6.224328760951687 7.06780008732082 0.32647507987565705 -0.7021561891623197 1.1123559010511423
Ni 1.678822649811644 0.6667102402964793 11.140094590205706 -1.4094245027402243 -0.2445941859394497 1.1963960074221975
Ni 2.1418499732460106 7.342478365234422 12.018870881376174 4.702165616062135 0.1439414107123779 -0.3450158189923219
Ni 8.36695700923859 4.07607654897645 3.0204307691383487 -1.4966427497289452 1.37346171149237 1.2348149735200282
Ni 2.423261256781219 5.633636535274157 0.5709861163386103 2.4664073263377007 0.7890239947901573 -2.338505742697005
Ni 3.699057882739506 4.643531705575973 9.903346987906177 3.263967383623327 0.36688613670285203 -2.1556401441156035
Ni 0.3574376368153087 7.152866475808023 10.914989652843092 -2.4735171979096044 0.009512053255493296 -2.729641753086157
Ni 5.769445529909493 3.3353996047045107 9.349752539177747 -0.35443556964432504 -0.3469017231611251 0.44969802709376105
Ni 6.837433454771045 1.4165995521060026 2.639922836468081 0.17515331753880803 -0.6408744595337027 -0.25089030336080664
Ni 9.105762387340768 5.77715415888593 8.62309751689251 -0.3770131978345249 -0.30460553349607544 -0.025313281953808015
Ni 8.324207473063979 4.982572402853287 10.742038408399177 -0.5262629081336937 -0.8930264032157523 0.01681707155733878
Ni 4.217250082286493 6.215730674785663 11.528860576970562 0.5152842976350028 0.7562311166298525 0.5391909290492714
Ni 0.1229378078876623 7.129064230807464 6.688444742925395 -2.6413230739444056 1.328751255958873 0.8802575335858582
Ni 0.6203269008952361 5.170071831454414 12.52621077669227 1.645081019870412 -1.2303705645954295 -0.09876712816858473
Ni 7.298190809336147 0.7990661026968187 8.65401541940978 -1.5557758084456756 0.6959857986855498 -0.22475118307159356
Ni 7.9884651795313895 3.6110386816864497 12.93907456766964 0.11885978515340175 0.5279127850322908 -0.13128695517316097
Ni 3.904791183727202 9.299274917150676 7.411438166446821 -0.10510746856431577 -0.6455111869747656 -0.8992489870866964
P 0.7560200807923451 7.151087561428845 -0.10933930458391802 -1.60803090909565 0.28691480108453166 2.5462490783566922
P 2.3720989380217476 1.144110636003857 1.4001649774925382 0.8164545801972841 -1.2559880080532175 -1.1936348997372928
P 8.882554958649274 0.0074519835165234825 9.782319659940319 1.190660390490001 -0.43890402180205057 2.637623770715948
P 0.6511521516219222 8.250956967429719 3.491997808110673 -0.4174175697935005 -0.685745094794148 -0.34405371218936875
P 1.866173835547839 1.8391843689512541 7.185099107233651 1.7031211026332795 0.2826799370675777 0.754934509305616
P 3.804884757942454 8.347852210020546 5.217819005213026 -0.1892740732109063 -0.09030305656163157 1.334511812591734
P 2.235734032642918 6.980904752487525 9.632028263919084 0.08973072899792933 -0.3756739101978111 0.38140361359273667
P 6.955379184182139 5.192484299596239 4.99785438919191 0.43492626810122514 -1.7488507434599108 0.20880494415498232
