# total energy = -381175.03159558174 ev
CRYSTAL
PRIMVEC
9.15661549407968 0.00000000000000 0.00000000000000
0.00000000000000 9.15661549407968 0.00000000000000
0.00000000000000 0.00000000000000 13.40163234046524
PRIMCOORD
 96 1
Ni 8.943623670052027 6.1624573112029255 7.693421481708958 -1.040163952267925 1.7004965205262392 -0.5437235268123023
Ni 8.455667618970752 8.327484155673947 6.154350959316601 -0.29735759368441045 -0.08353025661417228 0.5126054652512592
Ni 5.065732821388542 2.4554105984199888 12.669207035674313 0.06539472335572609 0.816649984037542 1.4900751238137564
Ni 1.7728764635429357 7.713075241664687 9.521739422040913 0.8121181576054595 0.23291212161583114 -0.8353298198352325
Ni 2.1831935700357668 2.25192312754029 5.626206521892754 -1.734707104969677 -0.8656626664908188 0.8126760869914585
Ni 8.548195220700464 7.583316840466099 9.677681165856633 -1.0153741469177546 1.0525258162673874 -0.36005137316920577
Ni 4.8441701911011785 5.768026932963538 10.684813664937302 1.1517143482441068 0.5164472075948525 1.9420866295320425
Ni 2.7854882814632944 0.1259822128805933 4.447184201417678 1.1937922512507635 -0.536952783747372 0.9927237565080903
Ni 6.1955218505246465 3.635469447793214 10.414275044212362 0.015492439208644286 0.36417465130895993 0.1446518065158412
Ni 1.1686130797381797 7.548448447849895 4.907182357757604 0.7644046535795803 -0.7601836735196973 0.021436058386588887
Ni 6.29992558282768 2.3899499527232346 7.737111357898284 0.46615591553946817 1.2483947690869919 -0.039433009184641765
Ni 5.622601562288501 4.2985549309063975 6.005084388352041 -0.5832971753398664 1.141717384932395 1.258956346652922
Ni 2.7025293431484823 5.8052119493538745 8.662145640540697 0.4963162411729323 -0.4465713085393212 -0.014168578190898177
Ni 0.04653758367452556 2.4492298828170638 0.12550149055592139 1.616330944320913 1.1222860156806607 0.004915692134062502
Ni 3.5592680918709334 0.2596303444319549 13.125371317017285 0.7557991712987564 0.5627604888390954 1.6385154508377524
Ni 0.8974692067149395 8.97695375122928 13.46689843234192 0.4732339054321721 -0.0990581770464423 -0.36148579162288713
Ni 5.238325870869325 0.46009246948171845 8.500882987337038 0.5367077576161015 -1.7471738699781199 1.0772873394827833
Ni 0.4960633186291697 0.49195474516097365 9.045981814405886 -1.1563906706738536 0.7134585015490165 0.7123069044430764
Ni 8.169532534710315 4.104050100036282 6.41120684918902 0.00029156309848982047 -0.8919072020096446 -0.8795515086577691
Ni 0.42473877623298883 5.442033100526016 3.181359911015127 0.5393732202634065 -0.29886554568850465 -0.4417594889729746
Ni 6.414886893042081 6.89451958044475 4.03643764964814 -0.7674868920493298 2.326342367861594 -0.1962800722150942
Ni 0.9313102270487014 4.282018082937683 7.876380735832809 0.11259812051440607 -1.3508084928692285 0.13255708013483625
Ni 0.5180291240511788 0.9111153111046265 2.1319183533939032 0.6666878210523808 -0.38864049766080805 -1.5528910306987127
Ni 0.3693247692910926 6.955786496147223 11.835518235673703 1.657618233105474 0.0029074034547820894 0.7873597197138569
P 1.5001191948319392 2.128024960394846 7.8093991762669495 0.37767191446444637 0.1368467086491256 0.917077530627685
Ni 5.550328394504967 2.4778626201360945 3.0602764875383333 -1.4751917789440208 1.1831584256860013 1.641366290022986
P 4.652522224331971 2.6409236326648116 9.128817138408639 -1.169662190971779 0.5621053717535998 -0.8258421920597713
Ni 6.238484691426755 4.478491586185026 12.969697862041812 -0.31294156416559654 1.940808019929935 -1.5627699803753214
P 5.989452214015281 0.08714900566280978 12.434932275799483 0.25953203819620463 0.2748681543326427 1.9321945672293108
P 4.117089120804526 2.274549124954848 4.780509736052624 1.6787164485366703 -0.5198539192835563 -1.2943830628916482
P 7.7194116197346485 9.115090455800722 4.213272043524886 -1.1420200037744783 -0.4129646762284694 0.05536613547513046
Ni 3.1615504885923604 1.058816100783112 2.354773897819241 0.5500877784674333 -0.03453557188302439 -0.7679322071168646
Ni 7.910812357879739 0.6795289336016755 0.4303169865223248 -2.4774419868853075 -0.6625043790986526 0.9305603956054683
Ni 6.329602174337427 6.73790482537449 9.162723170713928 1.6640989557338113 -1.0194907401892892 -2.650410638067971
Ni 3.204641522114381 4.223205140244964 5.050525514020635 1.284705430592568 1.2952351264792983 0.3336859958017995
Ni 5.350219714821533 0.988145340748485 1.2843893287505954 0.5709026583302556 -0.06773417012218012 -1.262313178940297
Ni 7.684176962490123 1.735306869292861 3.0117757254560047 0.016110789518933542 -1.139863619553108 -0.31459966859430977
Ni 2.058150825926818 4.642944404301365 1.3151894370077184 -0.1440473401626229 0.7196810854199606 -0.19319654819376403
Ni 6.047889735463971 8.301900571385694 10.522197663931996 -0.38524149928158813 0.6350323989306289 1.7381948064079613
Ni 4.3822372418621445 3.226003906561231 1.1963365651174025 -1.283877278264318 1.3311521520908818 1.0956347316417194
Ni 0.2635823397715435 2.065879009584401 11.11228569095914 1.1713359791297764 0.44171578021923275 -0.6428863477574089
Ni 8.310791645238197 3.0946705674608608 9.105766274025228 0.20667195697237956 1.14677834439507 0.25307162728284155
Ni 5.365877527682275 7.006303545008461 13.042402306425192 -0.09723269380192931 0.4197755285027158 0.08160758567016267
Ni 3.1589774795784025 3.825102959106654 7.4191835882379715 0.7727864498853724 -1.1002411200654794 0.2880959658768264
Ni 1.733979160015196 3.5805846932392424 9.82412017389055 0.10698257409984156 -1.7332845135905375 0.5238949221221493
Ni 6.727997367178395 2.5404389318848173 5.36498201066603 0.5502538717316523 -0.696802381049574 -1.8342324514605248
Ni 7.465022522133974 4.009095995143943 3.2721294425288945 0.09543240736839693 1.402791313694423 0.9202150478154022
Ni 1.3888022176693375 9.189487958428519 11.176975349613278 0.4482962616502279 -0.3646780733079397 0.9472026321478397
Ni 8.243032688998726 6.170670795493035 4.982794027628287 0.5790718244046091 -0.8221454599344744 0.8074122674893579
Ni 6.324465312925218 0.38785592816101716 5.902360895031432 0.8040405228036475 -0.18867603461559115 1.5920946974813677
Ni 6.431332174853715 6.800737522363037 6.596444269301031 -0.46524008859341814 0.589842689767868 -0.431662766858605
Ni 3.8981819090724947 6.117269412683765 6.208681738620237 -0.04951121935625021 1.0225027875427357 -0.12994766753644718
Ni 8.204611529487805 8.927297424244598 11.609781104285046 -0.2985284740640601 0.6588667823460653 0.12696107410429747
Ni 2.84180146806772 6.028276264617356 3.5114961963989644 -0.18675542055411065 -0.2668306287401469 -0.20459861938311863
Ni 3.50653514200835 8.320790669591373 7.4422216333593925 0.13433088420580738 -0.8205156376405353 0.0720425676895469
Ni 2.609012826922304 6.150242385848405 11.300564938809359 -0.3187082914460447 0.308283753678611 -0.09864962875411397
P 1.7678311682878072 6.913318112493348 6.99578625620621 -0.1117807668194333 0.5303072534063963 -0.5676882651580158
Ni 8.732005124423592 4.987352190927749 0.6687268740509048 0.3657013723661315 -0.08840866775239613 -0.18778386181862497
P 7.013143536942364 5.066556916802265 7.8162474091549905 -0.6926917013153103 -0.5622449826552576 0.7352372879870046
Ni 1.3737853679081573 0.1534969274216727 6.8467870584203245 0.7751824609213747 -0.2956907475049488 -0.7248816557842934
P 4.7536295749801125 8.29072034360618 5.4851003268471965 -1.819734514954666 -1.9705194309514387 0.23040992401926771
P 8.360072550978849 4.121859717588414 11.150479766400501 0.6964180011269618 -0.5614479406752589 0.20275436708552821
P 0.40961662539116633 3.07844504442622 4.670938009843975 -1.0524417411940132 0.9468614467583369 -0.8260555936221581
Ni 1.075783309690104 4.986427372741237 5.750144978147313 0.8445351404835841 0.8169184072075802 -1.6858252916673095
Ni 3.739580168393591 4.922917086190294 12.988741791391385 0.42956886044405374 0.6630599944918065 0.7287743059704804
Ni 1.35898827692397 4.3549047439736555 12.256435956171728 -0.7025734792053965 -0.2956526951781618 -0.3864139223231345
Ni 3.601480090284982 3.9146729739626687 10.995664286316872 1.1524077747667054 -0.6656305834324602 -1.1407622201079772
Ni 8.785424820464279 7.641021832658147 3.0758619631349826 -0.5096476681745158 0.49071175050196125 -1.2766967013554789
Ni 0.5304308443661437 0.8648103054690852 4.320632447040045 0.0034514488837101846 0.017780463911872605 1.7538206858706764
Ni 2.8204665534679947 1.9431162627867533 11.73831618162504 -1.6435463283934404 0.358374499687415 0.3468528722010607
Ni 0.4141619694286357 3.1701668639736234 2.3656428006646806 -0.3352592538261904 0.8934303235223904 0.5444593765370622
Ni 7.150346266711585 1.1072729111100421 9.934777874722172 1.1688224686793032 0.1341449934472464 -1.8435969233945604
Ni 5.193788092065434 5.079962202198831 3.8563059584549304 -0.9029963699442707 -0.8102973023466369 -1.4799148954513026
Ni 7.461094333995226 6.0439340774781 11.366460523752245 -1.10620890761314 -0.08400051138237147 -0.15087387616615305
Ni 7.851587367480159 7.4329102708458885 0.03390145399743496 0.017779692580924218 -0.08451473201462864 0.46203726538540424
Ni 5.176079197286092 0.15958058289809224 3.598928141487152 0.5711559119916422 0.7011665715555409 1.1133306062595858
Ni 8.542325830031611 1.63317397768542 7.260964594095665 -0.24547016078649983 -0.17062226243767392 -1.74632180639047
Ni 7.380790814235745 2.1637815447347286 11.975055902448474 -1.5709466026488428 0.8114542987692154 1.202603164674174
Ni 5.004438435838944 1.4125361655845687 10.88668224615982 -0.6707223961330707 -1.61937615890514 -2.255037963889652
Ni 1.9409919279424888 8.194795637448788 2.310454962130773 -0.3194102026090757 -1.0403308168630923 0.6514324375552071
Ni 4.9717951008397945 5.007505902101137 8.473155839311532 -0.12313758659314922 -1.6439556480167172 -0.6732287074946922
Ni 6.901899812705427 6.111711346948986 1.7215472228683943 -0.7916745450391269 -2.456817882877053 0.5541074411497877
Ni 6.886013084451983 3.1578512158463137 1.1064442373884649 1.2239278942938792 -1.5465182944031495 1.1958995274017532
Ni 3.7260375337614047 8.284063483986438 11.228235915670007 -0.629342033414071 0.09456903092683712 -0.07389196219345984
Ni 2.7557842201064235 7.329568705964988 0.16542616636610286 -0.12193533875493194 -1.8162550410464977 -0.17115448079206005
Ni 2.6840604492653726 3.2194935527928163 3.116268276931407 -0.016555590365836002 -0.13310446799787398 -0.113997571965094
Ni 6.461732139004397 8.25639219131675 1.85458460815203 1.1664740230517845 0.8459546465389302 0.2890804412772828
Ni 2.8138646335425004 1.0209992779089208 9.44287074396288 0.7747808546075817 0.7197430490061476 -0.6989811338684478
P 2.212796908619849 1.772262970290497 0.5632518177100304 -0.8618741459826641 0.6799868521541321 -0.18580411238443487
Ni 0.6490575478484711 5.599801589175489 9.932968527458264 -1.1284260671401274 -0.5865341942199254 0.5089125897807042
P 4.632322730080042 5.590553407310371 1.521769097012021 0.07682404823859026 0.07736475123340869 0.12130259026693947
Ni 4.254502452735034 7.629493653481728 2.3809206139735393 -0.5361428862515669 -0.5063903375794827 -1.0452773622350902
P 0.6356412745130559 6.942298801209285 0.9983613768939416 0.3262465088046188 -0.7957607992933585 0.3645628878863141
P 7.329870874283353 9.016711776633576 7.982615791277451 0.5580348012286519 -0.2386672789320535 0.6146276100220318
P 4.167175808727488 7.360682886140896 9.44887473688264 -0.02861329286131846 0.2369143007966888 -1.8607870620206015
Ni 4.137261145209331 1.5340719258773392 6.8598398141121315 -0.42406052903131486 0.4029553716215835 -0.8719639261184983
