# total energy = -340860.9888458306 ev
CRYSTAL
PRIMVEC
9.29302768741993 0.00000000000000 0.00000000000000

0.00000000000000 9.29302768741993 0.00000000000000

0.00000000000000 0.00000000000000 13.60128537417379

PRIMCOORD
 96 1
Ni 8.261873202368632 6.931855101132468 9.819379971220854 -0.13265195384148767 0.9128480659273698 0.5264040616972483
Ni 3.212869117679412 4.679847858770373 13.201720456293947 0.06859986055658508 0.07753675803489872 -1.2279329016882143
Ni 1.461477268788474 0.6572605242569112 7.134880803057542 0.7610177393852184 -0.015630764558721467 -0.13011813167604042
Ni 1.9760786687042968 2.664180892754267 0.051550282358700704 -0.49529757010043085 -0.9255282324981996 2.3645810996278183
Ni 4.3196222323155276 0.12804676784036365 9.047057826502405 -0.9619548507563498 -1.502151081141684 -1.874457617529159
Ni 2.0433044299140675 6.839231495661389 10.021331399162538 -1.1187880298297312 -0.43320517164506034 -0.730886981438109
Ni 8.38177184366369 1.6940259898989674 10.469072253850833 0.16768014909021442 0.6052402552698609 1.7804496013121145
Ni 0.6324323425836813 0.4503048009860241 1.219507276359974 1.13454914931873 1.0993060098457197 -0.25925153084130836
Ni 4.104646626279361 2.49501061945282 3.8813175177893013 -1.9050614584579446 -1.352621120597935 -1.4352602328564057
Ni 6.66237588858603 5.2878163063603125 8.723265514510222 0.23362354586055895 -0.4579983194293403 0.050105658407139514
Ni 7.372530466983634 1.2371807561317105 1.9720640808078882 0.4302157499994333 1.2081197236170291 -1.9371598816543865
Ni 5.913190594528896 7.14486987835812 5.205551638685823 -1.0279607253335135 -1.4393873676509017 -0.4764446990599859
Ni 6.72831921199556 1.9256454082556618 3.976716950585976 -0.49006306117436893 0.3779989587865619 1.5639452316303453
Ni 6.587567016905264 8.733215559095143 3.305303145388716 -2.4811135221996237 0.556313447662171 -1.7693807450924623
Ni 6.3473515480759355 5.912261291775097 11.128829814607199 -1.0286821768805705 -2.1075049791712734 0.4903816208560522
Ni 8.806323806736456 0.21744940996677772 3.2865330883674977 1.5205511809154264 0.07697728598700292 1.6646633128777137
Ni 8.5126920156188 4.6566245829529525 10.387886506673505 -3.00604202779261 -0.711998114953406 0.29544572137367825
Ni 5.224763114515096 2.909265908013499 5.638399487441746 1.913771070416801 0.4642748964666714 0.9070527994018315
Ni 1.026610045148548 3.289638818170692 5.7352811581307295 -0.8196969983939819 -0.6332555095358642 1.634977869998139
Ni 4.85085815152434 3.632532948267198 11.485932054506529 -0.7735765498868354 0.7363158657631641 -0.4534958035732964
Ni 4.895594786092192 1.41495637293333 10.71181449686774 0.11208801364720697 0.4712238169806788 0.9484781564261536
Ni 2.238588110597248 1.3009773901799655 9.377201922816797 -0.041980458196843824 0.11351471879140451 -0.5370450863508622
Ni 6.979082267080498 0.34578704956908024 8.798182185310429 0.5288484094726827 0.4448090744325759 0.334036951383315
Ni 5.751148073349081 6.029186164258003 2.1301654290088434 0.5374796027851195 0.16969897929245614 -0.8570188747728917
P 5.477914477677299 9.31588838572669 7.095776672480462 -0.04547664427556039 -0.7639297708256908 -0.3081945363989144
P 3.2735247084198287 4.623299786201744 6.115995122398566 -0.74571684736209 -0.14938289344292338 -0.6316763379742025
P 9.202857291782202 4.655370024235324 13.438015196804999 0.20245226246407713 2.240398359599606 2.348673684368942
P 4.168229520694243 2.3606613203361957 13.287245118028759 0.22788587204583335 0.3312143943328554 -0.44785737434059647
P 7.133309352100869 3.905246134396854 1.4944006067500413 1.29659781115478 0.35572266388686474 0.7354337202685269
P 6.323663620881616 5.334448718545913 6.522618976745053 0.28832325139628406 0.8817929963937781 -0.4402811046552353
P 6.923751581119347 3.3015989446120764 11.987519498658159 1.55171038012705 0.09898747170950695 -2.3965833635660276
P 5.856103526363064 6.918101420376253 13.518194509099965 -0.23720226435075278 -0.8575192114480779 0.7486407058771042
Ni 0.06424734588384723 5.188687581612646 8.522306581909596 0.06323962468593625 0.9812090710002715 -1.8198116480495046
Ni 3.361511093149454 5.295213556280547 1.749220068355311 1.4071858432176925 0.5369576688433785 0.8475772697440178
Ni 8.245666162342388 6.3337651418154035 5.996113208553075 0.5791967800182476 -0.4897285606530856 -0.07923728566577322
Ni 1.6232224130870727 5.922585845369796 5.476108842426669 -1.2110746924802949 0.7644717593720899 -0.5288293833092893
Ni 5.133291844458728 3.1983069435273923 1.9665012745236514 0.6254259861891165 0.26541523644985904 -2.0810660682534547
Ni 3.7827082732810076 6.3311909731873826 4.31255953138666 -0.4176600248216098 -2.013005625140107 1.655420454123207
Ni 7.768162528358195 6.9950848605009055 3.716973113688329 1.500895354357712 -0.8043176877244342 1.1389781316243608
Ni 7.491741424240883 2.8440753198345465 8.784893155931114 0.3112934870392123 1.5204298248462138 0.5702539690026631
Ni 4.1054086545374755 7.951560426820294 2.9951660080608473 -0.020479093789958276 1.5780937552165855 -1.719781594008096
Ni 0.350704919742181 3.555911936216526 11.815939543316114 0.6350118301053386 -1.427994809543244 -0.384945308197408
Ni 8.217536167984912 0.29352863851198524 12.946873115606062 0.5452857290930996 -0.36489404597348774 0.19044032560486557
Ni 2.268325798718794 3.9938458589439865 3.991677795619375 0.15832724712040475 0.8352539722919744 -1.5345852904109893
Ni 0.5178753335174542 7.498683315811757 7.874844625888735 -0.1372341738955314 -0.7428040445906691 -0.9857262421443347
Ni 0.30275289764618746 6.2282799862317555 11.79391878526211 1.3892390289312848 -2.7367189716479126 0.8228679399227958
Ni 2.433379260820915 2.7054605210779883 11.542553541992707 2.1370258714485257 -1.434954785800845 -1.7829857374704068
Ni 0.2857921930866142 7.5886955805446625 0.261366399505779 1.5319445103540326 -1.3441382799379045 -0.6760553783102099
Ni 1.1429029917588704 5.167127757724525 1.7255135551059158 0.03458673683593398 -0.8366097149889206 -0.22098631671252264
Ni 7.599336097075653 7.241954137047431 12.337358308233801 0.5147315104553264 1.350939619130454 0.7153541759098325
Ni 4.737771299414622 0.2923047467852328 4.711580759904324 1.0180092705477564 0.13596610581638519 0.6759659039201972
Ni 5.6007961808120506 7.578547594473185 9.702055498553818 0.32651955996034737 0.24415761262266336 0.2636738282787201
Ni 8.399354251765555 6.016519767723731 1.8209538772237577 -1.5952216731461237 -0.7746417579265562 -1.301053018712656
Ni 3.115125054034904 0.2574716916646102 1.3131419632271857 0.3533662478395463 -0.006975145766252504 2.5145180658019983
Ni 9.447198864838397 9.206583795824933 9.407111531947796 0.05450275903357065 0.6584116970865178 -2.2980844014571646
Ni 4.443005758937331 7.231350792626592 7.093301009944343 -0.46086612789543857 0.26087261138449913 0.5607761114192149
P 2.3563865276687235 7.270790401497793 1.341373251584825 0.6688254362206739 0.030016858077064435 -0.3962033976097305
P 2.827682419257544 1.3011167855930352 5.394351574055753 -0.175437167327814 -0.7340792631231615 -0.8427623648538777
P 5.113683556353582 1.0755099560534158 2.350343271860773 -0.8988985457258132 -1.2184936106521853 1.5611545562590856
P 4.6066280947986025 4.615558694262605 3.4686541248458784 0.025579648241317237 -0.3183817613445613 0.7402797355069186
P 3.9427713795952304 7.116470386202043 11.148266181702892 -0.5629803181593853 -0.47023805602864177 -0.7005258526477484
P 0.287000286666552 3.173048494679154 8.023860181065803 -0.6883982161462789 -1.0410314424745426 -0.9436054017148846
P 8.781344148714357 -0.10899048557097518 6.94667933866106 -1.5041439432019967 0.05459454741642856 0.8627881731565012
P 1.2214848326200567 0.8752730916924907 12.272548734183905 0.16299585624066767 0.9528269203131526 0.4932157478707377
Ni 5.459430645904249 2.05214209910269 8.086276800524669 0.8542492824475546 -1.9992592220882923 -0.03598027474935094
Ni 2.6461338332755036 8.931082701433882 10.829710490728365 0.1978556442323302 0.5699202398123281 -1.149595502128891
Ni 8.79105536249155 3.4046028618430824 3.0048233222783196 0.46563886669373356 -0.04648117428067479 -0.5145625889776301
Ni 4.214834053797229 5.554414680369977 9.713589075031207 -0.2583698995673034 -0.549781302970608 -0.46163360218908234
Ni 0.36183424952166976 8.401835490118197 11.403154411711943 0.7642676137810838 -0.14816444765479 1.3913517043989134
Ni 2.879537512919491 8.260200457411795 5.191379771690399 -1.3974763292394126 0.18507469041757804 1.024440627995397
Ni 7.097754228740545 8.955402554500784 5.578390691417972 1.1178143530625522 1.6721714483293009 0.7154971292456
Ni 3.3937021405410284 2.2938723314207103 7.045030237003798 -1.62079540785017 0.85180493467212 1.3574002871541333
Ni 5.755060437942572 4.321304270299903 -0.13603877152302926 -0.15186760753799008 1.547826985912244 1.1394959518010441
Ni 1.280662831981934 7.5720424751965965 3.1774236520440367 0.33518546316546144 -1.0624690435230282 -0.7624483011841579
Ni 6.618438454386445 1.7948088735483956 13.486109402222326 -0.513877132874831 5.293974428417437 -2.3879334012005136
Ni 2.242742093906726 5.733407683779072 7.7725497666588765 1.1205098976168444 -0.027579709390481533 0.31822055317634873
Ni 0.2984883273090069 8.35712673463296 5.056318626664366 0.12999677560682774 -0.3571131164764882 2.348727420425013
Ni 1.9125794115372572 3.5189442726704283 9.397509046592798 0.43496149221453484 1.8945225065998341 -0.1581092175723277
Ni 3.4385317053842597 0.11244284530133597 12.847257436215404 0.05925492900657538 2.9950883569945836 -0.22573051626572738
Ni 5.816961294373079 9.41067726661412 0.564613686216987 -2.29320470476736 -5.473051506490685 1.171125148670551
Ni 2.0438248394561946 0.6286510096784759 3.5685281504020923 -0.5613949759501363 0.30621427274409196 -0.9110035565194634
Ni 6.819251486454725 4.4635061776861225 3.9230320598018005 -0.3591368317747363 0.39794789110466305 0.27053687394714054
Ni 8.82758625374336 2.512481511224228 0.2967022074162065 -0.14000196644865565 0.45375008567594755 0.9985650457802158
Ni 7.727254621135993 2.3009536184046535 6.595344351651803 0.46148987752236653 -0.8834937811349688 -0.7123614118300957
Ni 6.987204373148696 7.455953975192109 7.915498833459151 0.5648546523639626 0.12605553157089258 -2.8151003370712937
Ni 4.8147640325668135 4.07170284365721 7.516519423565408 0.19577330778200477 3.8941015739213904 -0.5500808364888978
Ni 5.1967074643779245 8.450094182122944 11.989070504954249 3.0030999144451505 0.25585716044777873 0.17327589801043705
Ni 2.4534243212203446 7.397026887573758 12.744852919260596 -0.43218907167572024 -1.5844595495336131 -0.06880914835391375
P 8.1538231711845 8.35971019628852 1.4440351854024336 -2.166039999292689 0.7934174958721625 1.5550412442724961
P 0.0035898965379229306 5.275958403221846 4.075529712397352 -0.08019682136556512 0.7995680888545907 0.18069455907201137
P 7.623693122252707 8.961331506070017 10.86737234343155 -1.3583027443637445 -0.18373180323643842 -0.6414169623007341
P 2.566464708192373 8.174713897089887 7.953188565244949 0.9410245283615857 -0.36200669712336364 0.3911915462174359
P 2.265417081099405 4.9315030444989585 11.199461470409641 -0.6919106001749116 -0.09728488719610343 -0.03165825033522935
P 8.762237684096263 2.011661671147235 4.711144916912793 0.029323688664781754 -0.38196977050885184 -0.20286363896988288
P 1.4751473122968475 2.745671451234842 2.1382986867100864 0.21447782617004352 -0.5440737110628694 0.6732788440063372
P 4.354852099712022 3.3961833788936695 9.373094404645009 -0.899937785623605 -1.6191668711078113 2.1232007926399756
