# total energy = -340865.1867545911 ev
CRYSTAL
PRIMVEC
9.27265706257276 0.00000000000000 0.00000000000000
0.00000000000000 9.27265706257276 0.00000000000000
0.00000000000000 0.00000000000000 13.57147090561753
PRIMCOORD
 96 1
Ni 7.213830313108934 8.876269325838791 12.17527849318672 -2.7799304740383803 1.7300557222405946 -2.5211224584923935
Ni 8.057150636677921 5.612145748134626 0.8182581866041371 2.0520977060455627 1.1121124175817687 0.7114756667910327
Ni 9.253258463193744 5.664814439107081 11.389069390492459 -1.1020010401793796 -0.7598304039453366 0.40441447266561314
Ni 6.558670742570413 1.9514955450686493 4.360052401287045 -0.05242607901020004 2.1933757109931644 0.3583999536087118
Ni 7.255761267435949 0.16365497547729752 0.7386283185416278 0.42687177322786485 -0.7815899071096153 2.646945562337506
Ni 4.043212207194598 8.90088822980567 2.6528700374041265 0.44021194198019675 0.924475365753653 -0.812747306549026
Ni 7.319056423171507 5.791349114637031 9.964024302398395 -0.3739648979265043 -2.0243989545787135 -0.33330547253392917
Ni 3.972693651764049 0.979238927842622 6.400305817832514 0.7628887311556861 -0.12270564126205319 -0.22208931996871428
Ni 8.827420969493213 1.3060444462639598 5.125225554625653 -2.375413928577264 1.098099134021812 0.7206059112270751
Ni 3.8555429049777827 6.440778183235238 2.599560605842553 0.48896185769039013 0.9566676342154813 -0.18999809586112437
Ni 7.223464603587874 2.3382487900985995 8.377031334955205 -3.036804505786448 -0.5365519487645275 -1.0101090418640732
Ni 8.755353880366819 2.930066841617254 3.419155909566096 0.24831482932414656 0.5517201718645337 0.2771104133996002
Ni 3.302827647443431 5.4482793560808895 0.3795140818182964 -0.2717123823124804 0.660641871968617 0.7364081683666543
Ni 7.663479989629406 2.6719068019404735 1.3377003695229146 1.5464504172796916 -1.5420710572650733 -1.2331183025438957
Ni 6.646260259282704 9.239386568529167 3.4563003184212824 0.4189910849282074 -0.9003162520089463 -0.9481557400897285
Ni 6.27063420248637 4.428055284911111 0.3306406892991911 -1.7132738747965655 -0.8046069368300788 -1.703894747574511
Ni 8.906303461412696 3.4183834972495455 7.194114790090337 1.5991624029614266 -1.1980409992247882 -1.3172609959310864
Ni 3.2695851725954994 3.0069093490272425 7.563855491576773 -0.7649893224384567 -1.096555443683776 -2.047820675936763
Ni 4.46719516952286 8.530185953802713 8.957971632709812 -0.25100266056895487 0.9778000453187224 -0.8084538213799948
Ni 2.2519203547194526 7.943050593999038 10.88516076234781 0.38554103279987795 0.798565101511373 0.6394924915845116
Ni 4.576371431408367 9.122365638938959 11.280213035268668 -0.38887575360006577 -0.25225298803628815 -0.5270231833384859
Ni 0.8522128014990201 8.584421723784734 9.172481567477485 1.324500708212635 0.4000178862598143 -1.4041347150961947
Ni 2.367643112349072 2.209544312863094 12.689596605923917 0.11949047675886519 -1.9263908160633403 -0.4705938967061637
Ni 8.386775042785109 7.529230463590814 2.920851675228447 -1.2892801944474441 -2.198933664696916 1.565644473709639
P 3.1734648115707698 5.805619733546646 4.56297244224372 0.6404283731352196 0.5045352866486149 0.8250325516742824
P 3.7399777825148064 1.7126411769771943 0.9430839114745413 0.6938821220789857 -1.2372292393884756 0.08459597887452527
P 2.5489328266452804 9.110348275646652 7.651092647328332 0.07144324354265115 -1.0007743947267087 0.5189200946153772
P 6.157192518444643 7.426396698998468 2.2061783384224247 0.2894157131295145 0.6144237215413418 0.8657349144896508
P 4.459897588572979 1.434869468038663 4.179741879555396 0.7209725505378745 -0.3086408799077136 -0.23939284424416835
P 8.322506258079109 3.350767283416599 9.6515274207798 2.0387565088519666 2.3591828114303826 2.462874630594094
P 8.813001988073816 5.181560654121085 3.085894767437888 -1.0542919070288748 0.33999496873896284 -0.29175130324122656
P 8.555500307034192 7.5554999004790115 12.750423380402983 2.0131022986189717 -2.464864150220297 2.396018749311809
Ni 7.931348501040017 3.5066220999421303 11.916294114314965 -0.8402637668017399 1.6070618603141615 0.6697217227826983
Ni 0.10498502098417846 6.006678752271247 6.834809536635662 0.079660746356437 -0.37874303604143805 0.6586873193454076
Ni 3.72920295524192 5.045094963092631 6.795873650474862 -0.3159243009430043 1.596134157658064 -1.6504052602968027
Ni 0.992814097487635 3.205854201987457 11.043594304746483 0.6441418174310649 0.8071998943682357 -0.6317339306850153
Ni 0.1544537180737822 1.5660775626267327 -0.0033798834259612305 -1.9286603288238073 0.9768541364656854 0.15255794873679535
Ni 9.022990575355896 0.3173696627992303 2.433948172501825 0.5238270449986915 2.9809040950744015 0.07115605131953551
Ni 0.3186010716304173 8.397586960685441 6.857650872282219 1.1635619916113122 0.950732499677969 1.0360507014304994
Ni 6.758209045569754 4.0946754527750775 2.6230936816909667 0.9357311411731304 1.0767636057688295 1.7945927255817158
Ni 5.194727826864199 6.101176398345241 8.189133925379599 1.176565602959832 0.3086663338290104 1.492140233872901
Ni 6.13040381277221 1.6341295913321634 10.904663014258597 -0.20011590102141666 1.1380962432400399 0.8217698217626105
Ni 2.568646495132506 1.693697139009461 9.229075374099349 -0.5569063440511635 -1.6669559655666324 0.20863936511139552
Ni 3.6872256376305996 4.015310782698803 9.551886231944817 0.18804508589981161 1.0886199908867833 0.8135525760591409
Ni 0.39272298151728613 7.808810340617308 1.0925498674226046 -1.09593555071159 0.15065790350060504 0.1492633371459236
Ni 4.441992088173717 6.641818656646119 10.560775407367284 -0.498073075963039 -0.8900752910072283 1.040476084191705
Ni 1.1083421293231657 5.303134458230214 4.761917295203935 -1.1394494148338246 0.07460004400407798 -1.5674357612821068
Ni 5.739357327615455 4.275835349875227 10.842071653178813 -0.07792730860509804 -0.1619116220375534 0.37674991687080917
Ni 5.144942932175623 4.9049758452608065 4.0715772645334605 -0.7489523235802521 -0.0909409472559466 1.8713499251381125
Ni 1.4481942759484199 5.417698133752165 2.057571030499722 -0.8288226148443338 1.2372464657796562 -0.6442009528037744
Ni 6.1145753875098885 8.952045477709724 7.219004455637567 1.052837433970535 0.8875057305078392 0.05321463634976642
Ni 1.3233101333397892 4.14436762089504 8.549347899206687 0.667123880148535 0.13240281394515907 2.324394242996287
Ni 2.1510153027542676 5.394043586098867 11.13221586816744 1.7564447537570849 0.279979250306963 -0.7970175545185951
Ni 3.719726299929623 3.887375935982789 12.203574932864809 0.7639791360063876 0.5383872022010534 -0.5935972717142938
Ni 1.55099094991332 2.8956374666910705 4.779152382512121 -0.4192646503045683 -0.3965564100737751 0.13855212137600656
Ni 5.42544080223139 7.504073745525978 0.2287684992233671 -0.19231414558881074 -0.11497484827669875 -0.20733427314672678
P 6.962124042607651 1.9081644195555714 13.086602627645458 0.04763045739376958 0.07082977832836834 -1.3901345441623605
P 6.339761859387718 6.862266800867798 6.5813757701611095 0.5195682697223374 0.2848689742990965 -0.20777161779446152
P 7.5405523776185195 3.5744701301966115 5.577209158878126 -1.139171992802722 -1.68429445684508 -0.7387386162720438
P 1.14896563903273 2.163320118409276 2.22230070690725 -1.795561003032256 -0.8437720370653146 1.360625221849334
P 0.5195414003471939 8.970145703903075 4.36097503064475 -0.2564960795833583 -1.9586959559539492 0.3877580950558548
P 1.6892648090297369 4.199706837043563 6.49366385437825 0.3169118616672542 -0.6062887511390332 -0.3604990022295856
P 1.0088001579165984 4.632276279625432 13.314807349331657 0.4145425622385506 0.25077486082886485 -0.7074999699727363
P 1.0832317745426363 0.6240804065363414 11.92426025382455 1.1673800798058218 -1.2467757454263302 -1.198768364309116
Ni 5.6049130757827745 1.833797711527563 2.083845103716351 -0.9068895343510898 -0.37015580859305924 0.38494145154266607
Ni 2.152230020803104 6.992139632867833 6.2081466951634345 0.32072892142049925 0.07233721611183026 0.36484056702773293
Ni 2.4340909714174894 3.2983674994931227 1.1680663849014201 -0.12099662899074647 1.624624037567641 -3.349829630804786
Ni 5.827076661523804 7.3078365083692765 4.51344996374432 -0.20001177134338458 -0.5734051130371352 -1.6336149282123413
Ni 7.913192638905499 7.33867736509012 8.531596324911323 0.4267151930453425 0.4399833709091584 -3.072496816981734
Ni 7.599915926844868 5.608909590890015 5.2230483754501265 0.07596375712082401 0.44385236694626146 -2.4403075439268553
Ni 4.319305565241225 7.7844974343268545 6.199732686327447 -0.47421940927389294 -0.07553798243731506 0.8677966821146861
Ni 2.496894676339397 0.6005881303781172 4.375129741343597 0.8444114704215263 0.0836464704770624 -1.489562445843396
Ni 2.7735165758271214 3.888729743884546 3.162410877326357 2.0766111178058946 0.932527546634168 2.468985628587838
Ni 7.413238798912215 0.22775036149999112 9.440151644031262 -0.6732865573158211 -0.525643786492456 -0.41132534085283357
Ni 1.491590310059527 6.937245504248655 12.915411763936945 0.28929949926662435 -0.8883966177532249 -0.9218525834188253
Ni 5.152973053017551 0.6370222537177244 13.371997387789705 -0.2945643472099895 0.5483774806445458 -0.018870611652257823
Ni 8.029082304358623 7.931070321334177 5.484380591039175 -1.3863236550567029 0.5806666796955549 -1.1242012304255027
Ni 8.678465009672523 7.817313366959163 10.645895615557398 0.27173372246871913 -0.01541144945906378 0.7651626147915274
Ni 4.856479849875958 1.7111853698499628 8.788666827406896 1.1567102587968014 0.13925351831840535 -0.040993154582910044
Ni 6.93604005885668 6.205697786486353 12.182416584438586 -0.512509305993027 0.01882561734693532 0.5646322519405115
Ni 1.9061707983303817 0.4845630841348181 0.8954335823954478 1.480870831606669 -1.5790754024035645 1.0015436687925654
Ni 8.65353083537236 1.5575281730005703 11.028814616975183 -0.5957143180572966 -2.223633224326125 0.36883477578879054
Ni 0.42665256023864345 1.6985374658910846 8.857963246663118 -2.0458108445955863 -0.024355031805596762 -1.0522537935529235
Ni 3.001475572106493 6.758607769814793 8.772489750246589 -2.2250090216277294 -0.584814126205025 -0.9891815476827867
Ni 1.477672052110644 1.095249137834943 6.233458266597855 0.28570998214315313 0.7233644478088187 2.9392576231782086
Ni 1.9095924087122191 7.545745065460874 3.6614745422609505 0.18516467902822303 -0.7170032814774813 -0.921251973720349
Ni 7.355683417773831 4.991378461894844 7.485439414297413 -2.0579122558448106 0.33681888500382634 1.1697033286223597
Ni 5.268881263784396 3.166630863463956 6.011265935620556 0.21228107562904086 -0.2557589443070176 0.14455693280918977
P 2.507242961396661 7.498231971703329 1.167261518285855 0.9145653057287927 0.5121313538283181 1.0885824527806285
P 8.08768549572234 0.7955550135448135 7.2164396387497165 0.8307607124073112 -1.2752831088374035 -0.10608011689023022
P 6.162283207061522 7.6883399826746786 10.073708705879904 1.928623562048601 1.242094537900577 -0.07708398676819628
P 4.8397427042412255 4.654410111553469 1.9675372414387806 -1.1190202004451952 -0.8917915023673868 -0.7477796434283895
P 0.8723641393901009 6.221034760935021 8.884482118020887 -0.8376782654627508 1.2914268084768017 1.2159561889423125
P 5.433433832445872 3.8964353217363255 8.106578534077336 -0.6510326310136271 -0.4110713158604985 0.2490213684728679
P 3.779989296871521 2.169597707104408 10.8324623988734 1.690442992944979 -0.41623846188373476 1.3370224948287295
P 4.777003907917347 5.7866756955789125 12.481966982547362 0.8987558495003618 -0.6265696128752564 -0.39296946405346517
