# total energy = -340858.6502618134 ev
CRYSTAL
PRIMVEC
9.41634077975129 0.00000000000000 0.00000000000000

0.00000000000000 9.41634077975129 0.00000000000000

0.00000000000000 0.00000000000000 13.78176654947953

PRIMCOORD
 96 1
Ni 9.378298628287716 2.9459115869697987 4.737399585240298 0.15806910836301166 -0.5887671973155022 0.39568274921957014
Ni 5.1972456389799735 5.332483123316161 8.255650481093253 -0.311596877212244 -0.23818314020678338 -0.255839676946282
Ni 6.262732831926116 3.910945257920506 9.9381142041137 -2.0283895637953453 -0.227735205400582 -0.9709884217135276
Ni 9.36981450536703 2.139213683956215 2.3831430467177017 -0.4295408354195957 0.5365054117973083 0.5493249321594798
Ni 2.2553171641027947 0.058048915171096525 1.6375628442912544 -2.3914858944384623 2.436625209979262 0.5981242130503698
Ni 4.876911146595019 2.278161206506331 13.410802252490155 1.261951424725504 -0.08490785368798927 -2.0096102263053135
Ni 1.3448700198682042 5.454387069299746 13.159312509825208 -1.1857485550106805 -2.3026162278892475 -0.7308640986199736
Ni 2.368633407418605 8.356550337635237 7.89210063495447 -1.6621914542984535 0.39773217554943113 -2.3500098866818626
Ni 1.9976013370037078 4.49201822275143 5.0800696376339864 -1.5620858098241033 1.872258038774679 -2.8753572249798225
Ni 3.373338121504555 1.1893874031463612 6.801259944823034 -0.7384779064114895 -1.3022490959032864 -0.9216211841343095
Ni 5.673740724613175 6.613868174559202 5.798112693479682 -0.4740952249912029 -0.4071146452055956 -0.12797743118395377
Ni 2.8872007030513944 5.443737188030826 9.206743259719792 -0.026259705027477355 0.3968672564459746 1.197666903714821
Ni 0.1367092583789204 6.913354888757254 2.901750832615263 -1.1174333155740497 1.6876762288331193 0.9630015468533094
Ni 8.991343525842986 0.7951139207527301 0.5619822758082818 0.5186627271889325 -0.7870833261240187 0.2801563993147756
Ni 0.33587522098462375 8.042995610514318 0.740937946488713 -0.3869291713966562 -0.7005993861981612 -0.2066174495853603
Ni 6.56511977904267 8.415393050322665 4.330451708339181 -0.4182254104067765 0.22694047741342852 1.2838281701939374
Ni 7.601708222550869 9.262665965173362 2.5347564890687235 -3.0658286609329393 -0.9521430068722504 -3.120531451792458
Ni 7.495651977871962 5.951334446812783 7.677367577995293 -1.1814118753085396 0.9308897539204289 1.0326301057847247
Ni 7.0331684071177625 0.7182652814849065 8.35277061850054 0.09172924748519687 -0.6598515148568378 -0.7367197860698022
Ni 1.528742903633189 3.056930243168353 6.71207872421312 -0.36950300550040877 -0.7356903163640234 2.031694459798862
Ni 9.372780652670045 1.7372018528209412 9.599661730694681 0.3261737465851544 1.4156530001484393 -2.044623252045388
Ni 1.853258251264298 9.349446960552996 12.820598262136269 -1.3599623914543546 0.013993486065614609 0.20535786614664633
Ni 2.239252886963292 3.069689384741639 2.2321774486030215 -1.5160149836079697 0.5875086423180528 -0.4325294857342744
Ni 7.416535883776944 1.5713235960275793 12.967112756028298 -1.3761014631080624 -1.8439892737369727 -2.1970505887415905
P 1.034111945918697 0.6722212590014721 7.614894865989414 -0.2973262262258428 0.24804589193347604 0.5267784143175315
P 2.920459218207738 5.356899694607327 2.775688630603069 -0.888874842941224 0.10877926098894813 0.7200292127879987
P 4.217447145898704 9.32325070088002 2.614456396283699 0.1766299020843345 -0.496129579083423 0.7230338039422775
P 5.947360751060808 5.685718309912968 1.590512214992924 0.7085842041758507 0.10363319801163443 0.13037704176438192
P 9.3503791782768 1.2711683216437695 11.859830193497517 0.03361640250286469 -1.1278665950922317 0.3555074625522652
P 6.49077776965441 0.010636698392017556 6.207362865668378 -1.7644318857276193 1.2923683464544644 0.6802745585978801
P 2.9642263695233346 3.1192475855535977 13.615158502059105 -0.9803909459743503 0.517479762624425 -0.0042636603723603984
P 8.233525847114956 5.937680752878271 12.470086281253847 1.3669082266445685 1.8364775387409598 1.1521450080236222
Ni 8.48676891240791 4.057416436645571 9.269505995017521 0.16369879584496322 -0.8196275786086271 -1.2719812981576804
Ni 8.879703391161895 4.8920808713732935 6.303434964361931 1.448221421002764 -0.9491720971693847 -2.088953441421331
Ni 7.608817559737459 6.219003345973098 4.199303740744897 0.11670802891772158 0.21209595620142827 0.9159308186177516
Ni 1.4080913309553198 2.747556371293586 11.231574770599241 1.0174336005499447 -0.008388738284327488 0.046042801191675545
Ni 8.664794248632665 3.885361060389423 11.92635475688272 -0.10818430771742658 -0.39795251909035334 -0.11670442937329578
Ni 8.425732192350317 8.67933307858776 6.163330173546607 1.0461664497082628 -0.590694496245202 1.4273296651554193
Ni 1.8811588685939264 7.275855754548242 4.6066791195112735 0.609643269433563 -1.0262193171623744 -0.30257359066771117
Ni 5.882500996701551 9.390615201850713 10.438406265823662 -0.2797941308793504 -0.11724538947843034 -0.8444140415246877
Ni 0.9400850764131273 0.8185427179102894 5.430015696443673 0.5282529419805291 0.1201623060149092 0.959793581438973
Ni 6.546494257247867 2.3400924789251514 3.9724283125246487 1.593485150070991 1.5953124330877169 1.3598322936343936
Ni 3.6010817363322256 3.0729003569014104 8.197973511377615 -0.3153686855498504 1.1621399144528048 2.2918615604759043
Ni 3.6270614201703775 8.236021177385746 9.728162764933797 2.5233462056165896 0.13490244043856123 0.6171097530139371
Ni 2.6398710996831816 9.466153086500823 4.174979449592047 1.103979761172305 -0.04245971182610752 -0.4096078439410946
Ni 4.261666281565235 4.213379286740283 1.4959420226321674 0.5483921359325653 0.9925239817924584 -2.782832221066207
Ni 0.5488163483191537 7.3546328603800575 11.654647189219984 0.653965488389706 -0.5450301614388678 -0.32931974841330386
Ni 3.0095095516826937 5.397634784235396 6.9462584078713 0.04638527213275883 2.277733348604639 -0.028908712614550212
Ni 4.286619584273138 1.847523699811803 1.7420569180572407 -0.40753527768278197 -0.6675108311743084 1.3297807256646519
Ni 8.269138447432423 0.7261128597780256 4.454666424316926 0.13719123647273793 1.6356442999375442 0.41002564820480353
Ni 2.2130095455870946 7.33262687229388 2.1775052331870395 1.9842365234272148 -1.6409371729053674 -0.27110431641483634
Ni 5.703816516631681 2.0984126799436336 6.802445462110175 0.5898411471059712 0.35029660777528704 -0.031483929540894164
Ni 7.269970541645435 5.757056506635635 10.55158220566387 0.7426299809066501 -0.48229164475906616 2.12781155193911
Ni 8.22495697712847 9.310868212932514 10.27124738670265 0.6545630127643889 -1.6490189214722375 -0.07717011872409936
Ni 5.181840505685585 4.965471830356461 12.929294848731892 0.6934496625272573 -0.6451170368601405 -0.30862442484748137
Ni 4.009939247116045 8.9322559882988 0.40272653139019093 1.4855582097800093 0.5109800138326941 -1.615506905757721
P 1.751900760566992 7.445425216874243 9.709681313150854 -2.3660980504929765 -1.9558731417931736 1.0528001529746964
P 7.130043719668291 7.299999251960718 9.352761512459857 -0.24821867006591447 4.094159368011362 -1.6298315499105094
P 6.569517210123648 3.4576614519759765 12.1657576846964 -1.1220546163961451 -0.8614208604953294 -0.2504303330052525
P 0.12280414814919986 6.967950831814015 5.612128666142203 -1.5181446283564628 -1.85512086487376 0.31581682883086254
P 3.6695573654989677 7.687952486513765 5.677316109155888 0.6211227308280722 -0.009069309291119865 1.10387717415617
P 2.118525983560267 7.23811506124512 13.662127209193827 1.3550901509637179 2.215147555452617 0.5695001215557741
P 2.5200293323007386 2.3695091270985427 4.642842575756443 -0.27995096817218884 -0.5603259112556738 -0.029291035654633424
P 3.9958053198086634 1.0710993319702595 8.892877793357602 0.8583378506946314 -1.0052113474521398 1.3383317005584563
Ni 0.76813139663594 5.072573288846907 10.485953136273958 0.7581159923573911 1.54678723179382 1.3708821236906519
Ni 4.7976443910496895 2.253151405754562 10.7368232837245 -0.816911979449677 -0.3497875293493524 -0.08396091639368765
Ni 4.617340300388967 7.769968813527286 7.750465688784415 1.4480506997528546 -0.1664827863480036 -1.485609631843235
Ni 7.258331944608843 2.026547168144875 10.402078023617214 -0.04152897248172203 -0.4039532167584785 1.0063107511639058
Ni 1.6622666139720779 0.3572889212442618 10.101442515860535 0.32499103913096283 -1.298807160101273 -0.08941165509561376
Ni 8.271840937197393 8.55278687666644 12.520321516958145 -1.322441511690761 0.6091750715478929 1.2761140893791314
Ni 4.8374001812507315 1.252345056695431 4.5850554348552635 -2.1130660181988192 -1.5791995866862543 0.3822009126830514
Ni 5.1231484544484704 7.394859467613324 2.9251664468959193 -0.25022773007614324 -0.8399210387503405 -0.9301680452630562
Ni 8.790408232830181 1.9482408793452837 6.978548923209391 -1.3116673038933926 0.23487155933504714 0.1915423004197927
Ni 4.335000742504535 6.647484510660037 0.41256284082742667 -4.237829270229908 -1.3608123981594757 0.7448408725150398
Ni 5.380101557955354 7.297729913865395 11.555446040530267 0.8601797889993766 -0.7349737499129729 0.22663117370312583
Ni 8.190173014787717 6.153917599438373 1.13706456472118 -0.6787444951065987 -0.8488517655810672 -0.9394744102656465
Ni 0.4465548889199764 5.865975318870468 8.204189237837044 2.7620507655444815 -3.696259299425499 -0.48776629472039224
Ni 3.033916706633216 6.978412386270045 11.725912880119688 -0.3384798176460171 -0.6403229579056069 -0.13003997013993734
Ni 7.599288223005234 3.2689862344823006 0.544273905592251 -1.8154428295578475 0.2571727939354087 0.7246019197603456
Ni 7.18813312510416 4.273380209326983 2.9009786926824144 -0.9045590864457002 0.11147557687418867 -1.0454550254635349
Ni 3.3755886269185886 4.282438729026984 11.58958310026874 -1.1549223136584432 -0.3549739586462984 0.34648083357362264
Ni 4.034384067429145 3.708136113119449 3.618995382774306 1.0743627096368207 -0.3309444285009204 2.252102535410412
Ni 3.8528746851659275 3.608633641529108 6.050098677296597 2.552053343743295 -1.2741487381226444 -1.6327885756563043
Ni 0.0036686063150938738 4.712963239633777 3.3466267879983262 1.2605648287906226 0.270145809156309 0.7957888243178166
Ni 9.178060144482606 7.737604850732169 8.358903481162297 -1.3118048579125212 4.205177802743474 0.5112618067391711
Ni 6.1825715240195604 7.582282311801283 0.38302283859159253 3.427883437685419 1.690227277389747 -0.14514391566091134
Ni 3.632861886007384 0.19060839222798956 11.41245984947773 1.4151071549472984 1.0866872926404447 2.017311451604313
Ni 0.704811213972057 2.7145803463565765 13.61985819767477 1.0244923071689387 0.9046786427426999 0.44079918194223444
P 0.12166853746747419 -0.07170825890999584 2.7692939936713943 3.988411694759886 -0.2510767083399998 -0.16110789518933544
P 4.7984165309825375 5.516676162663058 10.502477872470974 -0.4491555243267297 -0.20993905775942553 -0.520209245740446
P 7.283963223843149 3.7079383699659147 7.395309568696131 -0.5200794050308011 -0.2169031477820845 0.3733794577366795
P 6.417895293066047 1.6652421776157373 2.0418374220834 0.7881770734088297 0.4496715447311997 -1.7324995557953968
P 1.3843809852124904 3.5797348920911634 9.093305545609667 0.6215988991335424 -0.23394107710097775 -0.6557544619693286
P 9.204585976078139 4.1722769598270775 1.372251796828321 1.97691222185166 0.3930003172914006 -0.28912697824450206
P 5.8566060599292 9.163822637428135 12.632698009477636 -0.006104827346157228 1.3992239080581386 0.5678353322588414
P 5.764768489623474 4.582433925619837 4.798907122330116 0.0036458242827033987 0.00608451563118307 -0.2176827062605864
