# total energy = -340871.71226920816 ev
CRYSTAL
PRIMVEC
9.23603207284563 0.00000000000000 0.00000000000000
0.00000000000000 9.23603207284563 0.00000000000000
0.00000000000000 0.00000000000000 13.51786653103828
PRIMCOORD
 96 1
Ni 5.334602765802711 8.741460937244854 6.25381145954581 1.0315412435959201 0.7110468067837303 -0.5033384381270364
Ni 7.748919996806163 7.4467539746276445 0.27328772099421755 -0.3377401112665151 0.4407181921926539 -0.17751847533687493
Ni 1.5638172263479682 5.052756013974869 6.696710595379511 -0.05396025626653933 -1.1466708722829284 0.38452004773453136
Ni 8.122452838075445 3.242937075904049 10.75463882739804 -0.5490683360639834 0.36525888551207414 0.6527087331644694
Ni 6.040448037625332 7.767927750616023 8.52986806265448 0.37218749431110737 0.3286733730785566 0.5510861378249605
Ni 1.0405683067221099 5.526038000602018 4.308387252773761 0.05385638369882337 0.2576083388109305 0.08181095993022039
Ni 2.6626741308805872 1.5817536004484292 9.75592544678873 -0.32861218082331795 0.04839433214298762 -0.34608642634868136
Ni 4.985656241657748 7.3408443959407315 10.932858224040627 -0.16756650633048562 0.7026678386914157 -0.1080236137698462
Ni 3.7800215714323224 5.961526144376908 4.8480338235726155 -0.8038068095262865 -0.3946761623319267 0.08019707847588123
Ni 9.179664474421154 4.910253276592782 8.584710696934152 -1.135974568911347 -0.47751710618855825 -0.8871470616168399
Ni 7.642437784136639 0.21331908896698626 9.186958168873849 0.9505147272402081 0.6013717734533901 0.05238956934530977
Ni 7.340548842917449 9.029394234145922 11.941507727851416 0.34215495250475914 0.4208978150326171 -0.7712211622807815
Ni 4.662681439433741 4.238137993552284 0.3643041981172829 0.7240756149432304 0.24906790544008717 -1.414353307500409
Ni 6.126232302633098 5.236340621593233 10.603441289512258 -0.08171968576799474 -0.9616504321420534 -1.3040745791477992
Ni 6.651836410413239 4.299677674618902 6.663700093488441 0.921196180781749 0.027029236203650223 -0.02951446451934917
Ni 2.1517830220407315 4.084598197956989 1.0273358437078306 -0.6361536570192657 0.6751125547809663 -0.7609439487244894
Ni 4.015983716395545 8.95748248916848 8.719186398924526 -2.107127284116881 -0.8157891786991434 -0.244220861760431
Ni 5.3661530510381255 2.3151776637561055 6.264463375225554 1.4213719049100877 -0.27676280025219435 -2.528175251574117
Ni 2.9754892979292555 0.02898543915524034 6.321156910313535 0.015214245846593153 0.7216544070962475 -0.2347897982545182
Ni 8.452363900314614 1.2703884904202412 4.914420574221067 -0.3169380869194993 0.235893058621026 0.8353758425818193
Ni 9.080922056548843 2.828617917421773 0.5975491024727009 -0.14868535315526651 -0.4623632812662553 -0.24300755817862021
Ni 1.4282138048531337 2.1128254391592978 5.780956177596026 0.26655989157726345 0.8819881431237198 2.2791513119980875
Ni 4.3839657024463 5.254092275054142 2.367113718772435 -1.126681316534879 0.2144516009177984 0.12787690105034752
Ni 3.9700898734989485 4.069959087272524 6.73726416458667 -0.39375030808354766 1.3570243918719533 -1.071799834005651
P 3.4268172365456957 1.9296195088520145 7.122212741380241 -0.42782873782449543 0.470714481444428 1.0824843103026904
P 0.19954724168521623 0.6436415200568156 2.511444266882885 2.646566324621216 1.3820080584004844 -0.6240766712500736
P 1.3620468717657483 5.711608355095562 2.1915302856562486 -0.7039438771903619 0.5617058223223358 0.011280715120141864
P 6.393901745375353 1.9018929408553185 4.220197001435834 -0.13100901892142597 0.37287963528212553 2.3379413855531026
P 7.437250097722715 0.4601695920285779 7.004188259548336 -1.6024716698403176 -0.13699968928722214 -0.4515818743800352
P 2.7562443708454536 4.042140158956053 4.898509661933289 -0.7271694233772058 -0.23450080625918968 0.16645604687512625
P 1.108656334460832 7.5430857881538085 12.608884926487416 1.2341377449473454 -1.1189785485739825 2.3013813270408816
P 6.914222842864318 5.825534809539015 8.337076054757665 0.2609420311698538 -1.1400968186098366 0.8367914919824233
Ni 7.733181798316366 7.032287039633728 6.725355224954778 0.6646733617255134 0.7860057767891236 -1.821917638648914
Ni 0.09005870060699026 5.733386918498696 0.35882353674178674 1.5965429630607084 0.28204127504231424 -0.17781749463453247
Ni 5.3649616029130165 7.116297986501799 3.521917887009247 0.5367712638641853 -0.6988883170443254 0.15214734356193796
Ni 1.8143723018357674 7.5289638952600875 8.38298282809903 0.007821295816631692 0.7490011745403165 0.2692078707230719
Ni 1.2528862098227265 3.578556005905363 10.65099761816482 0.5488017126661582 0.9670011549310056 -0.8109817300081711
Ni 5.551104591389171 0.10176352393217779 3.360257772099263 0.619574926724978 1.080869914627719 0.4934376340735566
Ni 5.43716890091374 1.214076403452934 8.154044685454759 2.3515263233263886 1.3097628877818281 1.1192685690105757
Ni 0.37263140454826926 0.07502798216667601 6.8797022497449145 -0.1231848948913169 -0.4937937318613947 0.36958142414682804
Ni 7.379968227397762 5.043501509933334 12.71918993279246 0.2806495369011102 -1.0938349594288195 -0.3075846707290574
Ni 0.3907996030513676 1.3493935079564634 10.933358816973811 -0.40575093208884955 -0.3863761271066636 -1.595592169111665
Ni 0.22476715060319707 7.887894569972814 10.850074745822376 -1.0951796463821721 2.1186897921434995 -1.315138807381761
Ni 5.524689539933291 6.2561093843018325 6.567912282245758 -0.6280927343880022 -0.05375328246205582 -0.962269296672975
Ni 4.148816328297105 3.3604009305949156 8.89914955840448 -0.1290799202195132 -0.11867826527021498 -1.0850492428163894
Ni 1.9581034314708723 6.228807673776105 10.438307502975505 -0.12464425304566276 -0.34032689815708483 -0.24591161919929266
Ni 8.089600272331191 6.589659443140168 3.2741493223690843 1.807117340411288 0.3300581692412251 1.022111208531272
Ni 5.1712450682152475 9.053694234278936 13.083604963293475 -0.3367049851337814 -0.08588821532338757 -0.4593805444888476
Ni 8.68839069750168 7.20908316374857 8.717455566531926 0.33779847530827634 0.5484849527566876 0.9781031783814379
Ni 6.819396502550501 1.1932953315033783 0.8101256144686898 0.22846488447775495 -0.16446421325607805 -1.3784810190838324
Ni 1.1427188203941483 3.0251976220325925 3.708153235805177 -0.10407362798316269 0.21028692801714752 -1.5886069960430835
Ni 0.9768858662366936 2.7039222496924613 8.395176237515832 -0.36112300896682964 -1.1843660728408572 -0.682416030420915
Ni 7.604911786211731 2.8585980772209987 8.388877263707123 -0.064026896473922 -0.9581599024902917 -0.6465841083239703
Ni 3.282245628000631 1.5569825626845588 4.3202426234201825 1.1541666664393413 2.0584838120775646 -0.5280549670371099
Ni 5.4808830402636275 0.47741326373072035 10.415150923601317 0.33499982951721663 0.5102035406779858 0.7837475768825664
Ni 8.577013387884037 4.39538143797059 2.2766246190752897 0.7777916164094475 0.25098877661188385 0.8377877944574216
P 8.174941207804032 1.671638663654241 12.536347902145094 -0.5822836464736875 0.5150292442014033 -0.15855144731606885
P 0.8726018291778341 4.07833616827619 12.648640502531713 -0.5374739463581646 0.412084073395729 0.13157877538196694
P 3.844932404170757 1.254345502875184 11.561222423603327 1.8268217608187507 -1.3839896076068876 0.8204660153495226
P 2.046492257496316 4.58287288711547 8.91980502031914 1.9870385116523843 0.9360705267904201 -0.893361417957668
P 6.089537547586171 2.8573142687761153 9.983417226825313 -0.39208140502155703 -0.31615801422036516 -0.3076666889199024
P 3.678360567455096 5.730403680169938 11.578025536580139 1.507137992833314 -0.1644223042745491 1.4001919283983626
P 3.900099223172844 7.43860779442342 7.24445439541311 -1.7103996385725637 1.8182399326870105 -3.618681917960652
P 8.99806561367797 3.4837850817834113 6.655697071779867 -0.13012687342678878 0.16012162001666616 0.0032694147798911434
Ni 7.914586702388021 2.087361698997109 2.7385841541011224 0.7447709385090528 0.932315173513046 -0.5164919447898588
Ni 1.3157651155260934 0.2025655769354895 4.304439772706543 0.14283403658081206 -0.7726607229407855 -0.1435907122411785
Ni 0.723118498827092 7.957118629644779 1.5271677278577316 0.28278175275276457 -0.30515574957259056 -0.549957423537156
Ni 0.7591639608259948 0.40950995663154977 12.9438573342503 -1.4305934235083555 -0.24425968541816645 1.085196567027531
Ni 8.114214297551442 3.92946980486155 4.6859146778733445 0.4786699888460788 -0.7103418102969057 -0.3196716838005785
Ni 6.702690002481797 5.778495698677198 1.7616345592437834 -1.0861627875955424 -0.059082150874136964 -0.8666003478137397
Ni 3.6992247636924502 0.4659642784913118 2.0948364196765645 -0.20325444665039835 -1.667900588868089 0.16821108189301995
Ni 5.480328878344973 6.493189089134342 13.326399001110513 -0.6453142404726112 0.7019078205969396 -0.4356554329577658
Ni 6.099761834985353 2.7189492737199843 12.239874046474357 0.9326501882549614 -0.7509086759756745 0.5966864521625788
Ni 1.9600152900902315 7.266503574553187 5.9605406597649 -0.8172997018063989 -0.2740664843669538 -0.8021211942937476
Ni 2.229116317789012 2.219150639285203 12.239819553885692 -0.5891299799715597 0.7863266504636522 1.7670896350654404
Ni 2.8190586243249776 7.249463095554552 2.599188417876294 0.4699863450291519 0.2920251257279035 1.0272287322634954
Ni 2.7801656936673864 8.578731289831868 10.608334539253981 -0.5035456690418361 -0.2845838389585099 1.2980864798851643
Ni 4.2538669560101035 3.5989214564159275 11.108374234123376 -1.3574370539293397 0.23670347033746333 1.6313341025979646
Ni 2.0627292017129024 1.671814148261815 1.1026011918963303 -1.5765194687509299 -0.46916230646595974 0.8281780392817993
Ni 5.237846094805579 3.9364799531325336 4.052224058669174 -0.08473996065155728 0.05708748904161135 2.266200151154058
Ni 7.80920357752383 8.71624656994606 2.305566648880235 -2.323402568506979 -0.2573489145019568 0.3003472724403537
Ni 8.907912705544808 5.606613143574429 10.742607972144043 -0.9575716340869896 0.046678120782829284 1.4207263009062887
Ni 3.2471302344218707 6.42994997818385 0.49372224899673167 -0.876220387402007 -1.060830736588657 -1.279268832958029
Ni 4.040413020976245 6.303674948986371 8.760618314772753 -0.046814903471009695 -3.4303354987703374 3.5327163124321093
Ni 4.395169009235105 1.9501696800021309 0.5465791364012261 -0.6250354356189171 -0.7693072330875202 -3.723137097652949
Ni 5.524901968668775 2.3883455090824963 2.364112931982919 1.259579582059218 0.19302377006132562 -0.06666639097929809
Ni 2.803994656169544 8.682516581163938 13.496413106944217 0.3804415067897835 0.4522269641632018 -0.06043018026159916
Ni 7.2926046009218295 8.363504036658313 4.7643987832060315 -1.4175527882743135 0.3804129675446932 0.252106692266411
P 3.575027841689927 3.0818422061510926 2.226946773877478 -1.0818813866113692 -0.00901557323504899 0.940677172324496
P 3.406664214770615 8.683920458024529 4.094156567450587 0.9934457222757794 -0.8898631749964223 0.6930228594024839
P 0.7002842569689202 0.3390168661658657 9.083654998411008 1.0056360936943842 -0.9798361019121447 -0.5334771664939458
P 6.712960470040866 5.5565446142239665 4.534487162791322 -1.3192613141905667 0.33622367462198866 0.9191935485294234
P 7.0490873818009465 6.915922272748193 11.619511945017035 0.72893371436648 0.19506059798569633 0.20497682865814376
P 0.012592405998233018 7.835646337075642 5.012655010334611 1.3032356281862716 -1.5565101155085388 0.22899041796392178
P 5.759848150114464 8.103971538088306 1.465417465262025 0.18074932356934675 -0.25759959706018215 -0.546046518518524
P 6.860543025010621 3.8126986525690016 0.8865639387183423 -0.2655615322197362 -1.321707204627898 0.8037165638053255
