# total energy = -340886.30108190887 ev
CRYSTAL
PRIMVEC
9.10016680760796 0.00000000000000 0.00000000000000
0.00000000000000 9.10016680760796 0.00000000000000
0.00000000000000 0.00000000000000 13.31901398189446
PRIMCOORD
 96 1
Ni 6.390692228489947 2.155228900995766 11.73105412654486 0.8667895810064103 0.5008354691995246 -0.22794552163917517
Ni 4.662388552171867 0.4570831774120918 5.946446656365248 0.5762333265145496 0.043375795882473686 -0.23839731310011844
Ni 2.996047911511169 2.1168807981524407 5.0179384386836645 -0.4748670701602209 -1.4197479961534194 -0.8194033784129628
Ni 3.406356231634534 4.847003635793733 5.078913196227903 0.8157380137462338 -0.5543408973168324 -1.21808686213207
Ni 3.7478672908429633 3.1401399524274516 2.97715960532664 -1.47259907851618 -0.30384782939444444 -1.3006593828186632
Ni 4.7331969499468824 5.170296161093208 2.6496446026376774 2.143457743116799 -1.410615951945164 -0.38541350608307823
Ni 5.185329636626471 3.1693332874823614 0.7467342061308334 1.847132961572277 0.25975135329586235 0.45320269781290984
Ni 5.935347182934303 8.164014429906727 12.678982100151375 -1.3661147842089956 0.5832359830846278 -0.5708283534488943
Ni 2.5379546155856434 5.569520478069166 11.532814273208466 -1.5643722918654348 -0.3225862863442122 1.8162126178443367
Ni 1.116244658511627 7.724276170391972 11.395947764721607 -0.5385286128749242 -0.021541987836833868 0.29149316448383344
Ni 0.4516749482901677 -0.039794119345889466 5.126754593064146 1.3026393893631694 1.9953359757744864 -0.6251295379946201
Ni 8.834332715487971 2.5902714744480733 1.5111882570306567 -0.5113083437063903 0.6044771518515912 -0.1953429051128055
Ni 1.6670959545040762 1.5193274462055666 2.8069955865636245 -1.3355590229093257 1.3193847271423083 -0.7063388597850997
Ni 1.6630645806171296 7.2630069162575435 0.5078712082541895 -0.03539997676584872 -1.8971288338744297 -0.12487950898492041
Ni 7.983958529845493 4.233033582961866 4.01935893673687 -1.22330157356379 -0.3799699664700037 -0.7827340480163875
Ni 7.629088425792736 4.090033562060106 12.70823094622369 0.5071930359864363 -0.7277088408204435 0.9541710930458728
Ni 8.165861763764628 9.106263899437721 7.234675366997428 -0.7835568010279989 0.22992244285988792 0.3054509122155062
Ni 7.265309258454829 0.9715884072545073 0.38963547123177006 -1.20177192702213 1.2366558833835088 0.4571295436711417
Ni 2.195215033860876 6.8966797022190836 9.261549145502864 -1.1491481301788273 0.4699740037339777 -0.39403415787255364
Ni 0.12043979741839798 5.236609076475104 1.42464203081301 -1.0259439520138007 -0.24218557649795713 -0.08432241349816445
Ni 6.527131029137781 2.4197161485131877 7.099660742451865 0.46892807896796657 -0.0003069897174575358 -0.5833154301723116
Ni 3.4292340509387866 4.638382312185941 0.5543894408395031 -0.6916848573173507 0.8392435530673417 -0.26934465341125224
Ni 6.107895445395693 6.154497399515453 4.545007320810812 -0.6390662026803704 -0.9493459037430876 1.63875867719681
Ni 5.223668639303009 3.045261613498996 9.808774935047097 -0.9832893505680679 -0.1124849919753095 -0.6918846320329827
P 0.28623573612332154 5.934500867423048 12.664930532614502 -0.04660510145304877 -0.10422069508398824 -0.2969863263879207
P 4.231031546268575 6.444801820209551 12.926822412564073 0.14696708491257915 0.7665371265415508 0.1158636786395553
P 2.633833972860745 8.935508369833506 1.2858444669338052 -0.9556636184309992 2.0815306665946993 1.5325960278951025
P 6.4176014216811454 7.952562954427963 6.107007269117214 -0.6952370934449833 1.5244883111863035 -0.7180042119381699
P 4.943347101575007 1.3112703329386108 13.015593629561312 -0.4882447770187076 -0.9366271706248386 -0.8340962045384473
P 4.473523690660149 6.6714960750576955 8.157429549219154 -0.33757736043640574 -1.1540249986551545 0.9952251827737054
P 4.859507264960019 1.4686304170313458 3.836848721692996 0.41273173428205695 -0.7146417232238402 1.3442084710542075
P 0.26179632819830134 6.032418662058592 3.5597459129578 0.27844121639588176 -0.5620781180600901 1.2586642693338
Ni 1.2335822090721016 7.866275172947087 3.0297558393094515 -0.7411737080760977 -0.09183723381797086 -1.24390408030549
Ni 1.8540042801564407 6.768649455683073 5.139860653271778 0.3819057500401358 0.09901755361649399 -0.6922767252650787
Ni 6.0210707540743424 5.867341636529895 9.652435889667942 -0.4584438916071911 1.235032488847473 -0.365374585154332
Ni 9.186618372173026 2.776124180753065 10.07717889434994 -0.6952471207473123 -0.7815762802628604 2.292033053056762
Ni 2.672627983876667 5.346084082931014 7.189710532882773 -0.43155066676077297 0.6057894429051115 0.7363456905598351
Ni 0.5211155909969936 9.054702354418671 9.38987787750951 0.45225216097418247 0.7996979295642357 0.3928136552018912
Ni 1.5770225036395211 1.2347288300873505 11.658186361025791 -0.10790688568632384 0.3764917781134161 -0.48103231843066835
Ni 4.098205511835452 7.216714367808565 1.6957505596851545 0.13280853402401 1.8611621859718335 -1.841722332079667
Ni 5.958752811912242 8.482383764974061 8.59752999537206 -0.6159260171184812 -0.8794298954782402 -1.7814495033315385
Ni 7.260668173393108 1.063145185305456 5.053646583141882 -1.0867808807955155 -0.8201937355247422 0.47687278773633995
Ni 1.1647212469896515 7.960361797365014 7.272767755154019 -0.6546391174179629 -1.084386926642042 0.8247708133724635
Ni 5.25521891755593 4.379955775749121 7.67582779243099 0.5008118150504407 2.2069920162250187 0.10410422411078199
Ni 8.196638527840596 7.017466215992093 9.328570963877521 -0.09351436441007767 1.2916129563456789 0.48487020411951975
Ni 4.628745235557777 0.5765701873678187 10.506797768396783 1.7925949784253967 0.06534124440997133 0.4179541590232608
Ni 8.2027720402555 7.322294502879344 5.169175930561643 0.11377234332816535 -0.8904326743466471 -0.3123635801749395
Ni 6.8818828310223 6.292847235188704 7.409819907043345 0.15505191880324265 -0.25498478514515444 -1.2816324480941992
Ni 2.338215054762636 5.69008858783927 2.423727502033201 -0.7278713345402368 -0.19894039265607674 1.2852224794383027
Ni 3.658503652987848 5.086956833651543 9.537532633723174 0.3093566750278156 -2.0390190184847334 -0.9734937046338847
Ni 1.2702194805593414 3.947106342492648 4.162871297028777 0.2799026314327567 -0.48106728543366184 -0.3647140687521977
Ni 0.5171024174436223 0.2699409774732839 0.3659759476004549 1.4621688843217915 1.1278748226223478 0.28491885370042547
Ni 1.3441674358761102 3.7055879159473557 8.407148136056835 0.0700839013012793 1.310269909325234 -0.5503022084710846
Ni 5.35724998757951 3.3762528799008558 4.64655153191125 1.2033842658145726 0.6947843221782809 1.0644125404026443
Ni 4.233342988632648 7.007128426521277 6.052879477064034 -0.12650161796937567 0.6725851603734223 -0.4764251586759602
Ni 8.145450089659839 7.612325918569811 0.22149805961237387 0.9447870807278116 -0.43972137549702334 0.5806682223574516
P 0.27630290407455793 5.916873844355293 7.972109202671242 1.4454235465426526 0.08297412700038613 0.5594363095618688
P 8.417526876278194 2.0282451736403404 8.222373799516184 2.5021752279659295 -0.24763400120703802 -1.75369624447767
P 2.0992810755850484 3.699499904366391 10.615999769849063 -0.37773362094031715 -0.19233574285536553 -0.47751556352666147
P 4.024612463023403 6.790216850969899 3.7221711498845633 -0.7620405242227779 -0.3270399512401916 2.6195036640764693
P 6.858413500876848 4.173736896173279 10.540521166478605 1.3375719395742964 -0.39936971115285413 1.527466419978021
P 6.612599795607766 8.108157606163886 10.526150183087484 -0.3216270077547364 -0.3793063647440758 0.9060896641576137
P 2.4771291007767235 8.749773965696756 5.8694501451746035 1.3664829661816917 1.2252319578172834 -0.19501971744543187
P 6.902003299789882 4.070777609137354 1.8415798224412077 0.1672255780512991 0.9469504069277175 -0.10206199686977262
Ni 2.9735340988784236 2.2735492695693114 0.7177028540447449 -1.2298260049458691 -1.726787078791652 0.8822539951905967
Ni 1.5008996084604944 1.4356696129263327 7.522179666370954 -0.3254435532873492 -0.438227050339684 -1.1021473359492568
Ni 7.037923390930819 1.3239104646067121 9.490649484449674 -1.0255024936010082 -0.8389208796206002 1.0197036275310438
Ni 2.8799388834670325 2.0146222239591687 9.5510118007691 0.03060461225973439 -0.5112486941130486 -0.8264142625131574
Ni 6.796068258214383 2.0086798150468073 2.819222570659565 -0.40632737341760994 0.6944305383832878 -0.4902029291863429
Ni 4.070067796127915 6.980419436999407 10.80510305573062 1.817893347980869 2.662707196047137 -0.2906698972515897
Ni 7.343070183655639 6.213193475296054 11.772144109641317 -0.696764328722787 0.7248968252929451 -0.9443649055887283
Ni 7.8611881797127685 4.298390980831056 8.557812317427187 -0.1005159925388914 -0.12305916794672998 -0.3133673388491055
Ni 3.3248369375504074 8.651473964056128 12.53804053697699 0.7332513679052275 0.11081454625142205 0.2065662846324507
Ni 0.22666786436446054 5.389755783345138 10.591213645569432 0.6818946106998063 -1.2069501287889601 -0.6582435469397695
Ni 8.715329834405349 2.9026893004362573 6.195406289292834 0.35846551673932464 -0.3844208031525057 -0.46917721886429525
Ni 3.671507791327457 2.771237391188076 11.912686175493722 0.1387611520630191 0.13947206208711463 -0.910649258503838
Ni 1.2495257012841345 3.679488637600261 12.746216862428865 -0.03633765808876968 0.7148962624368075 0.1026410093016942
Ni 3.4924984104468075 8.720516929474332 8.062185383585835 -0.18855159322258497 0.3743616191442907 -0.035153150862365264
Ni 5.764063843656403 8.360805536690524 3.6077611229796887 -0.15361621479798063 0.5611934014622916 0.7110532345416335
Ni 3.025068343397112 9.099511575681257 3.5433637927066 2.927272425791875 -1.2594096321402568 1.6814001660164206
Ni 3.927113276060093 2.7581240508470146 7.040564259332607 -1.3513790206607177 -0.1348394484111097 0.12869476896595253
Ni 4.982668922264615 4.817418993566953 11.80063309178686 1.0286405250093575 -0.7323936478906226 -0.12498415288358473
Ni 8.554338783764326 0.2345531588859939 2.5437987426966977 -1.1637951906680408 -1.7851554914282157 -0.6560971900207281
Ni 4.78280195910658 0.6645997407718588 1.849678060865573 -0.34972042355684285 0.03873958266204296 -1.5302730361888806
Ni 6.24192270184479 6.201508861140659 0.7932315083325353 -0.7310857277124764 -1.4480931229550158 -0.7611833184288053
Ni 8.09081268826655 0.056939743590576145 11.61291485129039 0.9407185670853928 0.607055968322361 -0.563297849399804
Ni 0.1954670325161867 5.2189911535741365 5.960258889515604 -0.40752705015266594 0.21722582122882586 0.2625746816772704
Ni 7.43864013525996 6.5861820114231024 2.737976281579069 0.5909225530956081 0.4857700902259699 -0.06812677757490848
P 8.823640019512434 1.8013325147892911 3.82484742173339 0.3209924594945311 1.798114622692045 1.4847190017081655
P 1.5468554507383288 3.640303319412468 1.9911392435635347 2.5624953650122255 -0.3367957450753748 -1.0868217613357798
P 5.049009138146876 1.4231204829261082 8.212330855449288 -0.8849971051533726 -1.0062333609587508 1.5796721554472988
P 8.881735484285048 2.1290113204804313 12.625612351991608 -1.2476486349495868 -1.2100704195854965 -0.811237811883035
P 6.555232344178169 8.42419729853357 1.5451792000160363 0.5388039780234979 -1.5905648911004027 1.2063430913325803
P 1.8514926341230382 3.350135401220186 6.260030213718936 -0.11596189478031642 0.9685656712046481 0.677153239360079
P 6.821066416380168 4.448680235329755 6.0373227419404785 0.34670194844549324 -0.3150413841174187 -0.011997024460876114
P 2.7070266143341355 8.924897575359061 10.257944607420615 -1.8656348770312063 -0.7859088461999433 -0.04869412277159355
