# total energy = -340857.4622805502 ev
CRYSTAL
PRIMVEC
9.42318304496301 0.00000000000000 0.00000000000000
0.00000000000000 9.42318304496301 0.00000000000000
0.00000000000000 0.00000000000000 13.79178089624300
PRIMCOORD
 96 1
Ni 7.498007791775646 6.965155068001629 10.089597939439653 0.308757607991236 2.6966514142030658 1.8446937560031649
Ni 1.5605921673946 8.709452186144713 11.332016336020068 0.7619042557552298 0.4834085319723288 -1.2097696005156262
Ni 4.255895750756373 1.5061638629307252 8.116642576495991 -0.3961069812411824 -1.4685390495141935 0.04064168478076226
Ni 5.764792336729779 6.711690294201543 0.5650093354400436 -0.8252271841835918 0.07812348377630417 -0.07311703170064826
Ni 2.63455232316811 8.231489502796954 4.529786215823062 -1.2283512201725555 -1.2861719878357656 -1.2958532196792716
Ni 0.18069424381008112 5.331109189856354 13.315329661613783 0.45982534533575 0.5580808239752388 1.5801611792685752
Ni 3.8335392697357147 6.5043520007253255 6.013161053214412 -0.43107732666878024 -0.6160304039068293 -0.008764890676823615
Ni -0.03812619803684848 3.3240466163851647 7.2782808397331795 0.29872233524242103 0.6517093453656776 1.9684838885786486
Ni 5.807630126219525 5.0706052984256385 4.670586472483167 -0.7267994416322967 -0.21551063830993208 -2.286280466843701
Ni 7.506205960903689 6.328995990031378 12.386881353953274 1.4229968421080201 1.661446862822945 0.21737494521218045
Ni 4.354302049841595 4.407769189649079 11.086936310369559 -0.29581313201542603 -0.1877614932211218 1.163505427341764
Ni 3.0594907563049567 6.100003222237642 2.8357551822543643 0.8702513143027657 0.5866447516558606 -0.17716983374820455
Ni 6.206833846840644 0.5802334297426468 6.812642737307911 -0.17786994513902268 -1.1293758326479066 -0.6163564197876804
Ni 5.074383994770862 1.3958749302012952 2.5494798278945887 -0.15971307172433782 0.3681382639423983 0.2131917603687683
Ni 7.811941130282222 6.373774955199718 3.067099034183096 -0.3091324748321515 -0.16161131718831523 -0.10275233806857786
Ni 7.495727381512444 0.6625637787905819 9.085584185739283 -1.943125869429834 0.4116649835804394 0.07764911524304692
Ni 2.14922071078802 6.805601735040701 7.93754179291528 0.5955981041944066 -0.6312143107361193 0.5249372473437347
Ni 9.21032262713646 6.557819140532809 8.57519161842123 2.778586815526292 1.8626547113569598 1.9474910883770653
Ni 4.991582486577637 7.631251598063594 4.369152986101129 0.3583153643147055 -0.2911524933149631 -0.5883432224042061
Ni 0.24355723929293327 1.23494581253612 1.6970926256947907 -2.0051563042990175 2.2373186922330177 -1.7792712647332969
Ni 1.924232795729247 1.9329398167342022 8.006252815709468 0.5639611940154158 0.09536710134810027 -2.5613036586969695
Ni 4.012202817629596 0.21462335618068829 12.12587143760052 -0.295205323228098 -2.62647032520229 0.009422321755164416
Ni 7.642964614415498 8.899659133098194 3.884840962111446 1.4286216444939654 -2.5249613726225095 2.098694837078811
Ni 9.37695277045964 8.7606483388719 9.367405201539489 1.2604280461024422 0.3224155650943028 0.544748625642707
P 4.004645424939149 5.546193339681136 8.095071968506335 0.5049770021717238 0.9852559873761353 1.3266964303123732
P 1.9714335189043768 9.193002816955607 13.336555381109086 0.5489927456310416 0.3708479495640774 1.1518961252376099
P 1.0763347978657705 2.138657322750623 3.3923778849082495 0.8134152791503282 0.7295037279373372 0.38498953117178214
P 1.446920312001989 5.445412398503653 9.669334347342371 -0.09953151713843503 -0.8495367074632336 -1.3927380432234786
P 2.232003372615433 8.850168576476957 8.421082058224979 0.32726132322237833 1.482138642575499 0.69718187587618
P 3.4561407943586056 2.1618383526988803 6.209528877151702 -1.8733828964077412 0.041703036165741086 1.169086263863651
P 7.819894296654714 9.365965339191483 1.85030509887841 1.047216488239332 0.6604626660782754 -1.4172113457744948
P 9.336225773940793 1.542339462106074 8.57008802255945 -0.7946963625845861 0.1575021801159481 -0.6205213497986475
Ni 8.843185997943761 3.636151857408017 2.0963924627815493 -1.5116914165319513 -0.4126427741126764 0.4729343719138822
Ni 0.6876520609589717 -0.090035685710004 3.4627436186206966 0.030578644117805403 1.1969194840258353 2.8667239747848563
Ni 8.176929273772398 1.4319657207304919 11.706546394520654 1.943583011571911 0.15190668830604162 -2.198189844552356
Ni 1.2739012506686784 1.4612906659333271 10.116285335747156 0.5832768636248922 0.04690874873639663 2.432842603008378
Ni 1.060409618754976 1.9666936579027616 12.692314039160532 -2.208246714567726 -1.1802798185866252 0.7087976057382374
Ni 5.31933021122411 3.1453736453083767 9.182002193231382 1.361154611990243 0.5272342709080274 0.7262687659398072
Ni 5.892957047431504 8.688532720093846 2.454509221296819 -0.5219640236480237 -1.4603493146145494 -1.7631831009221828
Ni 2.7136882132109803 6.773525220429373 10.64484108811613 1.255394597443593 -0.011211038224471014 0.7904478717208774
Ni 9.249447682561321 5.415851873728173 4.994044764270922 1.72900671215079 -2.586328462876081 -0.11588090503073592
Ni 7.295060701533529 4.9265248317960255 0.8825950996409062 1.44575444751951 0.8268886310464145 0.9298302023076631
Ni 5.926192613540244 2.6574318112633812 11.778745879626568 -0.7964030608630478 -1.4830583261762909 -1.8800381969407298
Ni 4.593914744770163 9.199288079953773 0.44748716751212486 0.30307444156352964 0.43660288447269974 0.32631284326617993
Ni 7.830881727922871 3.045412521043698 9.608568010056059 -0.04416641010456909 -0.7300351749607751 -1.0092356381201846
Ni 5.140299159196901 4.2826858597575495 6.930894259592739 0.73014110441102 -0.7876829073812305 -0.6237069466154807
Ni 8.81815802414597 4.312679850946696 11.474871788871928 -0.7787460099029169 -1.4126895466447413 -0.30945694805110574
Ni 2.4419518877565562 4.6693850166626785 6.869409875769005 -0.8325841387692952 -1.671824092292211 -0.8760668925432783
Ni 2.9801569794210647 3.8860452448868066 9.269552043290837 -1.0342496436660187 -0.3775677847864143 -0.12446453293468887
Ni 3.5741850066195053 1.3373758107221168 4.197390977367451 -1.3905698319275663 -1.3455521295662958 -0.8690243838742
Ni 1.3687173170667923 4.368625287858404 3.0560381020882734 -0.2166110704629624 -0.016889062445854783 0.22378341984168554
Ni 5.257891058678323 6.47301049438065 10.473437160332873 -1.3197282265246564 0.5802023384646267 0.6014406790181126
Ni 6.717683438529629 1.218398703353543 13.264107123974458 -1.223191530348487 -2.456932811188362 2.0898268451652204
Ni 7.9089527982973875 1.7030047306498868 3.549631961240165 0.3151213454257347 0.5230086628624542 -0.302895235673188
Ni 0.053795066572605195 8.047388778366427 12.905700131425691 -0.2260130805031527 -1.1191940070188984 0.709572536231049
Ni 6.257964037287491 4.592454151419764 12.767078514653404 -1.8539517842663231 0.02495358462154412 0.1201643628974382
P 7.684699891505266 8.67174060815572 12.02316439783709 -0.4416602443909491 0.3906513574432498 -0.6184364422451607
P 5.969982144503476 8.361359809604629 8.729728048803112 0.11889680903892429 -0.4336294036666725 -0.011491288469051177
P 6.722197143141505 3.464574543059293 3.5105596756395747 0.07671966145024207 0.43847310491221897 -1.0403153902441244
P 4.039539471239309 6.08629249110971 12.599301569970589 0.9455332148652167 0.18090204709712715 -0.17990728728402564
P 0.1328235323303495 6.120734224630391 1.5346529718098167 -0.19802482282034284 -0.11989079752107741 0.7565231939489746
P 1.4524799899164085 3.4853055454520425 11.237198384985374 0.5244950175999935 -0.26053451131879 -0.9302166391128043
P 8.383202747580262 5.478233344564539 7.296486429107175 -2.322928199973722 -2.8415479897398614 -3.2948972404329644
P 4.3829862186068365 1.551187830854616 10.608541102926425 0.4442310904419188 1.0994520485052808 -1.6577007655169513
Ni 9.457483291572569 2.6277393619272202 5.211486594458733 0.2338066084056425 0.21741094065643848 -1.5460282421406084
Ni 3.4107681686672007 3.4883021176160853 2.1678889784426914 0.5740401755179727 -0.2078001570395518 0.09577230720631892
Ni 3.4241679347592417 8.708283711464393 2.357222396340806 -0.46807164450494226 -0.6213610720911235 0.7610897302737344
Ni 3.4669397619686473 3.7652117704857915 4.64039647908958 -0.7072739700048594 0.8785667761469966 -0.2057378751938844
Ni 3.729252904517276 8.985268749797346 6.157974643474095 1.2482333038084634 1.4281771007573791 2.4349719906465546
Ni 6.33282180229113 2.712915512212705 1.1841124523508064 1.9544130123078793 1.6840252623440934 0.6319858987948213
Ni 2.375631526465568 6.7776902672737345 0.07890784901655014 -0.39950289429660873 0.8172881318421732 0.24335774242918734
Ni 7.6535374256358 4.047633985355387 5.911543333394895 -2.2738538110445745 -0.970662920053309 -0.2963975437639863
Ni 3.2272987974913625 2.174559649621704 12.520634012118137 1.216891299162072 2.5361065906060514 0.1580680799217471
Ni 0.7013514842674172 8.545931693180442 1.4699006281543525 0.5290648963588631 -2.969679687113492 -2.4136976546488107
Ni 7.825538783215285 8.245087155730017 7.508548564174069 0.1658225270561854 -0.7370530010395049 -0.6006701194006753
Ni 2.4316711952063335 4.519726025752835 12.879302969151686 0.31014728924991103 0.14451733782050596 -0.2925905113130703
Ni 0.861947021257727 8.112521818611286 6.414860974987276 0.75952932776515 0.6000437986705859 0.3494905669342239
Ni 0.16481806525039688 6.494429389125522 10.896058432793186 0.5403044738284243 0.9469684046498466 1.789168212132035
Ni 2.5436091849442777 1.2198687198868472 1.239058089556209 0.6949722698193709 -0.572117504573963 -0.43108735397110926
Ni 1.6344981909247538 0.9216796353792741 5.425755638962164 -0.014592810212510353 0.15872036879376536 0.9218073320031867
Ni 0.8443529964543164 7.102827770255302 3.4856796458134025 -0.2959152048109291 -1.8594958540130042 -0.17146892670868533
Ni 1.3769343325606462 3.2530994722874307 0.8818327641438274 0.0014639861400361884 0.8807632695776831 -0.3820057659531098
Ni 8.695845110028744 0.4152316124255869 5.774949585583936 -0.3338585168239218 0.19085273055193583 0.683481752681268
Ni 5.266475578305503 2.5352602448897428 5.2008666673239015 3.6622752291705707 -0.5460166937218532 0.10708773221913814
Ni 6.315370067549597 6.499178673310044 6.322110470282112 1.0977198963055224 1.0171880601980416 -0.06419633217225074
Ni 6.443817473738496 5.92803955738978 8.55883391521506 -1.0447096626570782 -1.5576894805286206 -1.912363391435997
Ni 5.707527654211259 7.97028829583121 12.338802390131326 -0.6383912881005328 0.12478309261637217 -0.14159167953327875
Ni 4.077307588325738 8.698398792596215 9.968671175527872 -0.019639885718114564 0.4685285295367028 -1.3297455015513422
P 6.806638285160338 2.5170075396012175 7.303658413616777 -0.5023187386132704 1.1450212524946475 1.1687612764240647
P 6.68215803897478 4.568688884131348 10.614705749183397 -0.241267692669378 0.9786693352975533 -0.48454161713550736
P 2.1507566896016646 5.454958082787225 4.719423060210743 -0.27670443621043317 1.4203882008405795 1.2827588483891585
P 8.690492742138252 7.26307841875126 5.3433630969070505 -2.4207828436303664 3.3413840711405935 -0.2658276413969293
P 5.760900562189685 0.294805219526102 4.521221484879985 -1.0983516163522504 0.4767550312115531 0.6661671726622205
P 4.390468225834039 2.3202609037111137 0.6249209900368007 -0.6358654363548856 -0.5055449588600519 -0.876976034621109
P 8.20886444064014 2.9745973015066456 13.445068986179066 0.07086834487578762 0.4746048176377697 0.5148071008882682
P 5.207816264716927 5.978133197716989 2.5178132217396625 0.6366730198578454 0.44769205240732574 0.8243964607521802
