# total energy = -340857.296055322 ev
CRYSTAL
PRIMVEC
9.39759925062339 0.00000000000000 0.00000000000000
0.00000000000000 9.39759925062339 0.00000000000000
0.00000000000000 0.00000000000000 13.75433642717321
PRIMCOORD
 96 1
Ni 5.50298041752251 4.537931547346111 9.68196596063434 -0.9238963533217316 0.3929699782740974 -1.5779523445427148
Ni 0.7334939028338617 4.373652113904489 10.090030397153349 0.2596760199732367 -0.07971499663314012 -1.511044784086888
Ni 2.4994794870126555 7.640680524110583 7.209404017309507 -0.19550257061912135 -0.18818675368399848 0.9432426190588271
Ni 7.101765794395849 5.072260248600259 11.188217875956111 0.05723738435591432 0.617383318390298 0.698745620818874
Ni 3.1280473140921323 7.302752250720771 0.8100937347646816 -0.2161493003351955 0.13004202702246637 -1.6548401561397048
Ni 7.3737981014626435 0.18520224853311731 1.2654910597005675 -0.8018185754516642 0.6766279629842282 -1.5094453008102522
Ni 1.5219975929564298 0.1432231724400033 3.3174775425523353 0.5185398284578231 0.025740342188897602 0.5118608737757507
Ni 4.490069574088393 1.412496765860624 6.34476567642169 -0.8843705273129673 0.34488829227552215 -0.19157623898152168
Ni 9.033244981846403 7.861646276556831 8.966424291751826 1.137840418475492 0.17950748074244569 0.01048650135362065
Ni 8.849305770659809 7.085075658031092 11.477787043084996 0.6658362716853629 -1.6794916361397978 -1.1383016743826266
Ni 2.2938788094292333 7.085254212417877 3.0011411933244987 -2.1281157134430897 -1.6696700220636858 3.1850458294257598
Ni 6.583187469576011 7.141574025049628 0.46830586734052027 0.19978551426519142 -0.7071297311175112 0.11935935049763959
Ni 3.836118831287514 3.1299832195488557 11.166911638812994 -0.15463848541490788 -1.0373542507332716 -0.13888225102191565
Ni 3.4088945693065296 5.533842133638423 4.78696323011519 -2.9195251777462885 -0.8822753353468353 -1.8809280557448511
Ni 8.03974018097604 2.268007218543999 10.147991030623661 0.7276684745008113 0.10881139977846421 0.15670385258436884
Ni 5.228034854671326 3.8207913468219066 6.924936806843023 -1.2435179006106647 0.6248644572586917 0.27472057301118497
Ni 4.059236633974487 2.4138015741537076 8.791056630890846 1.266098357014342 1.8410831558337712 0.4168300727211466
Ni 9.362922163046882 4.753606451383936 12.116319144707015 -2.6611627343781525 0.46931168755963043 1.5707123751508496
Ni 7.096521933983948 8.033208849459426 3.0500650953036237 -0.478818084388169 -1.3745757704921553 0.7013455203355663
Ni 5.751603304721844 1.532090614609442 13.591938645335903 0.40901777576557946 0.6650677689504546 -0.6829089108969336
Ni 4.162224924752288 5.357580761083588 13.799313589668012 1.4436865092468878 -0.12206440813362847 -1.9193110263984237
Ni 2.9658447500968004 4.736239687869257 8.913539301665862 -0.6664145127863361 -0.9522569067422955 -0.8300796271798866
Ni 3.1159901941844845 1.1232292616694126 12.914042819507209 -0.08059534235556443 0.3017724349226545 -2.2944041243921003
Ni 0.909922552656316 4.061172539431211 3.2515806364693884 0.1958905500861594 -0.1610824412680387 0.29869893820365334
P 7.93264513930218 5.187963491237022 8.53413942254538 -0.7256391027756084 0.1317710938984311 1.0076181571214196
P 8.889461712487854 0.11287268572625336 2.634409278066455 -0.6287969595438784 -0.8371776716772484 1.285950615853579
P 8.879274714841797 6.408617664895983 -0.1153874833001323 -1.6285300574902664 0.41806985866551866 0.4242996416253144
P 6.6087395420848924 7.817111053452898 5.480346299597668 0.9238385035006026 0.20614796614810948 0.17757426827547482
P 4.154359134134439 6.469467120392492 2.7425869231801903 3.1277999604294133 -2.2535613793441254 -0.3576250231159002
P 7.92180030970481 2.1069699568624225 12.399850354282771 -0.7494112654945416 0.3212040612847049 0.09559644375008697
P 1.1898112527416562 -0.05666188524643421 8.968735161420797 0.23172247218310413 -0.2672576889752365 0.22230452130331388
P 7.82900841417237 3.918047102023974 1.460944209555012 1.406990439377435 -2.586133059035823 -0.08063313757203533
Ni 5.80917299806109 2.4996204510022233 2.109075958866556 0.8639428555862346 0.7612159714389535 -0.5329470050220886
Ni 8.084792272041717 8.53626234022826 12.997641983400007 -0.7550689780009512 -0.22493630249920618 2.25842847762844
Ni 3.5446616864583587 3.7062440088995947 3.2147739990334605 1.127321007001407 0.5290337860106115 0.31958580895499156
Ni 3.691170259615208 1.2482549228162199 1.3221877160644282 -0.2099801954100061 1.552695883968771 -0.8051890345857938
Ni 6.80631466986229 0.49161003409577075 11.527014487521656 -0.9049326677350351 -1.2184229053152498 -1.1295987472919902
Ni 4.253597782789751 6.287501405059839 6.511715907585646 1.8850521052155536 -0.48726981469994796 2.225907622182599
Ni 3.6129728358026263 5.5788848271047975 11.146018896039273 0.3696547005869246 0.8779903348182363 0.43168179302199844
Ni 5.785585023806845 0.6706239634868877 8.421835291577047 0.6766387616175057 0.593627610731597 1.6311291856760102
Ni 6.808767443280758 0.8256599182526229 3.796706239564453 0.3089854077313259 1.1738785430459717 -0.3156363373889403
Ni 1.5299667571666293 6.05090744497024 13.341734142173626 0.9189734620988173 0.9044079055798165 -1.1064053398946623
Ni 0.1442089806070433 2.1088306815247093 1.9949562117125983 -1.6902712432538052 3.7195432096541032 2.2448787639684626
Ni 6.5943894079469505 0.6046603344488788 6.07582705904593 1.235117078141479 -0.7934018121428787 0.31576077878194647
Ni 0.8565300922079107 0.6008655838497295 0.8771305696432622 1.395717951787409 -3.820258205577679 -1.7609953492422443
Ni 8.715596727755662 8.657322214468579 6.579992285812487 -2.1679451867352015 -1.2351579586817438 0.8990885502494321
Ni 8.184585379055996 0.9556888612691357 8.04372852212086 -0.013506004906234804 0.48294059119697463 0.6917928436501247
Ni 7.261393416181753 3.1493328765167807 6.253862698349451 0.7912431139286631 -0.6722411467704422 -0.733518248413369
Ni 1.3619376816025195 0.1301191599698358 6.434484556981564 1.7546202989538362 -0.25152562295196035 -0.6233845302790555
Ni 3.296612052816598 0.39144572190896626 8.544386564826985 0.43437399514218095 -3.1814758526863143 0.4004961114478135
Ni 0.5724989303491554 4.134154295629806 0.6800582134286556 -1.4641002970165495 -0.6229836952962109 -0.11596677987632287
Ni 2.453854142389403 5.035900936891224 1.5088230984914788 0.6204568151092992 -0.13884445580544474 1.227616141778744
Ni 7.955330944023196 5.764656570155767 2.1870769728536743 1.3232753204459664 2.3761361514552695 -1.2207849777895232
Ni 6.001391494234932 2.820792804832146 11.149485670422695 1.2817232080357928 -0.47437290413262173 0.6811831864550785
Ni 1.9905618942778234 3.8713316358814023 12.126469491715785 0.8131340004644835 0.9351130479731572 2.1540571158992
Ni 2.5114238357286505 2.1502740944574676 5.113532625225676 -1.2284268106054972 -0.02147616759590495 -0.1316836763909474
P 3.0449631386412213 9.248365427525265 4.983360838699735 0.33511681471105514 0.6960840148263109 0.8086587383019492
P 3.530602877898856 3.2727233553846085 0.053985448964518186 -0.07090922541605207 -0.2949045041582276 -0.441960035019555
P 4.249697779078392 0.7240136046555018 10.735451878825481 0.44550250095517463 0.498667000793296 -0.04383396646581483
P 7.191005397391194 8.536224749831042 9.419850000353632 -2.297066758825928 1.0811460511072413 0.7679653743476451
P 3.997400430551007 6.5487640633236985 8.674750062378736 0.27159025491231936 1.1481659687712162 0.6080005916238174
P 0.4856350404579821 6.1499299488415495 3.6234558578267744 -1.125769860464203 -0.901185799098093 1.9680555427919784
P 1.5270065133857178 6.3230525232286885 10.743512199748935 -0.5754771650748154 -0.008016185436257161 0.17883899392051136
P 5.5288989964042665 2.950611241624238 4.455648987115872 0.7821619775630013 0.3289749634793753 0.879431181029821
Ni 4.826691581174881 7.923783203158055 10.416681551377783 3.9223369146179996 -0.2382062801352349 -1.5562812873271843
Ni 1.7546821517353648 1.9523042675092837 8.205397302475697 -0.8708277556315261 1.118189477013784 0.4083955688005482
Ni -0.1351384177583588 8.270084737528158 4.490116562084915 -0.4466895792847404 -0.34261389441904866 -1.897200053431997
Ni 4.871574515453079 8.696914300338355 13.390025585719558 -0.05494704565984085 -0.202915832364057 0.009671461651493022
Ni 5.700903256474171 5.1226877664681005 4.580826889371412 -1.7321210894100556 -0.5814974031269663 0.019488961962547083
Ni 3.5116385225024143 8.69392586375953 2.482272482686152 2.132267016607302 1.6959999182074663 0.7271015462537478
Ni 0.43627227059133783 7.401661983400428 1.9611896976516698 -2.2099431284335425 1.653994520309958 -2.802678052147541
Ni 4.673087820543149 7.8135493633165 4.557128023445373 -0.2610533599367375 0.015906386817611317 -0.3118424175641468
Ni 0.6827882160266071 2.0104190216081905 12.817281378028557 -0.7464681237058176 0.2577734036338851 -0.8328862433907461
Ni 9.056879944097172 1.5155320446349474 4.488122391512504 0.3400327639554337 0.08616589446480645 0.42186994913789927
Ni 9.138911588425982 3.2520016489182293 8.290701190882327 -1.0146915190284331 0.8008865505556981 -1.1647045898561879
Ni 0.4546163844336836 5.95849145340998 8.025572360264604 0.9127850738999184 -1.600077201466212 0.7826168057122328
Ni 6.100545564496505 6.751066183551249 8.353077756265817 0.7764721262670757 0.050328573051223006 0.8307329444931691
Ni 6.474485438421086 3.974432697850857 13.78377090017833 -1.130626417225556 -0.7654153542322817 -3.2879267226524016
Ni 0.6362155933934631 6.67851671692066 5.946261417675129 0.7112789773991943 -0.9589170923712905 -1.566184148263193
Ni 4.3524135394763634 1.3724723904228422 3.5792082012615585 -0.8776563485175853 -0.482993041701465 2.6787485657807157
Ni 2.8701114059820587 8.151862938277795 11.046217331185622 -4.049660257157722 1.0225639797979744 1.770521800675441
Ni 4.841755932859963 8.505015322540865 7.1436170631384215 0.02870919500923443 -0.8706081834215522 -1.3854008861321172
Ni 7.774145229432813 5.5280532124668635 4.370358255348268 2.9682948909508236 1.1443936462129776 1.3599883595962836
Ni 9.591847682104024 3.839896666207915 5.802527955592892 0.5507416100013482 0.7033887760178401 -0.6801277486073706
Ni 5.701467112432439 5.105330400552726 1.8264657140226388 -0.8923771996675277 0.6365161825650071 1.8948204974562268
Ni -0.003719569804713348 9.305718976080508 11.462616498527774 1.7564619801482653 1.6159931013655202 -1.5995814927767162
Ni 7.817299005438987 3.3408183599448735 3.4328894596106596 -0.7213710715278738 -0.30518968813431957 1.4600940040706336
Ni 7.602761210917004 6.212912659380177 6.586484147412022 0.30012847156132827 -0.2832538072931767 0.16427266607056226
P 1.9248726751395053 8.725003724659446 13.368128239580189 0.7988142414077016 -0.7370535152601371 -1.394880029267146
P 1.7605462537013608 2.4665315038511473 10.572642229915079 -0.6850051313043299 -0.4990660360039276 -0.771864195181419
P 2.283644823786654 2.0783730621788883 2.818249814460353 -1.012341787849334 1.0565853310487416 -0.23100796261458278
P 6.396692111378597 2.7985392896791357 8.60809664955178 0.22654067087184854 -0.23935890568243934 -0.23643453294679284
P 5.58029446700047 6.883562936145118 12.252417997114293 -0.20895252547644017 -1.142657123137845 0.10412967803207873
P 5.422320822692154 9.525688583000482 2.1931976292806823 1.4521030154453571 -0.33943215425695733 -1.145450369612266
P 1.9768320016939773 4.821861215132378 6.777463100237603 0.5411969037357066 0.5573447171401628 -0.2998438504413739
P 9.611488664650388 1.8405480165804025 6.5475320380548805 -1.1193045644548334 1.202745346678993 0.46802587886867136
