# total energy = -340896.9978797636 ev
CRYSTAL
PRIMVEC
9.00900629013693 0.00000000000000 0.00000000000000

0.00000000000000 9.00900629013693 0.00000000000000

0.00000000000000 0.00000000000000 13.18559134993291

PRIMCOORD
 96 1
Ni 6.231457715947621 1.9813057519528643 11.398904017885382 0.5849920465437861 -0.6463442243990224 0.5490487956799577
Ni 4.65619689543169 0.20061706098607415 5.921622667501844 -0.0447878457386519 0.6224375929847539 -0.38905573082135575
Ni 2.7151523934753126 1.6408824237771549 4.699555441858875 -0.41620503754263805 -0.5715423487967835 0.5589549990500762
Ni 3.416485530581265 4.149665505623575 4.627839245708276 -0.12051326159642471 -0.05869545695867956 0.6840944465646024
Ni 5.083638217278481 4.4556924470267205 2.590586662562038 0.32551631550681354 0.05533091136182084 0.25064244901605864
Ni 7.266781750596593 6.183502774410074 2.5734713520354493 -0.10129555101739329 -1.5486926763466489 0.3531307347899725
Ni 5.017908505939397 4.5341608935403475 11.3378157466891 -0.1360589226405076 0.12212431483728646 0.22077702891519396
Ni 5.432295777384553 7.7681329616739 12.540737031743005 0.34775250119719464 0.6191432385041982 -0.23694181160051447
Ni 2.0722246454334066 6.369700920511526 0.4801034692745075 -0.538630428560111 0.2180424035928503 -0.8229047066980021
Ni 2.645494755307303 1.7037562800594286 0.2717864104428309 0.05472130280227995 -1.0204626171842555 0.19349351060889255
Ni 0.6156250529782781 0.09276844251260306 4.811066221469866 -0.5411609082914487 -0.18417788963492152 -0.7875389256041985
Ni 8.507565187219132 2.469909218849141 1.4041734809974076 0.5706491475585527 0.5182873461273848 -0.43948303423397217
Ni 6.94974580326467 0.6419800005593302 4.782071634987723 -0.3176986192346077 -0.26610249232487077 -0.08944250833354918
Ni 0.9278105512168676 7.377511449345041 2.3835326664400296 -0.44080175304539565 -0.3099907090673887 0.8704983973165653
Ni 7.573133016233319 3.915107012692599 3.853581804681633 0.12699141312160064 -0.38574312150835505 -0.5016093712510716
Ni 7.654123984563688 3.897386296929992 12.525520819784163 -0.5949015923480142 -0.2743063682919018 -0.311666811218231
Ni 8.048556306637124 8.663042621195272 7.006032274002653 -0.6998884761740656 0.6863613882219082 -0.6068081139776129
Ni 6.912790858649411 0.7682727580164235 0.7116484495351261 -0.3344321299392047 -0.7189092402509425 -1.7385411340037866
Ni 1.8306030914155558 6.483646834576319 9.053319088575627 -0.14031641236528092 -0.1297016129639121 -0.42965164996584715
Ni 9.128556004461878 4.881980616043002 1.2484437948395937 -0.03855677722727553 -0.025663466204375155 0.4893500942677444
Ni 6.419259465204001 1.8465670509129324 6.9033557261541505 0.6205648014420732 -0.20894018418126598 1.2775937592484512
Ni 3.346548613212116 4.1639988349465575 0.17491076187218396 0.306012441145931 0.0998729596382538 0.10210699117509513
Ni 5.932610952715699 5.49426873301799 4.812701356147502 -0.02436531621824191 0.6429552533221314 0.3239579698807582
Ni 5.232403941420792 2.8051073232616006 9.190264996205206 0.02952140649788464 -0.5250902279818311 0.1751584597451306
P 0.25306119045677195 5.5375570091945665 12.273860529836332 0.5766367326005553 0.5921505119654382 0.2104010849975086
P 3.9147106164071115 6.124403691846424 12.494891098624382 0.1435868555864366 -0.060578018693373085 0.2162395460561566
P 2.565458741664701 8.506060683135576 1.397606816168041 -1.3201282901765523 0.2537092608668404 -0.5755221593801378
P 6.37082704632257 7.684583435500837 5.818748822411247 0.11653010857896061 -0.1502634962756638 -0.3949276162211005
P 4.614935645714995 0.8516502121655587 12.550850542426838 0.18782731346205073 1.4769990073560886 -0.057910756273855106
P 3.8698187370756068 6.176583857427012 8.203481488515527 0.5204414163559102 -0.9276308806634993 -0.016117474387152886
P 4.590070787807118 1.166080754821048 3.7579466963044337 1.1075389392784734 -0.8129776773922774 -0.21002827503912216
P 0.2066828250546878 5.460331805576334 3.415925170377689 0.9432292493223885 0.8956101047825286 0.7653644463896883
Ni 1.3163239560274498 1.1761888601009896 2.4979047065117235 0.8817222910568427 -0.33695695324358743 0.012552639854029993
Ni 1.857278759627594 6.630385532258749 4.721707687913107 0.3442267474321233 -1.044571080196685 -0.6330621625781355
Ni 6.052601910134183 5.663908325193834 9.356825309963329 -0.1772513377184173 -0.3368723639495811 0.43155349497425033
Ni 8.491502128650385 2.419431755494852 10.262834065478362 1.0072589740097877 0.18618360721104063 0.5496278081118792
Ni 2.460323635945524 5.149971532052286 6.784435038706484 -0.7855530055224214 -0.17965634761548413 0.6681641484875912
Ni 0.519101656561326 0.06941079139022865 8.898283095917417 0.4510787094913716 -0.6744772351898126 1.4721218817694453
Ni 1.2763509942385904 0.9415402771051304 11.426804910979836 0.26807632822178995 0.8210967069549859 -0.6598538288496829
Ni 4.24848529779441 6.976781831736242 1.6194409883348548 -0.06563872104573212 -0.10719006212495732 -0.3573074918754814
Ni 5.643602024569068 7.670024881015646 7.997364429068308 -0.44065185773109267 1.435017006497348 0.29206009273089706
Ni 5.39102551866137 2.7665667935043907 4.993251756081401 -0.7504852152850108 0.3677191741271087 -0.6706563187818256
Ni 1.0535132187489733 7.39148441840849 6.852077362123046 -0.7447467701393367 -0.4514533192219709 0.6542868762848667
Ni 5.059926512201114 4.455503257890465 7.407454684210409 -0.06925549186271299 0.07770233707848553 -1.2076882925065655
Ni 8.025141898773873 7.2515114845988204 9.074074037723513 0.5166585522747101 -0.22917296628837305 1.040890031800672
Ni 4.520305041561248 0.3440719758034957 10.42177275974733 0.0018720202117322598 -0.2653463308851366 -0.5747359160334166
Ni 8.222925627219357 6.999313356963633 4.728062641089997 -0.2404811922123407 0.9417999730750296 0.25522646884231526
Ni 7.152304305148985 6.050637946719721 7.238335812609591 0.3936235526976963 -0.815138689599338 -2.2435096515350783
Ni 2.6555397975418256 5.137016580722022 2.4829389449332577 -1.608692711049365 0.14598749460812924 -0.14417718087226783
Ni 2.2663957622770585 5.509313773853554 11.142391477042917 -0.35264556762343785 -1.3677412640688251 1.0638772367244644
Ni 1.0626753783476368 3.2932243038075053 3.753397148027811 -0.0765139731973392 0.9182183291003477 -0.002536393268608535
Ni 3.5065035234129716 2.6475578177931376 2.4918263298340264 0.3753314392567278 0.10227385577026257 0.05280094585111551
Ni 1.0937834777519484 3.3899089614405993 8.287118402051526 -0.2579947756160718 0.4792068351861554 -0.7187655155842266
Ni 3.534818830805891 2.470891200556372 6.939260220612865 0.8823177585489965 0.3906027635935015 0.26627732733983817
Ni 4.17409793122001 6.796448548858713 6.125128916868737 0.12456866261272094 0.09115794836275913 -1.0125243361737852
Ni 0.7758862693997377 7.47202493641444 11.315835572658797 -0.7261250412730914 -0.5290345573415599 0.1724084078038192
P 0.17251796974887518 5.546566015682928 7.879010408128758 0.23479828289495044 0.3464882897727904 0.06293983405733031
P 8.579222824827559 1.857855336042849 8.140269794489939 -1.1700609690720947 -1.4929033372911709 -1.2454464850919453
P 1.731467984017628 3.3776296855969625 10.433297080847241 0.3945224103628818 -0.9175357012110263 -0.4741821282780544
P 4.013557435597412 6.0824037035976835 3.795934073063258 0.3736612506431565 0.8488905892388025 0.43856386485381244
P 6.82516025253712 3.809737672804725 10.391604299719754 -0.40432525538591657 1.4191257891883884 0.01961160358334042
P 6.17434061481141 7.775538365007334 10.27652054813548 1.353908986171423 -0.1554347560639581 0.4088483400672507
P 2.5116209188902534 8.520781399737558 5.742351546489294 0.26920632806117506 0.31902556557614736 0.002076422913054489
P 6.908511580567439 4.065764628197465 1.4789752618702716 0.004850900334398097 -0.4246292570505913 0.5247112473758576
Ni 5.329926436657303 2.679548799833309 0.4727458136754628 -0.6279037583056477 0.9079079483132751 -0.42667482672571033
Ni 1.395017627703286 1.0337654765264852 6.973688138908138 0.6433602020700339 0.8138371971790951 -0.36987375857626625
Ni 7.0088358768218315 0.6397998209891469 9.240211829077332 -0.9805274715522146 -0.11114698989017632 -0.08242133982070966
Ni 2.7352244599313815 1.5424590278918073 9.190383915090854 -0.48685381020845186 0.1427561321550251 0.1707634160012285
Ni 6.3143135486210795 2.075251671613496 2.614030800146701 0.24511843387403592 0.1702381396253778 0.9447127758464505
Ni 4.120097946328773 6.895682755328013 10.284365590985548 -0.24511226322644883 0.3082189618789466 0.16133929447385115
Ni 8.317222898133036 7.05750252987196 0.4527836570985518 -0.11106522880964742 0.0785698272851034 -0.048285060258632974
Ni 7.385790726307846 3.8354673953354848 8.244554449996615 1.0972948929529618 -0.4768108241501531 -0.12319543641427817
Ni 2.9472244006155 8.293700382191924 12.346605554527901 0.39587532484635046 0.17011524089426833 -0.15852342229161087
Ni -0.05477025494599267 4.919746371242212 10.05479178134458 -0.08740850862265591 0.04358971166549267 0.31579137490956577
Ni 8.64870929187229 2.2972426004932074 5.838250618756603 0.05438783072226117 0.6964092593762136 -0.14067713813880933
Ni 3.650404384051567 2.607873144211906 11.310956294744699 -0.39897016172159033 -0.4188000519633239 0.16187536948297926
Ni 1.030017729827327 3.3580350964847767 12.481072183571886 0.08545935531608508 0.07991991355509462 0.06568500090263525
Ni 3.2509630543706023 8.423916561974698 8.014110370328874 -0.5245137866530708 -0.3484963213417547 -0.08419077301630662
Ni 5.494205669972572 7.819970785007932 3.526460274585989 0.7617494753449203 0.48931846969886056 0.9368809385068574
Ni 3.065656799911498 8.369907568076972 3.5218188344431853 0.4667205297936866 0.3199138817183716 0.3712719244753735
Ni 3.27648556975213 4.149521361519761 9.143733477692821 0.4276760142967151 0.908779552284951 -0.05973726795963261
Ni 7.3087907478518215 6.240736992630633 11.557632802303171 -0.5365694322660243 -0.38843866606264715 -0.8183068029146745
Ni 0.5333917426531648 0.04464593345437222 0.4462764517120084 0.34325589887842173 0.3887477126626337 -0.06638254119029212
Ni 4.55256629379607 0.5436079560109665 1.5658022646038003 0.06262333125817601 -0.9339570799918432 0.33394979098614747
Ni 5.798962341460858 5.533412866209921 0.3609332323471127 0.43042503779676194 0.09908388807805515 -0.09748209080857406
Ni 7.826105918426506 8.673718293883981 11.769643553795076 -0.9142503455915352 0.758373616894152 -0.8081566018545502
Ni 0.06903151221706864 4.917944569944541 5.6234173455318945 0.1441545551644485 -0.5700562511695602 0.9522317099313149
Ni 7.986186954718198 8.82106059500113 2.622231698753056 0.16924312270196012 -0.45548198076538976 0.41928161958543275
P 8.469556188844736 1.7572337425743414 3.507987306781604 -0.7767868292940171 -0.6661921123628849 1.298379842755867
P 1.7212968156922681 3.374611668423362 1.5292914640084185 0.03984541413171202 -1.1357665666655987 -0.5814274691209793
P 4.786737399448046 0.9779636903375751 8.125186014926475 0.2035023009951463 -0.06484502149984316 0.1299443251023375
P 8.434087730300059 1.6998373622369913 12.40604607843746 -0.5076491496872483 -0.7740388342352347 0.5774286323742314
P 6.449709907134663 7.700610458043632 1.3947455557073374 -1.024660714426003 0.8540960446991419 -0.45518321857804833
P 1.742467980939917 3.2430171106478674 6.000749672389771 -0.13954328164468224 -0.30620398833144685 -0.7190185121352972
P 6.89300708040097 3.9098998069423265 6.058370376988681 0.18535931153753238 0.4889261193564483 -0.06670804285051092
P 2.2662606271797325 8.35870036400545 10.092528707723028 0.8457314747845306 1.3918399568892417 0.18989319485214395
