# total energy = -340860.56635480974 ev
CRYSTAL
PRIMVEC
9.36110701515624 0.00000000000000 0.00000000000000
0.00000000000000 9.36110701515624 0.00000000000000
0.00000000000000 0.00000000000000 13.70092635187928
PRIMCOORD
 96 1
Ni 2.5401082237992143 7.145014477942748 5.107773673546089 0.049331756355592456 1.1085172440313424 -0.33966612464463436
Ni 3.069871975015351 6.507654166144228 11.736993979823518 1.7547015458137327 1.5294783082017271 -1.0419495834134378
Ni 0.8310996485938176 4.550789696224032 13.369308879934138 -1.9148671316944572 -0.1527114435955241 0.3311768562267006
Ni 3.2166634894135036 5.109863072564882 6.397551637294234 0.07634916548470076 -0.23300519555026966 0.34896400500679253
Ni 5.815203741327842 3.9712248572840143 2.0309426517987963 0.6220128467425095 0.31918317419993414 0.4497597335696319
Ni 1.7166491105061918 4.846179418616335 11.161363614035823 -0.22890325756675417 -0.19748566248742117 -1.445830037952452
Ni 1.287610867543618 7.0763133157612526 13.008974607485076 -0.95258600794694 0.5670017806139526 -0.1514649727829327
Ni 1.2070304609407676 5.129858396508153 7.9843378587857075 1.7883583146362296 -1.759682543968092 0.9620306982996077
Ni 9.004401743639491 5.149516720609685 9.79499775569878 0.999791461988149 0.4821150099718858 -0.86706057527961
Ni 1.8708827047427816 3.1386948315841425 1.275896378600448 -0.3738677102270077 -0.6720195176779394 -0.14042671269090007
Ni 8.569428559019599 8.875237193185713 6.665062111667878 1.903298195909935 -1.5015497001122593 -3.2401646247767744
Ni 5.006198176802804 8.801574644445258 1.790231153728897 0.46934768300388846 -0.15210672013198967 -0.2662577869558124
Ni 7.054885742490583 4.717445479071446 8.24421715896527 0.05972209845098102 0.14499504878787287 1.5341145214221579
Ni 7.887565545897895 9.032419536037532 1.948846682018785 -0.6445326251115803 2.0244066678881976 -1.9571005864423712
Ni 5.309226562274559 1.1292209419255617 10.679187048805465 -1.7036605200765176 -1.989443521549451 2.23814273079621
Ni 7.877577245032973 7.579865968175347 3.5458954848019295 1.88265352307639 0.045892134546424185 0.7682872764634382
Ni 2.37998649343888 0.716752793959236 4.692854787841773 -1.4162312412494125 -0.41375888999499066 -0.9831589956377909
Ni 8.8083333634935 3.9276582666323336 1.7472243572587747 -0.3385502658726363 0.09759239113419323 0.20051493623204822
Ni 3.8626641027099837 6.007452789934109 2.7937417935785205 1.8604445910795184 0.06879397884526217 1.5880603795109942
Ni 3.7161346992998516 7.92804297133362 8.102932783647562 0.45279003575552346 -2.5342744224933194 0.3042910875794501
Ni 8.968632954881418 0.536593614675412 3.942564892965324 2.74114024064406 -0.7506759911395782 1.3867777118749858
Ni 8.597146796002757 9.069901407324451 13.227175452237377 -1.8167661763549612 -0.8000717679638866 -2.0282628084094942
Ni 5.664986061871994 8.131076014875584 4.054596745909282 -1.537825394614842 -0.10797373436851727 -0.08922576433705279
Ni 5.081180641590074 3.534491784601698 4.287814678053812 -0.39745398218738004 0.9232510064282486 0.6562961934054117
P 4.633373379663896 6.211684055135594 4.902643742099963 -0.7679941707030514 -0.5792209483879637 0.8700759650671661
P 2.769417893890225 5.187204536244336 13.243711847249452 1.880995932868309 -0.584270080776097 1.5723740791239889
P 7.420717792913375 4.2006936661891805 3.632348113647109 0.238370316516925 0.030815699829275962 -0.46417462344338123
P 3.1881308361461373 8.238504075537097 3.15917318863391 0.546184329647969 -0.10147398557678652 -0.1445438201830672
P 0.6150368806152244 5.641021628681555 1.657949354739018 0.8721282196105045 0.7195823550585672 0.04295156386086151
P 6.510088053890131 6.469339156359671 13.28148578506588 1.2829861339086164 4.635471457168694 -0.43893204682650855
P 3.5775247921706224 1.8203982562287049 5.960258770430359 -0.7005014271677161 1.3192230047534634 0.41803386322126074
P 1.228926089547188 3.1630243479364673 9.567151226587328 -0.8212298900987405 1.1261442130844863 -0.8680188254278213
Ni 5.1607594097744185 5.528604098140939 12.05676002410172 -0.3473403533604405 -1.545263596060442 -0.5596957338708425
Ni 1.9008195240174002 0.2298282754030228 7.456454753908616 -0.77616899320436 0.23028625395720984 -1.111065207264177
Ni 8.627823142707863 7.152007224658865 0.8104593443978806 -0.5008853486008534 -1.6530522110013466 -0.1198918259623419
Ni 9.26605403743088 5.553317419868579 4.672371750238649 -0.20696069185739194 0.4659605116992104 -1.6315999546648416
Ni 0.9583620221631053 7.358503877685384 2.9576323055023193 -0.14572832740947161 0.3165984441918935 0.25065247631838766
Ni 5.69599940841884 0.2646871645883962 8.367882059223978 0.8177504161905723 -0.8128205829891227 -0.5183351686461848
Ni 6.344312215073928 6.667195507888231 1.8657369043815377 1.1914551184771545 0.3386567095435135 0.8820704184248808
Ni 5.871229965017208 2.855689853375805 13.15751945717095 -0.14611065044955482 0.08224213393036804 -0.8808072354417412
Ni 4.961255503464016 7.838943957620106 11.186271646783133 0.7784721874162399 -0.9605818816682231 -1.326107904798755
Ni 3.454351350014453 9.207416064968024 0.06341213688751259 -0.6686649993834097 -0.10174035186429575 -1.5403381337343665
Ni 7.70857182440009 8.00559974046752 8.545199206509123 0.597882529353209 -0.36891653686931947 0.09627855741877613
Ni 8.735550758784257 6.394366052679114 11.741721338714601 -0.8083710318582012 -0.05741041959866887 1.0909555809984954
Ni 0.40171036412943034 2.9939814828767233 3.8206954529745563 0.7472276275796614 0.07366801910811184 0.7450596733940652
Ni 2.2059822418201787 5.01921947624339 4.123472024675677 -0.29480166003177616 -1.837123914075707 -0.9072307197405926
Ni 8.127996210766343 2.952230946927756 9.855692363306925 1.9061305231524073 -1.0356922896498164 -1.0886570147723058
Ni 4.051355930764544 8.911764231587702 6.109913847372635 -0.7741108251237507 -0.5112072993521518 -0.8430539279523674
Ni 4.76290301327956 1.2373604466974166 3.60871412752371 0.49137483800725695 -0.11077006616673182 0.2296545339104819
Ni 5.495334724875774 1.2781935941883127 6.036326187485901 3.581567015386226 0.9901338842937271 -0.1655762153733342
Ni 1.1987833259248393 0.48167855435311874 12.407818375906876 1.8382230606771568 -0.14995085013125142 -0.6366167126986133
Ni 5.427953478741096 5.923324523886267 7.041275629437623 -0.9724251541600543 1.632250700874963 0.15841517884852074
Ni 1.0598925855941597 8.942253356158506 0.8310022930839813 0.5896519139133006 -0.33227317461467293 1.3448795289793032
Ni 2.2874613146676706 1.2383901684360683 10.070591545720841 0.14819118712766735 -0.012680423681145903 -0.15196582367875117
Ni 3.4878828342676376 3.572516600078089 9.143901892017318 -1.4565301979787753 -0.57856171753741 -0.15933460533899657
Ni 4.8907476476865215 5.200993446435554 9.718053202944043 -0.3724600312462037 1.624988619995911 -1.0630717101040337
P 7.3926625560884744 2.7650462570543133 7.234376538754955 0.4587025445852164 -0.2066315906527474 0.1439558088900811
P 7.489428316201586 6.30168173509375 6.6687204321721065 0.7620340964648746 2.2924832532203037 1.5535924276411115
P 6.932854355353645 0.532193894519355 4.129911529984937 -2.0275182169339856 -0.5704532294976628 1.2247323924730453
P 0.40924979947770357 7.77670195907197 5.016320341493749 -0.7945894046930767 0.5651235897546331 0.7616869975381011
P 2.9749409918183827 2.8438293311678806 3.071569143662783 1.1027104075415783 0.3036267145225739 0.979174814179062
P 7.297048212101309 0.9799300120345003 9.744276471184815 -2.101495025531768 -0.1576011675876576 -1.2190818790554874
P 6.301120068690848 1.4062067285161448 1.3384800575436817 -1.4824993683490273 -0.611996857267404 -1.8568879840765118
P 2.795338798384102 6.0822012270535035 9.03381527704874 0.8316716542573548 -0.39653918368259444 0.29123991082244677
Ni 7.644878854311127 2.1058371221829466 2.758764018337866 -0.08338961727124994 0.8841105887833614 0.559304926190327
Ni 9.013482017153056 0.8617834841842942 8.267248289816223 -0.6151652276930566 0.4979766595944908 3.417591825951424
Ni -0.01134285300658385 1.7219100524800306 6.457054576017556 0.25547535162832774 2.405342854926212 -3.7933816929018085
Ni 4.325299357672747 2.4938924399471842 1.0262347264003226 -1.1594399990231388 -0.8670631463827713 0.7875952327634307
Ni 6.848782255946094 6.062074847616222 4.736574900643579 -1.6925572110745044 -1.9544785754384921 -0.5230667697938992
Ni 6.406376352594479 8.46251535922741 6.344816778725868 -0.23648981166476044 -1.321331309345718 -0.12776557228346386
Ni 0.9382262816191077 2.700304843013268 11.598915783555702 -1.5005783373379253 -0.6613594668609319 0.867754516022841
Ni 1.1053594809089882 7.4033529399570215 8.009095177714908 -0.48484834974264884 0.8425551339390781 0.2781905338376564
Ni 5.432961670833629 3.6344496821046293 6.863671096176326 -0.9523949749820565 -1.0685517593819984 -0.48876876784297757
Ni 5.729456003818303 9.234067135785674 12.83790412671086 0.6789640673165727 0.5482350415294106 1.2304988626431774
Ni 2.545593832334213 6.960104537001055 1.2728718050208265 -0.1341820173327689 0.49059193709464544 -1.0788775667880386
Ni 7.370149094438863 1.6649102736923034 11.888868575167924 0.8528071506843893 -0.3062890918460854 -0.00984861065930562
Ni 5.728707115281102 2.642172370313024 9.195719362127614 1.741902851387168 1.226386897357333 -3.595145782511924
Ni 7.082238896311857 4.699977653941229 0.19994200610466545 1.0353649882173845 -1.4316182652284442 0.6854301346568905
Ni 9.096964366837561 0.5139191419903024 10.482770435489673 3.937434175270755 -0.8172071420925926 1.9748399127036635
Ni 7.368417289696585 8.46600705203211 10.891454824121789 -0.9499089753354092 -1.176100490397955 0.8464896931067939
Ni 2.0972810706454226 2.75109820804894 7.3410248192271075 0.15364886780812892 -0.36534630301955795 0.21206536007380897
Ni 4.702420902793847 5.991370408597713 0.5726703838444089 -2.5789828211442876 -0.9798890666372673 -0.31716665799053767
Ni 6.969755838024235 4.582785958975953 10.79084913803418 -0.5185624541656424 0.43033736317896204 1.732210049579436
Ni 8.819379469417218 4.7146839525905175 6.739156207427895 -2.1991444951561414 -1.69261994599164 0.6243857178500601
Ni 2.3349034034993674 7.961181289104774 10.153509420670431 1.3442231263422268 1.4888355949797003 -0.6037245899562828
Ni 8.538490101326474 1.8487624095752007 0.318666114239188 0.23254959607008985 0.7898727159436977 0.7737560128874933
Ni 2.966721940122599 0.786246841879494 2.1298090442587574 -1.6392081060294026 0.37773490649189784 0.1947186412652453
Ni 3.2119548527358512 2.334847236859077 12.440290182879922 0.7588706111352286 -0.09294023707416252 -0.38215180461267084
P 4.8531253597988755 3.3213019402739428 10.889947685940674 -0.8560773367952288 0.6411912194431733 2.997614465850547
P 3.4679343158579403 9.277577559797063 11.51708098865304 -0.46976600148822967 1.247028999087717 1.6627990059754654
P 3.6610539473887025 0.603062152905377 8.473104643143435 0.01185150002194733 1.5701338769395605 0.8987661339130069
P 0.37949364956268494 7.535400711279025 10.228905646374505 -3.2710487159501405 -0.16532681836668944 -0.288461062525729
P 0.6320357142990204 1.236330724958765 2.0956522380770104 -0.38811856371906706 1.1924961581471591 0.22027232136463357
P 1.2235621753994843 4.116303289153319 5.911360093393807 1.3155584114176826 -0.5294441340751527 -1.5008804419593762
P 6.229807157735863 6.808183136123074 9.385764806213166 -0.19206911945754018 0.22674070269779661 0.9125539317257187
P 8.35149263358733 3.6685147494405697 12.52127592540353 -0.22873870696443188 -0.9474967663494906 -1.3462432420960493
