# total energy = -340872.4835522099 ev
CRYSTAL
PRIMVEC
9.20206828453498 0.00000000000000 0.00000000000000
0.00000000000000 9.20206828453498 0.00000000000000
0.00000000000000 0.00000000000000 13.46815709373150
PRIMCOORD
 96 1
Ni 6.85011168255303 6.292705595774283 12.632592956476433 2.8751098848557066 1.2446283600660244 -1.0708032744203366
Ni 1.5101514329788392 0.8320427361748642 6.1958510660227 1.481850679021435 0.6730374174194925 -0.5853124059976822
Ni 3.479706925064592 7.222289335997848 7.139025340956926 1.0483364607763879 -1.4690535272567666 -2.0991370668225526
Ni 3.3652792054308596 1.4885541786177319 9.291344952478907 0.5969790437023332 -0.6148831776762637 0.8959605461434118
Ni 5.220765858547594 5.168102421517931 9.423171022696597 0.729601429857466 0.020109883375997624 2.6599085502560773
Ni 2.1919786855933485 5.676268240684285 13.229568857263786 1.4208998503696755 1.6455001096857014 -2.093905643220284
Ni 0.759259896957249 0.3715924018992852 10.336810339131713 -0.060631240528811706 -0.45647519791659447 -0.1647596330093098
Ni 0.7160267395480651 7.402797108280542 11.601389855522084 -0.4457015043398582 -0.23018135294822936 0.33925423391819637
Ni 7.239957307183756 3.0361396255467135 5.3119896426905 -0.5065492317548502 0.056018167236832554 -0.5608331899093955
Ni 7.600549556606148 3.265179106180699 0.20528342104359965 -0.2869317703653962 -0.03067968847204394 -0.6342142739047077
Ni 7.7743122128058895 2.1868439314674437 2.894199562031925 0.15734200038899998 0.6745204297229223 -0.18495770522373953
Ni 2.2421483621066667 3.0170637379069287 5.192203558670541 -0.7523688054609687 0.08573189225118139 0.6235663072725584
Ni 8.104648061572414 1.4397740144216387 6.809810304112507 1.1226480270057697 -0.4638460364593689 1.453534348575245
Ni 4.765024222634425 6.030391436073503 -0.12141577032049233 -2.182395814942893 0.34561951401459184 0.6464244428176545
Ni 7.121342646461697 0.4805448908790516 13.845535066455493 1.3919186326459771 -0.6027447425415167 -1.6730713344357508
Ni 7.685365020366833 0.5179697027608683 9.610917141924517 0.8376314713852154 -0.19105147682630325 -1.9031189900195937
Ni 9.063871663874005 3.838118284293724 7.10932842605528 -0.17397883761473262 -2.341412631931155 -0.6993945672567826
Ni 8.690902632553152 3.9458008878445026 11.372161732487418 -1.5248660062406965 1.6014005482633258 0.06357335387627117
Ni 1.8617532616467356 9.313781435471345 3.7577096910543575 -0.2508018574120584 -1.8452696831112931 0.5428807191960328
Ni 1.4962195015332846 3.2983985728375367 12.574436804862986 0.1647974282257807 0.05742918865174625 1.2889564925594381
Ni 5.565456933902668 0.8814044710891601 1.764988912164748 -1.0529297365740253 -0.2684740778808409 1.6701477330310526
Ni 4.641771719476064 3.090256989371883 5.2850938373872856 0.768045078545645 -0.4898555731492531 -0.4405392434126284
Ni 0.4674751932356426 8.620580426405906 0.32732033097609653 -0.2578057995337173 1.2702715145554253 -0.13203746018594034
Ni 5.4000773619479085 5.42699341180144 6.894363508925902 1.7776262729307064 -0.4426282647311732 -0.2911154694294406
P 7.094610637974685 7.799102584876117 3.585331025930846 -0.30114277175845555 -0.7870553010995607 0.3148974023403867
P 0.18451435283183168 5.845503479267637 7.164709233861607 0.6042166991013529 1.9636936662788569 1.8740889213358305
P 6.2466124355293795 4.844069989554711 0.8883704368119373 0.22204972498003048 0.36232705657725983 0.8017473558940966
P 1.353587442480381 7.613312825374302 2.2406438239353665 -1.290945755075325 0.5855337779798689 0.8380071095570792
P 7.829082923482204 7.833095025272337 10.778498576297423 -0.026425541181380293 0.7390540906299337 2.132127148595328
P 3.7805777510512844 4.98062868351246 11.53983998111001 -0.5953181110601425 0.48271664811162673 0.37444055201134224
P 3.696424836210072 5.348821841372122 8.060948359299102 -3.4813359010776046 1.219004745960649 -0.08408150113195198
P 0.26669250381028653 5.27142324468219 12.900851652315803 -1.875937801619111 -0.24343333286212918 -0.11416237967773242
Ni 1.2682566628934409 5.340687212971944 5.4448527860085285 0.05076771747117063 -2.170447384331765 0.14575198155855543
Ni 0.5576922711036857 5.116230362364304 9.489488488708368 -0.9009274032303839 -0.11722327799124328 -0.8888684151833208
Ni 3.9822962908253943 0.09470216597013238 5.627090547136509 0.37190878672842403 2.298069231948513 0.9052756528967505
Ni 5.889305324499367 4.3021417817002865 11.906281985367237 -0.2934366613634495 -0.9013932871232089 -1.077286825262151
Ni 4.386929639255993 7.932689010764569 9.012433022138532 0.20341976858366903 1.6969080318440324 0.48865538219356486
Ni 0.1454074028600233 4.121275128752878 1.697001270751808 0.9546642306322075 -0.9528739715010042 -0.5877328425137169
Ni 2.5454853424047257 4.123152350691381 1.2883346557739264 1.1257163815184486 -1.4603775967493238 -0.052282354343484154
Ni 7.712483515723537 5.334889909926567 2.5157304544726244 -2.504751216223222 -1.474056894008629 2.2501888633274665
Ni 6.485019621719227 0.23739495867398755 5.63356880323801 -0.28708063723843463 0.2636442605923653 -1.5527167099043775
Ni 2.1399777974831578 3.7329570474642666 7.687462171738328 -0.8289385715969078 1.7605682890071548 -1.5328922189792826
Ni 7.511860022080221 5.3206359060896045 8.200370736919899 -0.3832560934204432 -1.438211859285562 1.2167755995198142
Ni 4.51538131101854 0.7786458942996201 12.913794361416313 0.4710338124570598 -0.8017890077653095 0.3071074739823227
Ni 2.290357998066548 8.719254205065539 8.097742829500588 -1.5292196552237018 1.151377019509346 1.8526847446284413
Ni 2.4934660501578825 6.571454649505286 10.004187776386177 -0.10024319849347899 0.1367865448351515 -0.48488974450354555
Ni 3.7067863651451405 2.6955434705967063 11.562385968715528 0.555665529665527 0.408701015856109 0.24991662659362762
Ni 1.3101352758450384 7.610984702087825 5.9251538220769415 -1.0485886859965101 -0.5468839268181549 0.007215286801516605
Ni 8.216554414484824 2.7250545037181677 9.158104524359512 0.6920527821797308 0.5805499516120324 1.0100882159284668
Ni 0.2865772532559265 1.6682705730243905 4.574041735976253 -1.42062859898616 1.8215255454168175 -0.823652126386988
Ni 7.58876170708055 7.455175281192099 6.900612633526083 0.6309960240777261 1.0005273117129092 0.2773664952744642
Ni 8.237194653740028 1.707379363409864 11.813351217549858 0.19894476353145094 -1.0617571050576682 0.2110268915069656
Ni 3.655236378382923 5.436361117357301 5.3141309639899585 -0.5607694265509956 -0.4171805140820299 -0.6095939042528663
Ni 2.6446008203440043 0.03275292179270966 1.280648168101224 -0.4063499991254292 -0.39344820346209664 0.3225664888498703
Ni 6.604287629292432 7.097150408832659 1.5032075522200445 -1.3409912496684906 1.3454737109198764 0.23563903362869096
Ni 8.616651143230708 0.006753397944446835 2.8821043634242387 0.8029861133972042 -0.13377681147455023 -3.541969198488945
P 1.0821724372051944 2.7715617570377407 10.557337906564154 0.05381653159982344 -1.4005626814742203 -1.1060523274306178
P 5.923352977305544 5.055653146574286 4.50415570786766 -0.9300569736064885 -1.1112878647979443 0.08716348249138536
P 9.154530441021697 3.8956312113311853 4.144825062012762 -0.13960807344434667 0.09755562435898682 -0.12461725646246924
P 8.80903878572226 1.6567955938218761 0.9799282560350776 0.6986252931909259 -0.8139919775894046 -0.2065418591524185
P 7.176794310194135 5.417809747612098 10.463681095555852 0.7515679068262283 -0.5625463159457603 0.10677380052314514
P 9.436905109673141 8.864241993609896 7.3135867366873635 -2.1842961172893993 0.3619359917864283 1.8167546063907356
P 6.043513585506371 2.0316418470812327 12.03128012088704 0.7290113616819509 -0.5920828919522965 -0.43979696592996514
P 3.15781857502133 1.9623318684498476 7.129678800158214 0.6654786312356281 -1.1717167595079627 -0.9502794713009506
Ni 6.54167675640237 7.159862504474306 9.182091555864881 0.07997364961116549 1.023816878368469 -0.062461865979647264
Ni 4.3956624020973605 5.43087668463501 2.834804812021798 1.5146512704912236 -1.5912830002133498 1.2097883695687037
Ni 8.92287757298313 6.571196991592158 1.1471445608277062 1.1045667440240268 0.04139347534512226 -0.9424237227019575
Ni 5.521287005937898 1.3560720009283993 7.556066758318295 -1.4132495329132693 -1.0992802988141068 -0.2932829093944046
Ni 8.53236939943293 8.693580434436015 4.9428808790324 0.9881723896919822 -0.31871163388015433 2.7542109577850886
Ni 1.7540246477543264 5.392918152790284 3.1030230187605343 0.19049380455062032 -0.22213739959783033 0.5274975518717431
Ni 1.2112314454772573 1.7358873710837928 8.497248785459943 -1.645160981178728 0.31462640806718717 -0.5082114499486216
Ni 7.610865075199587 5.404466748539407 5.8457454936646105 0.42533065399299 -0.43742075238830475 -2.0419369634624767
Ni 4.135335889154997 8.224790265636589 3.200276918277465 0.7026709240152093 0.3316530245321707 0.7042516382387678
Ni 9.063834855600701 7.463033847542498 9.143006690857055 1.4307232642180006 -0.05312516195975367 -1.6859767296435093
Ni 5.4317048707843485 7.206609011570356 5.204500282574566 0.7935180260057688 0.117696618083236 -0.3674777475402639
Ni 5.105583569311129 3.0334986319371535 0.3221478483700555 -0.8832654671742465 -0.32129559255724666 0.25870697119174796
Ni 5.957060153583659 -0.16872636420492415 10.785556562703459 -1.0748977562046844 0.19269106931225524 1.5529393674381449
Ni 1.396625516041054 1.991318383676728 2.1959291335256976 -0.6069448966657934 0.29844337054942144 -0.15033857248797336
Ni 1.9244837614250352 0.9007867876042007 12.238406716216335 0.5664579922953406 0.689102184191839 0.5812197239855474
Ni 3.115820335181494 6.6278633283436275 1.6201382344384474 -0.935598215139692 1.230339454247178 -1.2095600556079813
Ni 4.40324490639798 3.42270011178506 8.19181833461772 1.7821719833198597 -1.871558441604493 -1.2409812502317403
Ni 3.035431066285612 8.116491123507968 12.697900035386011 0.056410003358612536 -1.819812162270137 -0.3325169151943628
Ni 5.7369190730209105 3.319995827198644 2.6005799658861153 -0.7234027572459218 0.918199045826638 1.045932993541218
Ni 3.6122719213688583 1.4734167762214723 2.9630890061408124 1.4038881463030273 0.5700971317098246 0.9800248208841833
Ni 5.601519839672238 2.161897124235675 9.859701500565585 1.167486780587015 0.26861008923807284 0.8056911710331931
Ni 4.583292575264374 7.036729628204183 11.06151830993852 0.6503772568178153 -0.6515751337806585 1.422836662381072
Ni 2.670780704731457 4.1164440428817315 9.845290141360246 0.8536131915254525 -0.32587652705970976 1.0159055939411925
Ni 9.131074368858737 6.5392566124326335 4.031544840299281 -0.808356376570182 1.487445142390077 -1.0324329021722543
P 3.1046030138921075 2.0345957110138766 0.5569689885332625 -0.9083152110540227 1.0751129575392837 -0.6233701321013523
P 6.679017626167828 3.03564271385711 7.784890910553452 0.4799462844553412 1.7721017435680513 -0.6632687680685028
P 2.9762617669494724 3.429334803048102 3.2692335374851322 0.6571006915845781 1.7872949063687218 0.41680950389585636
P 4.532984867726166 8.132732774103346 1.0956507066822776 1.7145265162567438 0.4122815341185157 -2.0466482528952175
P 2.9279140999647013 8.724370555054792 10.547937073562318 -0.261016336051215 0.013639959380937799 0.018516570746948752
P 5.660551107983488 8.397301440543995 7.290784931582383 -0.873542583459528 -0.9380399918119651 0.5234367515388082
P 3.1681156894781166 7.5353805087214605 5.009871936445635 -0.41024573463540964 -1.2652892308494854 -1.757239224633922
P 5.782184047116474 1.447117264945782 3.9484731684863714 -0.2485827382735525 0.41929370377029085 -0.15949067130088662
