# total energy = -340871.99966060615 ev
CRYSTAL
PRIMVEC
9.25296801003396 0.00000000000000 0.00000000000000
0.00000000000000 9.25296801003396 0.00000000000000
0.00000000000000 0.00000000000000 13.54265398702598
PRIMCOORD
 96 1
Ni 1.9205089774233057 8.967356408955562 12.996654677180285 0.22128327912765114 0.2825315844151715 0.49046492459847796
Ni 1.6826984528961593 2.5504140109904827 7.810143248399045 1.5030926191193468 0.14228459183524528 1.71719789244132
Ni 6.3643485291890665 0.178356505450195 8.126336588159914 -0.5439461843460697 0.38681578574724346 -0.40442244308541314
Ni 1.1982870844651583 8.201913903567302 10.814485650815657 0.37790871306560075 -0.4167444549858758 -0.062305800017757214
Ni 5.10944253497014 2.7017833106574054 13.531345747149283 -0.09556044830582897 -1.424077733877025 0.18464865862375296
Ni 4.852644920589302 6.017778621552622 3.5305429491644857 -0.010952128136129525 -0.462116712473088 1.33802728194416
Ni 7.450980051634495 7.515593525537185 4.612316663533312 -0.13449877724223935 -1.524211403375833 -0.3429648500005642
Ni 4.892525211656265 0.6366948613131019 2.286121492720031 0.31389595765906586 0.6918890029083568 0.7685991512769021
Ni 8.650090650230734 8.814747211608134 6.434994938074508 -0.28972861638424297 0.9068059734983478 0.5511427020945089
Ni 8.685140892124389 2.7602713198996955 0.20614501824191228 0.4627561458292998 0.6489811478012371 -1.2532608389300417
Ni 4.541180772653103 4.226903722516356 5.542858947454913 0.08118283942791825 1.2949091105984474 -0.4206353053998498
Ni 6.038912399927782 5.5831667256326165 7.3671768478840605 -0.36704708776074846 -0.4797243982525222 -0.2657764764440197
Ni 5.1663852985956815 3.899404181443487 11.490941439911554 -0.6945871185658101 0.8909877755191689 -0.8803444368727096
Ni 3.6541912827043754 7.486789036884876 10.050463475979319 -0.4335725822868081 -0.9518501582221801 0.6058850879427113
Ni 7.894493302544388 3.891095016390556 7.084663385490856 0.6280364272287701 0.5063029200719991 0.2803096370631882
Ni 7.442615368774974 5.348113585499426 11.75598529916452 1.3763374903782684 -0.7496555202948637 -0.3567572757989662
Ni 1.9345272235872149 5.409414496942263 10.180040185966215 -0.3636177503642254 -0.17094570721536367 -0.19977034475653982
Ni 2.636096492493979 5.696173220946029 4.72807869264713 -0.8137317819494824 1.276288924394099 -0.20141327967660153
Ni 5.114355860853332 9.003479995109952 0.0064659738741515834 0.269254150579975 0.27251019562342743 -1.040972307101833
Ni 8.17892953163915 5.549282357677345 9.055416903174653 0.4733339213451462 -0.3618678575526542 0.5510316304379413
Ni 8.300948417555631 3.5686846075884127 2.3392492577360815 0.08006800909718469 0.05444156677833205 2.45581720952668
Ni 3.680710288318741 0.237559769100716 11.372538613797616 0.04452765009872976 1.443880884645881 -0.2844874225899617
Ni 3.300681649244213 7.892328108087389 6.319760328123294 -3.9349641164637075 0.5588536975855214 -1.8640076258404283
Ni 7.62619424923171 7.161880326786195 -0.06541478091113628 -0.23248788959421895 -0.11546747164240116 0.24572727110262838
P 6.875445456654202 2.299501284108158 1.3514921729366485 -0.7818729855676728 -0.009797959927028288 -0.08579616983021354
P 0.25762668029257707 0.723336875573825 9.915687523405293 -0.9674395280200049 0.14828220417957688 1.1457558166678268
P 4.575601812738741 5.338027850635625 1.6207174483225983 1.5304512136379578 -0.09490790232349461 -0.7259566340160271
P 0.5582805859889783 2.0293701431780184 3.3953459865571536 -0.29927717930462655 -1.4617667637873664 1.789708658016537
P 3.6963015390026923 3.4281967980130785 7.362517978614405 1.470151902527268 1.071270186754426 1.810779105533591
P 4.140295944236364 2.5839005013318603 3.9609549230159775 -1.3377020373942574 -0.5718459960801313 0.4245539237279656
P 7.023502193861271 1.4790683912927622 6.42092394999434 0.7815014611608669 -0.11014657365011998 0.21323084113681984
P 3.822613801962113 7.500363140596068 12.4240171864072 -1.2506485981181752 0.8071698124612485 -0.13846958896452927
Ni 8.989952156237585 8.246096824644969 8.73096251379323 -0.8485959408165192 0.19988270196468802 0.0806796745392546
Ni 6.962395594741498 5.694914817329996 2.4495816453654222 1.9750720833191275 -0.3536413558778038 0.5028044200004372
Ni 4.126990176590357 8.132544404233425 3.8912782251523024 -0.5317789528559164 0.2981476936858736 -0.5337463609949323
Ni 4.245372646175209 4.896633529343906 9.24391743718557 -1.6235140923329137 -1.421368819586294 -0.6906044797689783
Ni 1.072224651635391 6.723955868406335 0.6360795389567323 -0.15951329700870592 1.019387896062838 -0.8106899097993651
Ni 5.702095120315602 3.749098973069534 3.084597093029185 -0.039340449470835474 -0.3885525659326921 -1.619578247613617
Ni 2.4979681896987094 5.7071564936830335 2.138331240984593 0.6040405785348049 -0.7498442392669022 0.4836324750576767
Ni 8.411475117508036 7.902996779920383 2.27719700531073 -0.11828102983179628 -0.6196680006594167 0.4310395314523092
Ni 0.29163688860945114 5.660373488663413 3.1820086364715405 -0.6523595773551668 1.143800749823985 -0.29078174023910563
Ni 1.805235505007478 2.1737627051501645 10.35483522412368 0.30711030219580016 -0.35023027331372586 -0.4794102094462131
Ni 7.9886885143916455 7.6605227596397 11.029597720118588 -0.15826965440959193 0.7394294716914813 -0.6763140312882352
Ni 6.514422413368895 3.1980014659564913 5.168689287569157 0.8758907719767303 -1.030878927421573 1.0979780350629154
Ni 0.09938890265372698 2.1709127910785577 6.0044469455968725 -0.7289206017403576 0.07374566642358267 -0.9120278840189197
Ni 9.049420980062962 1.350294838907863 11.928017401147367 1.907904841444011 -0.7803166968241464 0.2765368002843173
Ni 4.692328001093667 7.527270770856561 7.862593696174701 2.013192287229617 -0.36762095798634753 1.987841467169654
Ni 0.3412605547329127 8.782565389721615 4.362102535717241 1.5749174143711329 0.07786380235701428 -1.1701363023947202
Ni 8.711104719672857 1.1076820241107044 1.8852866303292224 -1.8494991478116085 -1.5687480523356274 -0.38974478646858035
Ni 8.120025138847437 6.455073878124464 6.556215292872875 0.5592722731801787 -0.8904481009656148 0.817385833762302
Ni 8.417508052490788 1.7360695709644285 8.38561122201143 -0.3781557960794003 0.21994964791789218 -1.2743932500332826
Ni 5.280020995717112 8.959583916032997 5.762926906292755 1.9984002165221069 0.7590248773249058 -0.23267558012499281
Ni 5.511058347840311 6.2773521262629455 12.389740492618694 -0.7716484796261872 0.29656877923452796 0.687348691835842
Ni 5.848375287711799 6.162023136040528 9.91636391534891 1.8215893087752175 1.1963420142558105 0.41621712172749614
Ni 3.658947308135563 7.772409645853553 1.3234954683702196 0.15234403295377633 -1.2468166259665947 -0.07030501617314988
Ni 1.5042364636134438 2.0133902678479387 1.3532807716056143 0.7509793813126099 -0.012763727423571566 -0.3921127724801247
P 5.016052331318434 6.725353066538844 5.625712796712662 0.0429919301804937 -0.6991693386198539 0.5080301871757509
P 6.494038125382697 9.030600443629039 3.653848922897072 -1.0574656767711659 0.43494503715430255 -1.5306481601401123
P 1.2443761169024063 4.150363173164636 0.9833711780788437 0.23080587390610569 0.6626838420993103 -0.2614135714896337
P 9.15722730749247 8.705552939013883 0.4217132588556562 0.3895254713689227 0.1552110700889262 -0.9626343933218776
P 2.0190253252167976 7.533359223645903 3.3470528971982927 -0.09158218038437131 -1.8701512768443211 2.163718293138048
P 4.197729115153448 0.09260555198523737 9.015114676777609 0.31011797867387236 0.43776348043970414 0.883760147422478
P 1.0249512393242284 6.660295450183434 6.4541171212575685 0.9779000612316965 0.09397947697195427 0.11615318485551608
P 2.969268102806767 3.9208803196259505 11.271387946081441 0.9669721014652831 -0.32931640597919415 -0.3099580560572404
Ni 2.334412731485339 3.431204012536689 5.749249169342597 -0.20596798892681947 -1.1022969741532436 -1.3497707956333336
Ni 2.2580942533599777 2.269734486808293 12.53120726618356 0.7910934757246763 -0.7132520419651651 1.7353881901971018
Ni 0.9238968024728094 4.292655311454137 12.11833244213699 -0.48199108279951186 0.5676409568598482 1.2888071114657675
Ni 1.7282600661708052 8.826702045960458 1.8749806748326139 -1.643203857452357 2.289631899814437 -0.7805105580025073
Ni 3.5166089050072378 3.089269841750488 1.7690906370272286 0.9348114575723385 0.4430080166680951 1.2905441487615321
Ni 1.6642850470438961 3.709977425359298 3.408563851009394 1.271914449475487 0.5401095842087988 -0.2279583771549816
Ni 8.585717753489932 5.233349026310672 0.7306152600177397 0.7346238227727219 -0.528836839508457 -0.8478125256832755
Ni 7.265957708206425 2.9878480620788 11.852056087577733 -0.3510676816133567 -0.7872134239439796 0.43151544264746333
Ni 1.6473521160340256 7.0275272348390265 8.697132738347774 0.18916248733370647 0.14306877829943748 -1.9797406924393903
Ni 7.295502434279931 0.08484508792076839 12.723309980545375 0.5785509189041327 1.005581329197049 0.6637768180531729
Ni 5.8728401344823435 2.7420707323060265 8.00120315329375 0.07457767540657478 0.41447751332857 -0.6059565646105951
Ni 0.4119282454442148 4.65985008423867 5.337254302530474 -0.9894407148814444 0.704967690469186 0.6617279059439442
Ni 2.946181948233201 0.7158410463874336 4.747417395275888 -0.28722256213293756 1.0896191215752589 0.07546110645279262
Ni 7.225836839977574 0.7953508730949281 10.308356641743526 0.7369380727281953 0.8581591590249221 0.01463163387024577
Ni 7.905124962506324 1.3095725277742896 4.2750367355328835 -0.5366864174598629 -0.15355270854989686 0.133006508967429
Ni 6.349543780765136 4.588916833352513 0.4667678094967823 -0.3636198072467544 0.051668374908569084 -0.360573821331579
Ni 4.002195400344388 2.385988773807206 9.513199155674886 0.13222103695165616 -0.3941863671797018 0.016911945263990227
Ni 6.020952389496002 7.519572301676117 1.8739915325785401 -0.9914443755750344 2.1819008775843454 -0.15654418707805295
Ni 3.4764787838106215 4.680937597775006 13.533972664697753 -1.1339701368868083 0.24121087128951363 -1.9094891552119955
Ni 8.975896898202617 3.17066819917881 10.292565526955853 -1.0432446480757775 0.8391520217947999 -0.4340855173674847
Ni 1.9107656023668065 0.2654694957701542 8.662192606770521 1.2226292300871135 -0.728771734867319 -0.29064367199934465
Ni 5.864530969429413 8.375721650064245 11.066907536740445 -2.2677178733501653 -0.35255660745405737 0.14824415185278986
Ni 2.9969899942305767 5.646614325596923 7.222107893968297 0.24014669169105737 -0.8172691056787796 -0.04675705364988077
Ni 3.8333750034727574 1.211065432948563 7.143587209514877 0.08984411464734204 -0.18453707274655315 0.3020763393163185
P 7.043303544878278 7.427116647768672 8.431466154364225 -0.6957196895083566 -1.2241726633148335 -0.21846380740098503
P 0.5339545337349078 4.010106687783426 8.493884824313069 -2.0795938545833024 2.260056757260482 0.484560643298901
P 5.665675439192733 1.4475620360530854 11.819445853283696 -0.201840082801375 -0.9392846628523436 -0.715421024592026
P 7.460769691529819 4.858881420862883 4.329830034746626 1.604683332779656 0.8128421802556776 0.4819545731346216
P 6.624782559901532 3.956134126810435 9.683024424845792 0.08100157665504759 0.4351535536206828 0.5800161905957495
P 0.14240039801235063 6.183480768287462 11.193774977765763 1.3064363945117565 -0.9316240609832923 0.3243510915541188
P 1.6925991284046629 0.9426090791838809 6.588636766624506 -0.03749722561450961 -3.145518717865415 -2.3427915145565525
P 3.585589779694988 1.1736094194360194 0.6400268550052628 -2.1906549696278916 -0.4834445274165868 -0.25794361066316224
