# total energy = -381160.60832061357 ev
CRYSTAL
PRIMVEC
9.29986601593739 0.00000000000000 0.00000000000000

0.00000000000000 9.29986601593739 0.00000000000000

0.00000000000000 0.00000000000000 13.61129395919540

PRIMCOORD
 96 1
Ni 4.644334528134185 1.7934512768314912 2.0968742879681455 0.8267379644011633 0.22850473657675485 0.4091612433219792
Ni 6.808115772736535 3.3282546778275406 2.998309378574423 -0.7417966863720773 0.34893083777601197 -1.960000790808302
Ni 5.009317072900392 8.963462038790677 12.62314162456706 0.6203328879369252 -0.29176595852924586 -2.2131150984036205
Ni 2.0343550081575836 8.94117025976085 4.942641682931953 -1.270871095812637 -0.29644099540741203 -0.16553610616401812
Ni 4.29474326175528 6.2092787951442805 4.687511946440267 0.8177882114070432 -1.1298792546468865 -1.9999557339346847
Ni 8.695449197797524 6.587876343873637 1.629966140786835 1.420972869699456 -1.6665682432099105 -0.19165080097319898
Ni 9.057930078584162 5.0959825250401325 3.6854895041499645 0.10287472257905508 0.5678916394180735 0.16769840392265958
Ni 3.4310088983117133 7.712248754496985 6.119447668585786 0.06406314902849612 0.13410025625224004 1.119126901226389
Ni 0.8563846792686517 8.128985054082127 2.9511051182491843 0.4058784588056494 -1.8161866497024075 0.3383265798976044
Ni 4.810820730967713 2.61382966453995 4.286836515601271 -0.5739566146652308 0.4925776000661065 -0.6483962218320446
Ni 8.904240491497418 0.2626514681893594 8.374008626088326 0.34865778662028346 -0.9698936459874522 -1.3493385931919213
Ni 1.9611743618556603 3.653526794367898 9.588816654566347 0.40272448655769993 1.3329277559340658 -1.6217318036215103
Ni 5.150340242365681 9.132366206808918 1.1456002849719027 1.6701577603333817 -1.7817014714413444 1.4896372649453893
Ni 6.8663608340898135 3.8725293410401553 5.237394428908196 0.7805524669840364 -0.21295316199540099 2.193037868037772
Ni 1.9608488665423338 6.256884809684825 4.676310257728784 -1.3782925572221103 0.26714610309803666 0.07487746603518071
Ni 2.1632697519671225 1.1736896005253823 9.516949149357046 -0.7199111991528956 0.6996380507261564 -1.5022906920433419
Ni 9.24602917022258 5.514922892889801 5.9890235565090215 -1.838687916128717 1.0867034905903608 -1.1364101137868687
Ni 1.4276782434472055 8.804369229502711 13.310607256031718 -0.9115080069597077 0.7226363113935426 -0.6438438265746719
Ni 8.710087187031128 3.828996667849241 10.325119602842536 1.3161937310088365 0.9540299394823182 -0.5345426316439826
Ni 0.005258144290139464 2.4997575070181064 8.394357663090899 -0.05413766238466805 0.6011372888450809 -0.5452196517418546
Ni 6.2068143306290935 1.5129115162083093 0.10165683628495663 0.2848568901142384 1.5942454252757834 -0.41136133629709154
Ni 4.418031586577316 4.901578124189275 7.8152243117942195 -1.6894821716936066 -2.186186649443893 -3.5225445141054306
Ni 3.327947782246404 4.323796043436206 5.648060705893101 0.8210231734045731 -0.1182928569063382 0.5861788677630356
Ni 0.4931830588596462 4.348533687249031 13.553990331658751 0.6066325076316973 -0.4565711000645104 0.2233846417413701
P 2.3936181352753367 5.676247670040578 8.835321973826856 0.9273115496508675 -0.5272941776116854 -0.3575525180067519
Ni 4.203855670408387 8.537081778064971 3.791629805879343 -0.622907847752953 0.36696198424610993 -0.753812736996347
P 9.180111719340887 7.8249352319706675 5.218583589757745 1.871314186804171 -1.3141414764654982 1.6285351996965887
Ni 8.486434707311346 8.897730585230887 1.0631114026954471 -0.006663013842472395 -1.560749350400867 -0.5272759227792404
P 7.526139834202909 3.185083239294295 0.6839716717727504 -0.7492569993048646 1.2041257719662875 -1.1036748283373767
P 4.382654895951758 4.583941197712951 3.018916951854437 0.3456400828398821 1.4648824265982128 3.8569038818251706
P 7.717633376966017 2.2189945496086434 6.785869563050573 0.06571354014772554 0.38503478258742074 -0.161157003259716
Ni 5.147410784545742 2.8263223049456747 6.4638403098175585 0.05901658774352417 -0.14856091176226027 2.4911480236174905
Ni 6.446369581371404 7.7586085869807935 10.818188273349215 -1.2662168848700774 -1.5571233236125055 0.4078798055063943
Ni 6.639583599362097 5.0642885813882135 10.864875461119567 -0.22716750582257006 1.6319439682678218 -1.904157715696753
Ni 4.87879345225641 4.11491175107536 9.797232233676002 0.046886894359525706 1.5859770146194039 2.5782372012275143
Ni 6.297413626127039 5.2475610425233015 1.1519799931131047 1.5527789306008806 -0.22223150197353342 0.3267699854082566
Ni 2.0189730296363764 5.595766628854044 2.1978429341620687 -0.43855820842685767 -0.5079401985651059 -0.7767186950602429
Ni 7.950920517960267 5.351970639172391 12.605473738959688 -1.4051693270082963 -0.5852607268241404 2.173861809329953
Ni 7.24619526500981 3.031282053814411 11.705808412871297 -0.7782389883595113 -2.0086830865053535 2.1021501426172633
Ni 6.947902060011184 8.624370321233082 6.079430344778799 1.813016222394226 0.04396432139609203 0.36107775755119104
Ni 7.420707252283363 0.2706056436604529 10.122351832412402 0.29267330083486365 1.8559670149241392 0.8748420189972417
Ni 6.817462138162057 7.579697763044283 2.060409513009467 -0.8715834028506279 0.4224592459824659 -1.3052709134487457
Ni 6.847324008193252 7.9528920895724164 8.359240438729392 0.0639847303820769 -1.4142818308325258 0.4107442715383829
Ni 4.530513466996907 2.2280712189174086 9.021633631201805 0.07150417868757362 -3.046511705771882 -0.7264515713745747
Ni 6.703362081041928 5.485386518171933 3.7639859539118166 -0.5520464448557009 0.6261101567403347 -1.2061538581399098
Ni 1.06699223681691 0.6919109674580918 1.702908710516725 -2.6836658005766747 2.1691420352567805 0.8891851750927912
Ni 3.0510163696681007 0.1584743681926451 1.5977886040979732 1.4841222486644312 0.23231022636577411 -2.0265021169646453
Ni 2.562261907042916 7.818657822356511 8.959974589005034 1.359025224352066 -0.3748154188522577 1.7936884685998915
Ni 6.523084176789445 0.8709584994261994 8.002106980947405 -0.36914279394751265 1.007500914817265 -0.8620081004573671
Ni 2.7945167629006145 1.2880128544317926 3.500892742082942 0.1560991291208344 1.0103656379595696 0.46101139522405116
Ni 5.359605829236425 4.442964527578136 12.817701333181706 0.014468111709187985 -2.883377009960505 -0.7302349496764069
Ni 1.9874278838419777 3.9128070610978027 3.81621214192838 0.13262212904481677 -0.862379881974489 -0.10692600983029327
Ni 6.727644031416094 2.946234778375208 9.211551776648413 1.6327381820343427 -0.16652289555731967 -0.42578496792158926
Ni 4.3005556780646845 3.833283906119058 1.2610237130373572 -0.13237144648659138 -0.7782608427363822 -2.645309826506296
Ni 4.820790187421603 6.431173600172097 9.126685848598063 0.3882154943082476 3.6328962617878204 2.3193836771555736
Ni 3.42236002284332 7.55918225843861 13.523079436732033 -1.0363582053685894 -0.2035472953004688 0.07815742233803313
P 0.12361940005501917 1.130956715818642 10.374242425543184 0.035976160984292876 0.7819701732671694 0.4096266129941719
Ni 5.431437994954567 6.7573385038575795 6.561718610508098 1.373033622816016 -0.08267407926146407 0.8711422015481514
P 6.645879608708443 7.476655246711164 13.377152447874826 0.1602864277293046 -0.21564253590210603 0.020992285980950945
Ni 4.89283625005993 6.42358490943854 12.27620267999846 1.6547643085964467 2.0397579535332873 0.2474036303637868
P 0.8658314832480002 2.0670998366782434 3.627328141591542 -1.7362613368306745 -0.07474351156047772 0.06507539234309437
P 6.0003387035868645 0.7125492302962197 4.032372649521991 0.21928913151575782 -0.5016032006034845 -1.930284751801108
P 1.9128429577597024 7.308113773470631 11.462261659600994 1.2344740452408416 0.024464303689951415 1.4695212109218048
Ni 1.191796439812438 6.421483139701059 13.561681320919353 0.2778249229681215 2.243361813103304 1.641484046547773
Ni 4.979269205547296 0.478639928260212 5.797934557921046 -0.10059081164088482 -0.032149073928718824 -1.8544004417679676
Ni 3.3694158851642184 5.478792913110545 10.988819426501303 -2.210863840475599 -0.06593851167433806 -0.9081812565793198
Ni 7.752303277768352 1.8341567907295113 4.443298392770949 1.1372243821580477 -0.03665570354982074 0.637044030044019
Ni 0.15868733512622166 2.169649460108325 13.536295476439705 -0.8409571933243388 -1.7763368646953215 -0.3988724598014614
Ni 2.1027555232866533 2.675701673670297 1.0992553322738465 0.5702645105256243 1.1469871179717668 0.5946226276550146
Ni 0.43283715775549697 8.074962131936001 10.128749210299185 0.021214429294086044 1.0212730289006926 -0.4041133964854266
Ni 6.817806233207573 5.4309544019176235 8.223862287983795 0.6546779410756983 -0.28902541966963124 0.3321119664464603
Ni 3.7459302638882828 1.8050017105215397 13.187656516348932 0.06908065684774554 -0.002480600330008631 -0.40922654934227587
Ni 2.915982313968021 4.81814902545061 13.317235270597658 -0.03050305368486359 -0.3624137027537952 -0.6608856125483069
Ni 8.152922909410778 8.801588569540293 3.8128641901341633 -1.5733516125459097 1.7408186171840534 -1.4381218706749166
Ni 4.619131891016608 6.7579894944842325 1.9184033476979307 0.3196079204421786 -1.2649698998368537 0.6676931223884437
Ni 1.4208056424029658 2.9141223407490116 11.556274935942431 -0.4038452304257044 -1.1265319354412082 2.037282495409601
Ni 1.4069116424569659 6.649348458761896 7.221308823339464 0.6609442337003842 0.8364436217247014 -0.44265063332867643
Ni 5.313366895011852 1.4305333023383846 11.038854566065874 0.08227273005798734 -0.15919782265081617 0.596554811680721
Ni 6.233430547393117 7.56321840032386 4.151961487611417 -0.688472263917324 0.7183029741255114 1.5547280839074513
Ni 2.7781303988411423 9.271166708277491 11.252157224808478 1.1217355424938293 -0.756862065345632 1.3257651767473555
Ni 8.105381993932898 1.5820932200893625 2.0076662524380184 -0.6939165748613468 -1.2721533049591702 0.6514679187788328
Ni 8.051359071786772 0.49749261680809087 12.622678491235526 -0.12066572801388896 0.6358973180340854 -1.5319177708811553
Ni 8.558936463388331 7.553704637308628 12.159281973491703 -0.12819751761455986 0.3984621117369202 0.8368280016473136
Ni 9.202701094085757 3.572255264563284 2.0282459261197476 1.0766005978284041 0.6117351189655852 0.7244504817841458
Ni 1.1593306072746299 3.644952317828265 6.2732004947619755 0.12514227572800382 -1.1419467273343817 0.392401250254821
Ni 0.05837246951878028 0.7874745314775738 5.935599545739415 0.2540314200929496 0.20695426409948872 0.1802351029370896
Ni 1.917539390137701 9.143200550809647 7.357394693894894 -1.535224209546569 1.3556426810330782 -1.1285911319630821
Ni 0.07088357937644675 4.926669162913711 8.218308407951833 0.04773073041705973 0.16883071775488986 1.1999742116917593
P 2.738764065660809 7.542442499467526 2.0957443542375973 -1.0681038732113024 -0.5753907760085961 0.5477167071320954
Ni 2.9118345736896303 1.7251065608989924 5.856327487145236 -0.5112960024112163 0.6972047586943154 1.0462944906456948
P 3.6496301504740734 3.147046786965554 11.40502563371903 0.21510054735570697 0.09208277416987366 0.5037428726543066
Ni 0.6324922630036188 5.610813812195829 11.602961193726175 0.8494464617422725 -1.1399926889318044 -3.0200139165916697
P 4.458058210250397 8.73608961263288 9.799777607026218 1.0841115614934682 0.26766315194377127 0.40915481556407596
P 3.0081904863004096 2.8180826235854632 7.848816358116138 -1.573176006199994 0.1873855979389418 -2.7679504188583683
P 8.29523876026328 6.4729671984032375 10.061482348847102 -1.1683131331430523 -1.1628379689610941 -0.7063810258769447
Ni 4.215843197804903 0.2734383828730042 7.694097275852673 -1.3096818980322478 -0.7176812813811124 3.348200836952111
