# total energy = -381165.83971759723 ev
CRYSTAL
PRIMVEC
9.26168790748958 0.00000000000000 0.00000000000000
0.00000000000000 9.26168790748958 0.00000000000000
0.00000000000000 0.00000000000000 13.55541643837111
PRIMCOORD
 96 1
Ni 0.45880179924222425 1.2882822880195026 6.563085014860619 1.2642157952796484 1.534112464539629 -1.7049962081688057
Ni 4.254634268432322 3.4490248545025715 11.601850842574047 -0.47068619930965394 -0.7261432961055365 0.8273730268820009
Ni 0.4962940387433799 3.5715199409980345 12.915221191254286 1.0856873906210205 -0.20403914733522277 -0.08941782574320084
Ni 2.7723844470335295 5.803753477741083 6.577481382806223 1.580728107515639 0.1746187851915767 -1.887930455204613
Ni 7.728887961254388 5.933241138734057 5.6526221778829004 1.423512091181542 0.6617798422278022 0.4290070744033128
Ni 7.3488531144247835 8.87305838280864 4.81684929822667 0.41460863958979566 -1.058431640228861 0.033096782553968807
Ni 3.4809313699249875 3.1718317920707917 8.01463974963736 0.14710232493886277 0.2426254922488531 -1.4363313544333973
Ni 6.382599720813815 2.198659917466921 10.400420960657662 0.09857455254180443 2.726420675045698 -0.880215110383697
Ni 2.7868975122488924 5.509028039781107 8.721474186403533 -0.12213305658803482 0.4025175127532164 1.0717203869179672
Ni 5.913837902214474 4.466625046807844 5.582093497014036 1.0203070654429975 -2.2367463646693153 0.7726663793677403
Ni 0.9579549210947187 9.172146075852492 4.525475665181462 -1.3971405431665487 -0.30634874143942725 3.912154574768359
Ni 1.93168249698316 7.207390090749319 1.965860904490661 -1.4993472931443017 -0.9102126851870518 -1.3677975712280572
Ni 2.560375145281855 4.8154016963803645 2.493586334058149 -1.663861900022341 -0.12762724693338667 -0.4503410599943986
Ni 7.047700064939945 0.07818531840143665 10.890869021887362 1.5394264205533745 -1.4649623879065286 0.39709968417175484
Ni 8.727816590398096 8.705718202648347 6.909087788854326 -1.2970750079015145 -1.5428249047119622 1.0735859793717961
Ni 4.6381144632262625 5.0959567515837945 3.1455480474794206 2.0049539584802245 0.14997913226602558 -0.955503181593735
Ni 6.567546370006911 5.767549539051322 7.7521125702742 0.4746755229747051 0.3543507232400026 0.6765071211356477
Ni 2.9279808067132347 5.436221909814312 11.140628038068709 1.0588882681503053 0.22412100568676238 1.4757844182226971
Ni 8.859101018877848 6.8039694815273775 0.9177249265982464 -0.2570339543646993 -0.3702069735459689 0.020176732058191055
Ni 4.938119063389656 6.337569393387462 5.19371757390303 -0.11646660233087684 2.448464882926667 0.2658847198871098
Ni 2.6151487685643415 8.74774774313802 3.3271503011082117 2.8012850284547564 1.7837388135863474 -0.7067898312795893
Ni 1.7836714598378405 3.212935163752847 5.951478328724848 -0.16337252285379608 -0.2757878379334347 -0.11843401046989281
Ni 1.1427070748382164 1.43908109327575 0.3459805459423237 0.5918592059772646 0.51672231563311 -0.5459015083002277
Ni 7.165934774920369 8.18033968483936 8.964766691970096 0.6071097043784318 -0.698751534356145 -2.5798927345530664
P 0.7829090164550503 2.968028345954606 8.153786425124974 -0.3529990943081146 0.41429599344538326 -0.5039099943597901
Ni 8.967333105736005 7.90494338989436 3.133280015453722 -1.5079314352688868 -2.934602640904701 0.3154581599398632
P 2.2910267326505935 9.037194018894576 6.67144769152065 -0.8166998634388708 0.1245763759222048 -0.7463053728757082
Ni 1.758211079316441 1.021860568820312 8.510890258446782 0.09409337684199924 0.6630096008698452 1.247485112788529
P 0.2217146246866962 4.785310471820878 1.3290763193198138 0.6735076721876917 -0.30977087974709877 -0.05872528175535048
P 1.6400597245287027 6.729950070422603 10.139208014832512 -1.4689231723264895 1.485352007306474 0.07999318999519127
P 3.13810072409737 9.012780209125784 1.2340902987481994 -0.10891013013985758 0.05248084350753542 -0.12254828974858249
Ni 4.526974206312187 2.387190839945497 6.052981799195665 -0.007799698550076891 0.30241598204392434 -0.771436363615381
Ni 4.293598190168781 4.311890024119222 0.6746435875198192 0.18924784795866118 -0.18890049192157143 0.20963566758639382
Ni 8.671144321059995 -0.21160734448916868 0.4979704042851672 -3.778623046535396 1.3989374871659714 1.495173107161954
Ni 8.378752828495214 4.182735783896991 9.058406989264244 -0.5278433652469361 -0.08469162391212512 -0.8289732814895854
Ni 3.6698420216146865 7.635085584418909 12.129346582277243 -1.0639224881401033 -1.6447853430068642 1.0619139423505066
Ni 1.0668816345585885 7.339526594532078 6.1666032623453475 0.24979809873789235 -1.1571185499788137 -0.7918149272717331
Ni 4.870944039773173 7.387122409555531 2.818415036772109 -0.5844834823384837 -0.051313048451679374 -0.08183152875551067
Ni 8.212098013252557 3.1681734252807034 6.479950250351275 -0.3220818359039679 0.3371955516169547 -0.10128603793569653
Ni 2.485642584195215 1.7601560338124371 4.1455714081537325 -0.06429917629870216 0.350966380148802 0.3293590862916715
Ni 6.847610555742305 7.617951461477989 12.801518225249534 0.3880568572431962 0.6510789108705303 -0.0702502516758145
Ni 1.3286725097196928 5.977734288251992 13.055072681204498 -0.4038421451019109 -1.166360894512688 -0.002899690145298232
Ni 8.575017260517395 4.1711957205540795 3.73335126909062 0.19625924627948782 -0.08962402821673598 0.6458760265133522
Ni 3.8788690598058335 0.7987048254689632 7.582520873742589 0.7615928951623979 -0.49868371296384445 -0.8230335189663825
Ni 7.147652202658003 6.4621761447642925 10.328522476122332 -0.25940862524446295 -1.8806696598771415 0.20129089516612428
Ni 5.531395016485066 5.901019725917051 11.98575337034426 -1.1195899569057362 -1.0957422037538613 0.426448312537201
Ni 5.681119465924477 1.2199588150815748 12.337570632112188 -0.774099512269841 0.23657208696592158 0.5819206067073139
Ni 3.39421418446778 6.339384684250392 0.41913862005601366 0.18676287675327835 0.8093251682413545 0.5994251912499806
Ni 2.2513959693726497 3.6154388658552468 9.812806677483218 -1.449891095395703 -1.3530738918646374 1.0059068308572676
Ni 8.8666215095957 7.108753112738078 11.592321491712472 1.4379305805997171 1.5080373647191319 0.5047779987870403
Ni 6.203284177971031 3.0417791681051716 8.007821294875681 -0.6766205067850605 0.8096303581865992 0.18469159604654645
Ni 0.41613783311933367 4.968895652866778 11.019347158880034 -0.19947672477552097 -0.18178907768777078 -1.0643945426805153
Ni 2.867557553704282 6.725911974421392 4.068062192981856 -0.6698006556497497 -2.211607146399527 1.750279248376321
Ni 5.247274211372308 4.793155121621397 9.842995149767503 0.16930122963340521 -0.5393894182133226 -0.0997559744444153
Ni 3.183964603450578 2.291267536540574 1.8915497502114873 -0.8657912216488832 -0.10516428994418019 -1.741363176833614
Ni 4.597224110369958 2.6156859464727598 3.521154881239806 0.06191962032293207 0.06608275056168618 2.3545106027656932
P 2.587261825766985 3.475874488235397 13.30901983273389 0.5990014734490007 -1.1093181426660832 -0.6556397907683353
Ni 0.15008843378080522 8.965054730469266 9.68584653116623 -0.005149919632055647 -0.8009261455443819 1.2290256205317607
P 6.3797378591982765 3.7313396304404747 3.5836999869870096 2.3892649755277433 2.382274660252839 5.080237851288793
Ni 3.985582229819498 1.7277864339862128 9.741505571828801 -0.31125517760210913 0.21207872981024767 1.1158153203546526
P 6.449784006118373 1.3591342018022254 0.6685734771546955 1.2245819829381106 -1.2364049437149673 1.5596273209812817
P 7.286762757562121 4.167379905066697 11.002539047359395 -0.6119474920867074 -0.35642148972610227 -1.039214958091094
P 0.17879688831051846 1.907528014480501 4.395384142125922 -0.19245555626268143 1.0375529970076387 -0.15457343650492733
Ni 4.597696456461843 7.704677908623273 7.466146836896669 2.11935056565595 -0.49413723124374254 -1.6642370239735724
Ni 0.6128107055856734 4.960680535543212 6.886504088649385 -1.383156570182631 0.6452373644880888 1.5930426632169337
Ni 4.985353672578137 7.26757253986829 9.762298987728617 -0.24010118316510265 -0.7899025407403687 0.03428900308985707
Ni 7.105298503085665 6.264596553035295 3.4822919119033773 -0.9213756437824069 0.555767859571346 0.02348779870929503
Ni 6.1877986355076695 3.3252516550525963 13.28643613252895 0.7340833768882197 0.704571997692664 -3.302269878747951
Ni 8.009693082035875 1.9208555836221137 12.131148906776868 -0.4833540245853095 0.32001441185197793 2.362623204570499
Ni 7.9170206311456885 4.951789314990087 12.78842405064744 -0.09719798390925197 1.5977560095322032 0.5946007732781438
Ni 9.134793687841288 6.568185426484168 8.727709154816413 0.5084356501442856 0.28692791371065424 0.1765219157515605
Ni 8.421504780654828 2.664698799771867 1.1022279409324949 -1.9402531758677295 -0.8620811197871476 -0.37048593823896836
Ni 3.6007961370068173 4.212502849373811 4.9565248161034345 -1.205390240501008 0.5393351679366196 0.01583439592909531
Ni 5.099874445640015 9.49341551183878 5.122347931756849 -1.3188887613424962 -0.8387365315239361 -0.2582745116400197
Ni 7.369803052853088 1.6691784718401905 3.576501803014208 0.08255349452319977 0.5647271256471629 -0.13323019494246088
Ni 3.4669740059941945 1.251457816228639 13.211840644425838 0.3706242635890456 -0.4992904933099078 -0.2574083069849825
Ni 0.44907610059343506 0.4530688143230732 2.4339160562897897 0.9693894526575241 3.2124260212109257 -1.0524237434718842
Ni 6.028349413588276 3.1568185956993156 1.8362574723967349 -1.615341326714134 -3.1823199458541644 -2.5243635911375106
Ni 2.6778689202161847 7.914797826007407 8.526289667211033 -1.6720076690579269 0.36218847411686655 1.1122134619360071
Ni 6.513532205146672 1.2695829397937095 6.548526567373683 1.1136154844898563 -0.5765148623107104 0.02741850122226891
Ni 8.24246708845433 1.2978496118021892 8.347520563964745 -0.8175236448917469 0.9836397919289512 0.7445038008905952
Ni 6.8169358448340205 7.9425087967313175 1.6421436043458417 0.27253282133124673 0.3976388445046765 0.5203478282008392
Ni 0.011859591581539439 2.2156643767747743 10.38081952401325 0.9989471117099828 0.28739636870664054 -1.3372441239212325
Ni 2.3901545801298725 9.085049161184163 10.861196425628918 -1.1187702892179185 -3.5004754501205326 -1.2565618782788166
Ni 0.9690874701622787 2.9805686716097446 2.39094460212277 0.6225062414391601 -0.4241446041046889 1.1087221609532971
Ni 2.160057201565432 1.7796611489008574 11.293600561516437 -0.6409785892117348 3.4829227859487504 1.4173008201645076
Ni 5.822665844792628 0.6767265411681506 8.795920561328618 0.03308238437626561 -0.107443315786344 -0.5328768139057855
Ni 7.324763463738658 4.914881488006538 1.5726726082552764 -0.3356413197559574 1.5251002337386894 -0.2558551035652497
P 6.8106471586302995 7.791413617456632 6.718634139931137 -1.0273629438485146 -0.24719177146329682 -0.5370162899954558
Ni 1.297831088426037 8.332972304334692 13.359161685809482 3.330990900831728 -0.7821090128378789 -0.5754535109257316
P 5.5204662245551805 6.453257139146937 0.6134108629730095 0.8211499287904245 -0.12340189599812942 0.7720544568153541
Ni 4.634798778894992 9.086429152707511 11.005262909822596 1.4151601196724208 1.8567116063996474 -1.4808875437772173
P -0.0850639741356103 0.1037503559980968 12.088205237674078 0.3194210012423531 0.14659736027798626 -2.9249345216873173
P 4.624268239552383 4.980620949971213 7.754186262234455 0.24157288261462265 -0.16765160984512417 -1.1923215802425078
P 1.0589721529415368 5.308040146840079 4.792530883845062 0.6355412202462474 0.19421547637658165 0.04421911771937546
Ni 4.731574157602923 0.47980545546136927 2.8220752558998123 0.625097142094788 -0.21064868223194042 -1.443736645758533
