# total energy = -340865.21608900715 ev
CRYSTAL
PRIMVEC
9.37117773219645 0.00000000000000 0.00000000000000

0.00000000000000 9.37117773219645 0.00000000000000

0.00000000000000 0.00000000000000 13.71566586423098

PRIMCOORD
 96 1
Ni 6.963862557856163 1.3623630406276463 10.153995049328373 0.48472082302584907 0.7646496797108508 -0.8652075812312713
Ni 8.50180397987026 0.870914128175835 5.629032973801507 -0.4079618236972393 0.2932466568398305 -0.6105619245930904
Ni 6.4520744417877225 2.148839111179416 5.384551135710307 0.000591867947728013 0.30267077836720774 -0.04756592270442131
Ni 5.09914817688895 5.278278234542773 10.948282933432862 -0.022295578173406765 -0.15222601931867333 1.1552102772125075
Ni 8.650149719481039 2.6656314360256292 0.4138771165720806 0.6635029955664961 0.4778600913502738 -1.60595551462386
Ni 1.0247007734352556 3.1378544407462043 5.2431559984412415 0.18160807202521628 -0.02849733610874447 -0.17641187253625745
Ni 0.2500164555147076 8.855978261793807 1.2409575620549649 -0.5637951007511968 -0.9230293773357459 -0.29308776266446296
Ni 5.037148466638482 0.5954774166113362 11.17769123253708 -1.3788574285866446 0.23142499554734336 -1.0033794364497235
Ni 1.7043641629962711 3.1499245173487744 13.103000584249541 -0.7041793902399356 0.2775220470157221 0.7513848442811446
Ni 5.84232940745324 3.358648753504861 7.0967599113804996 0.9198383812022738 1.7416367422099746 1.5324278777483544
Ni 9.268769258895206 8.839363164110301 3.695836839116436 -1.1562263771818473 -0.518017894516082 -1.1067593807999714
Ni 3.9010993623090218 7.449252066945225 9.632388750607362 0.4479692173281124 -0.4553827361833641 0.013809137968950412
Ni 1.6844597820150145 0.21241273161476015 12.730524392694925 -0.4374876010704981 0.21276598568525937 -1.0874910194886624
Ni 5.018846557007411 5.451635646864931 8.537041481454876 -0.5112011287045648 -0.3683007576621915 0.9779882500701286
Ni 7.1383070267667525 7.8122352557060495 3.1634218242825334 0.9584409240658204 -1.2315329603346468 -0.08526215170361444
Ni 6.835102579192102 9.418970491648306 1.542285899896824 1.069508981088945 -0.0809342137522219 -2.0738793206970283
Ni 5.721000772535948 6.627024954282581 4.5641898244852195 -0.3593859716710649 -0.8139698661022176 -1.478419541852699
Ni 5.1754951598712 8.898823285261935 13.144517711867836 0.15699464435191027 -1.2088416893847183 1.2050657672820535
Ni 7.42645199212065 7.659213298529525 5.973995388255855 -0.1420763324791811 -0.8390651185079485 -0.5306713216140345
Ni 3.624630884103263 8.561235987489438 5.55554419995263 0.017599972469950334 0.0627706554693177 0.16958199409861763
Ni 9.566941384159623 6.77144417052653 12.69760625753821 -0.2410432353633978 0.348047149619478 -0.7572564725705733
Ni 0.9910676174363245 8.961713257373617 9.237130289465394 0.5153038380190286 -0.03435096667604406 -0.619164835770753
Ni 8.984625786328031 2.0896132694649423 2.6289779495228096 2.3643471292401412 -2.010245803006783 0.9190053437780172
Ni 7.224784252611873 5.722453305046351 12.52755968222202 0.43307867336952516 1.1309274934057425 0.12376776397798041
P 6.589999432033549 4.101258342242477 9.821993910455557 -0.8374805476296481 -0.4747176890665502 0.4463157408850894
P 8.114718122614242 7.502564695665737 9.672781336927283 2.9315666822918547 -0.3021655565960151 1.3278063755471003
P 5.2203549864989185 6.491639553135588 13.205566247603427 0.085865075394936 -0.19810864078340076 -0.19494386990217397
P 9.05643711940683 6.503850197400455 3.758133615693225 -0.7135040100749712 -0.09112375269071403 1.1988614382435547
P 1.1335095152306276 5.004967843149953 9.657707797940299 1.8819405561697653 0.28332785506422176 -2.735470443952792
P 6.214168358938777 0.6596231265062051 8.198786018727592 -0.9573255795144546 1.0597038220730655 0.09481842793348186
P 2.909385133626131 3.5799491098477865 6.497248202861239 1.2305893654744549 0.09127339089470088 -1.34824021792142
P 2.8860415305073412 9.091513436738676 10.675094367347368 -0.04731241193271852 0.2943468318825447 0.0146516884749038
Ni 2.7700169820473888 6.279119990097483 7.443588127272403 0.6128882587334219 0.16176275516451494 -0.2377321687122938
Ni 2.398918353583283 8.904221083494141 3.482256458786862 -0.07295710908401629 0.6683346126271844 0.6147116850954057
Ni 0.6719256083104392 4.563875890039423 3.2657682020832373 -0.477882459947777 -0.4672920860264404 -1.6369200813261742
Ni 2.9898460635249395 9.151292177924852 1.198999051977056 -0.6099433171724851 1.0017439577288294 -0.5741245077016629
Ni 7.273804882043583 3.228033281698479 2.1631526476722462 -3.840201738579141 0.15590218261867989 0.3191834313102503
Ni 7.922290364107122 7.1938968516164765 0.7099060535453426 -0.4714693573325816 0.07991400001782366 0.4971819316073373
Ni 3.7612720230334427 1.4241003579084928 4.708669953382829 1.0703376476378277 0.4273782805506382 -0.616037602995681
Ni 2.638033318327983 4.708060826846209 11.097715729632071 0.41042339786385446 0.3038084915160768 0.32799357340271257
Ni 5.142002571534564 7.133846346283194 6.7964005532907406 -2.1573239595759297 3.43004444989248 1.3111826509474904
Ni 1.6638806762547322 2.026854493838071 8.727359787909792 -1.0836557049029725 0.12034254034651531 1.496158611003675
Ni 0.5103908735052075 6.533463118257692 8.061670698216597 0.06285807297680142 -0.18042716434323766 1.3895722439009874
Ni 0.6493841779844908 5.546275168300766 0.8543964907381878 0.1624690372029202 -1.77123116803764 0.6025138574776333
Ni 4.3060747973867075 2.9312106059921135 1.6986711726732422 0.3100305611663886 1.3142407210475235 -0.16957865166450795
Ni 7.481676341048402 4.353155593078719 4.274651365039085 -0.248525659783372 0.16587112090593367 0.3476280598041884
Ni 7.162540891746757 3.473455048891572 12.069058892694878 1.2976180248891782 -0.6566062684466627 -2.3094733600203967
Ni 6.37385322330818 7.642841851460666 11.198566467505934 0.03957750518230604 0.35543752854627814 -0.019505674133095438
Ni 3.1043243676996237 3.807771805721294 8.642419435172451 1.255363229985025 1.0556905871486142 1.1894661130715836
Ni 5.67362009916437 5.9168302684706555 1.8942701376417828 -0.30172101285942876 0.9293571193259866 0.4150238727503433
Ni 1.7967358594803795 1.2271931765628414 6.669777203093594 -0.2474987611807544 -1.0775948434208733 -1.852383411337939
Ni 6.851539624503366 0.7408899776688497 3.6688440994844154 0.05319663862763741 -0.04561934050101176 0.18451907502442413
Ni 1.1818647910607991 4.159359642658575 7.539158206632643 -2.4832529371401297 0.7780734093159245 -0.18368629471048364
Ni 8.696705729233809 5.44606916743797 10.503813607956209 -2.209222962438066 1.5531368281609317 1.301426600001991
Ni 0.2853373605789516 3.375132654703557 10.712537844112296 0.43617633845824233 -1.6366303179998976 1.1736774827787595
Ni 4.66649028351624 8.81119340458598 2.703728083861365 1.429007052857842 -0.7628573636971184 1.4130214760628632
P 8.620799191593424 3.1131801304243356 6.50014202246906 -1.099638453484474 0.01740225463684745 -0.8253899350137012
P 4.959480147630641 1.063150714662231 1.238494816611521 -0.5584904007088317 -2.3592332050523432 0.07585628500868227
P 1.1591771703660618 1.2795312028247614 0.9229747675841556 0.4754597094388972 2.9261624805571476 0.09166368435458407
P 9.336447902702472 1.366074026912287 9.972454724825033 -0.9488399106409464 -0.46301479880732516 0.06875258408436546
P 5.834420133654663 8.732756649024248 5.039862359638563 -0.6778962881736906 0.9184481857229667 -0.4917761872107337
P 7.558632450567272 8.795655992313417 12.829702375387454 -0.8919228857389284 0.3204828668479642 1.084108733279991
P 2.630170900416837 4.373697214129055 1.6484313530505421 -1.6587605742400338 0.3284075210116796 -0.7842764528028429
P 9.359229235172075 4.5110974184356385 12.735763818027607 -0.9487998014316306 -0.42165114825887384 -0.8326497018999078
Ni 8.381421833879102 1.262494402154364 7.859706829499247 -0.14799681172867415 0.44762623216639685 1.4860066101713376
Ni 6.544202487657183 7.897709765560118 8.562607927873456 -2.707579888190111 1.7904887307156712 -1.144490833912474
Ni 3.4125798799394804 4.078233359158227 3.6011991919160997 -0.2543756908062458 0.18874262618746848 1.205892119838091
Ni 3.355912369678812 6.359824570610939 0.848960270678288 0.5156100564055377 0.03327933087842011 0.9493659583477455
Ni 6.014787186736699 4.251150326138522 0.11396476364842639 -1.4289839129293904 -0.198089100399375 0.8375142290810609
Ni 4.926156240488763 2.5345005494574924 9.135291829484459 1.1844846006965921 -0.5877901781142135 1.1854343662043711
Ni 3.3221199036626112 6.91686610276153 12.155261543039645 0.45200430662943447 0.7847708759407581 -0.4514057538134871
Ni 7.511270519550666 5.821516022255796 8.402326119498165 -0.27210473265489266 -0.14198531542727158 -1.1216375834633843
Ni 8.244480817269356 3.68947006113213 8.514287325399984 0.635100533164403 -0.7739671004570348 0.559866455120752
Ni 1.77994270942463 5.380011737335862 5.04255095045943 0.6702608831156198 0.5059704764332448 0.49104959345735427
Ni 1.428851544894132 7.018552749667187 2.4471349359866545 0.10209850653466286 0.12453292427877909 0.7445048293318598
Ni 6.262814141271029 1.805451054542794 13.501632669286636 0.8502201066835035 0.10882348396332225 -0.8217675077697653
Ni 8.442053352216545 1.3468912265974886 12.022918963222509 0.1600182616695825 0.6293407478624903 0.9109647328617279
Ni 2.779622438971018 2.151706691490275 10.949846982955354 0.3299324422966382 -0.4426742874777602 -0.827267097431756
Ni 9.07484211199025 8.616469707594675 11.30018564193369 -0.17055644219674496 -0.04600886262994657 -0.8542515964403998
Ni 2.3073994342504434 1.9332739154582084 2.989891982294623 -1.2147236020867918 0.28191889053183705 -1.5918327020692327
Ni 3.3536726582595464 0.2939560325132556 8.487486694906437 0.1624718654163976 -0.791790501791701 0.3753684631422503
Ni 4.1789735171377504 1.8235280559141895 6.91892213910206 0.11633239074585772 -0.21369878191217392 0.1121116677962908
Ni 4.017273849608757 5.4360888634148825 5.456804788366467 -0.022382995680890486 -0.8718651957571049 0.8234513232300915
Ni 1.35935489265449 7.062213065576638 10.656523504922436 1.0378065077793417 -0.7398195080410483 -0.645373890065953
Ni 9.074560976665657 8.483136594317218 7.106772077407041 0.8060976624429924 0.4751465490738526 0.7472510246184292
Ni 1.2273712289350844 7.67352308655136 5.180447827172797 -0.37734846968675656 -0.8269323398001565 0.11517230899948551
Ni 9.01824019997199 5.47129637723154 6.0532446249056635 -0.9838987020172926 -0.0980824433967343 -0.5999856917391408
Ni 3.532924541220693 1.6753603686756546 13.142117753313553 1.5482573885814432 -1.4030260554130483 1.5888373668863347
P 1.9111204518801996 7.749692017161367 -0.003759716407570689 -0.9802078834292667 -2.167276185692635 0.06676126468594953
P 7.672033069331012 5.120542575090554 1.45974456859602 0.5143242477145786 0.5460879132794209 -0.3278516485082095
P 6.090140824905383 5.45737080748665 6.688170013146284 2.038543364399896 -2.3549777722100993 -1.9118352868466688
P 1.9100427664692559 8.32722831447486 7.04212969510539 0.6261772625328442 0.30069591402902407 1.9958046878807885
P 3.9332518722650907 3.5423050898846475 12.390938222764563 0.46870773542704436 0.8408615482867389 -0.45569898187220226
P 0.7221054523972259 1.2431804053547548 4.333930622465231 1.9214838656800262 -0.15573634646477694 -0.5624792101532506
P 5.354587732815077 3.0877092700161177 3.7342952144031494 0.9844905699650205 -0.1500056146285868 0.1534267244949938
P 3.4744858784150834 6.766252538199027 3.3057362740630203 0.9449994538489338 -0.1060088973326626 0.28602082851535254
