# total energy = -340896.1001820604 ev
CRYSTAL
PRIMVEC
9.04438137721683 0.00000000000000 0.00000000000000

0.00000000000000 9.04438137721683 0.00000000000000

0.00000000000000 0.00000000000000 13.23736636564334

PRIMCOORD
 96 1
Ni 6.3498341104140765 2.0631862088800172 11.562932373090938 -0.15538487666262915 -0.8037474170432609 -0.0739320714027759
Ni 4.602115926704081 0.30843511415017627 6.143236922577243 0.2406729965081726 -0.38296067366721137 -1.0764041655468817
Ni 2.6340585219736705 1.494050417025833 4.940926595972764 0.7031010695740924 -0.17317588209746304 -0.872091452835298
Ni 3.335305593749257 4.342307025011591 5.052133597035924 0.8028447027233335 0.6308548705141716 -0.6361197184575367
Ni 4.978172263244916 4.529724697533758 2.524484936201384 0.9402799368860774 -0.11936732091743957 -0.012471650104449488
Ni 7.576098481303614 6.230312609478818 2.538556184869948 -0.7914128067373079 -0.16714381697077021 -0.07516080160355443
Ni 4.940692346493065 4.63666546386433 11.361326779379432 0.2680511314108094 -0.2751946844341261 0.28800160639080724
Ni 5.453101777857961 7.840429573723885 12.509761534529416 -0.5044249863229958 0.23470186652640224 -0.5673776758961325
Ni 1.8061358435314745 6.42112192504682 0.3795429455919546 -0.07420229434502705 0.799104776064927 0.1821940264356733
Ni 2.7683223646814965 1.654470610903146 0.32040263969217664 -0.31822363850014224 -0.5344737260792601 0.20282018732645715
Ni 0.5553132636756483 9.024682792752333 4.668461891309505 0.4585840167294812 0.21714765969272282 0.8755238755556147
Ni 8.719823827029687 2.4087268023897845 1.2835840428023104 -0.37402351907858167 -0.38982114823247055 0.3881545591633251
Ni 6.937709860644187 0.8028715506865786 4.926378708401492 -1.0130886933176877 -0.4395375416209914 -1.3649840130386621
Ni 0.9545349744386158 7.662318569719492 2.670625860636655 -0.487613828302928 -0.4611013838346962 -0.49538781582139196
Ni 7.83424321680828 4.038976559754934 3.79085119002674 0.15533988235730667 -0.2986696276276147 -0.6605480267032301
Ni 7.571124071503054 3.9018637368886058 12.591052435052012 0.7922553572432613 -0.6548468625533949 0.7719937787807479
Ni 8.044534130031565 8.841271781214981 6.825848046363644 -0.15160535501553887 0.9143696447782188 0.8796836633602592
Ni 6.715299476270448 0.6464833420621554 0.46041147350057604 0.7826121777265425 0.5218092432377143 -0.47887233466487206
Ni 1.9709606511776463 6.289200577135985 9.203054274942648 0.15095820834984325 1.0337752751327616 -0.15036556907116683
Ni 9.2107980743449 4.880646698009585 1.3047162400732322 -0.34117639064157373 -0.4471464643165009 0.29684337305215325
Ni 6.258838588589662 2.0919473419087065 6.887957622695283 0.42041316208671464 0.19605818601227526 0.5719336706979311
Ni 3.494504796130069 4.283536634313346 0.44382498234921985 -0.1663989683849457 0.14950836327719413 -0.6017993479091119
Ni 6.073781499627396 5.686392553122741 4.5651705328962535 0.4822811032361049 0.5040100102727644 0.7136623900297063
Ni 5.476789012890079 2.908320345232149 9.320138315075631 -0.8739794138866303 -0.5750027965415582 -0.7318981963114428
P 0.09045285893708105 5.638945728006861 12.424975885012389 -0.11842835404293797 -0.2573607415764987 0.5940950372863187
P 3.719004432620042 6.187026199832495 12.65468418078262 1.6176856585765944 0.3613148132626616 -0.5680839579345377
P 2.496014127817419 8.557052093973928 1.4410856147839133 0.24734115255696756 -0.560256491470319 -0.4371343314961375
P 6.536899052059477 7.7244896478450285 5.728814319901912 -1.4415843753022204 0.4486641865126079 -0.012143577341069408
P 4.569881751196456 1.0665677275286691 12.507272520752846 1.3144957744811232 -0.6736760794447559 0.777470742734919
P 4.1324321533352615 6.096663784709969 7.958714707714168 0.24107100327753964 -0.22257371580430055 1.6566766951278111
P 4.683641981144521 1.2292580611513284 3.8748816336922265 0.6114386707710888 -0.7380045663194967 0.43591305749452663
P 0.49848198836147545 5.659648317158643 3.4893567342055625 -0.3983638955961591 -0.9713491474870563 0.02157438373666607
Ni 1.6128483674446472 1.1352688490651222 2.624638798687702 -0.26822879463925414 0.5959140927729285 -0.2860449968850687
Ni 1.9348012141183073 6.628229215997747 4.834246307828113 -0.44579689226714186 -0.5073889540473262 -0.7013221232967987
Ni 6.065985242812702 5.502411745553688 9.117911372358126 -0.8751567220241832 0.9796090735030032 0.7644496478849028
Ni 8.545945593546497 2.30383006626817 10.315787238734945 0.008038039813128093 0.6242224527993184 0.11910738238783357
Ni 2.2657622647217077 5.264879155386248 7.152652299250067 0.047999410697414105 -0.6597885228293863 -1.3889865466008466
Ni 0.3834048964734798 0.26662384311925613 9.293120938791576 0.030279367709831723 -0.14328243697214035 -0.9880443487545499
Ni 1.3789063967150663 0.9769379073040443 11.438289038937395 0.05148865479759519 0.6105873785143872 -0.6894225436457353
Ni 4.0778040893436645 6.849536185833908 1.6654061725210667 0.2625523130797671 0.6712723550992697 -0.574454637347572
Ni 5.711174158310984 7.942233131387697 8.043275152132951 0.08816338451080946 -0.5700693637956827 -0.30111294696178464
Ni 5.41819046543949 3.1796065669917475 4.691892265908286 -0.03754350547141276 -0.5522212798706683 0.1417678000998268
Ni 0.6593905788373887 7.279623657190273 6.945223028319322 0.7996048556297971 0.0073204449208132 0.34433139133078766
Ni 5.075824449820624 4.319551361269395 7.028128350931737 0.17943780384677482 0.7141742966691185 -0.042239882505817575
Ni 8.028417042277752 7.410224525408596 9.004109538255365 0.2797740762746924 -0.6901082568588502 0.25797909188678797
Ni 4.562646246032005 0.3318926218933233 10.402663949244497 0.37795807824629746 -0.4859845202296212 -0.3014009105158486
Ni 8.349492583950223 7.004312685682949 4.862428600443645 -0.00956218976713837 0.11365612946527523 -0.3742232937942136
Ni 7.224290131445142 6.057682500636495 7.090330179954223 0.09701800668796194 0.47207459501674826 -0.8104140304301591
Ni 2.535311965241838 5.097729941705997 2.58084952143245 -1.1211485596421078 0.1429916452045989 0.3923608839351888
Ni 2.5482002088160147 5.086496819938189 11.183377669803091 -1.100174528493602 -0.5355276212650713 0.8567239692402923
Ni 1.259077386810318 3.3904582318652774 4.009187984992893 -0.7251554782709705 -0.10837328379978109 -1.0421534718941277
Ni 3.493754112469257 2.641194538942109 2.6803413351962204 0.38432978610059615 0.4866383517635361 0.2681197798652157
Ni 1.037544307437769 3.2689017451025166 8.207484941840145 0.10826915412174903 0.5115849944065448 0.05682137986441827
Ni 3.5704142896866053 2.4772741694414933 6.996596923863209 1.5047039294705247 0.2942789547590867 0.7332989333137113
Ni 3.9768778366810418 6.8299641443640695 5.9038656096598885 1.8291686637843723 0.08325052059022436 0.2601228777026681
Ni 0.7710262835815428 7.148434904177338 11.057423804776636 -0.009850667541834649 0.22081173880787133 0.6770056580386211
P 0.19828992346989888 5.546711125923033 8.16246472426879 -0.328618351470905 -0.07553438289288927 -0.07202148464362436
P 8.40267354690893 1.7621168389872515 7.82299200627756 0.14617621358016758 -0.6312677896818741 0.7322386103699969
P 1.652091938580333 3.156706193146263 10.413148196227784 0.9190251412723592 -0.5736758502000184 -1.3424315816594428
P 4.149281835986975 6.1153042548898835 3.7937236855770267 -1.4770172621885336 0.1201057417453609 -0.35688043164039185
P 6.894522939193875 3.9560667149517923 10.482617185749815 0.46824287997548386 0.477884516830306 0.01063948199171716
P 6.258241659413595 7.638993109945596 10.31165666972419 -0.4026260133066227 0.15130607860756523 -0.3801406877199131
P 2.449788294198039 8.363348576340144 6.0704576894424775 -1.0031536935921626 1.35378300211652 -1.1991573722174187
P 6.933440912597161 3.9437392230278605 1.5391086209993 0.3846666006147246 0.7352282891259402 0.13664076328590663
Ni 5.231541565341045 2.6920782290111043 0.7516604540088924 -0.2290395260343023 -0.009894890516208765 -1.140117387435127
Ni 1.5814191418865673 1.1261702013208263 7.04580016785776 -1.740505713929325 -0.9730453042425564 0.0035152122421100752
Ni 6.921945503767141 0.7744423464573089 9.17010649773818 -0.42987482172024677 -0.14702004963770163 0.23166925034766553
Ni 2.6442877173999113 1.5396250551804127 9.143684241753897 0.51585431120586 -0.294787261854073 0.6985381327937583
Ni 6.4459035302350625 2.1431204521842795 2.692652547233532 0.8515565661067399 -0.9929204458999288 0.5313030416607624
Ni 4.0536284577129456 6.901595645492126 10.464284224539389 0.559245019486669 0.048402816783419865 -0.5615996357617747
Ni 8.07878520260378 7.361791862714059 0.31861185216397525 0.4910907311079349 -0.26987430066247714 -0.06559604073325477
Ni 7.717615917938801 3.8961024659014125 8.15563440739355 -0.30858174453500403 -0.5767105232612841 0.1671384176541315
Ni 2.913647485909475 8.38037914662097 12.257456756130606 0.4599050495337499 -0.35662254999331483 0.6044902644777137
Ni 0.09476341113880217 4.771779478428978 10.321081819639032 -0.4169025778302949 0.16593411293338517 -0.09754945371139974
Ni 8.489454386975053 2.4387270156778857 5.683119391473973 0.812685085852523 0.4402661922568999 0.19468598825509698
Ni 3.5474144276451094 2.512158348715598 11.31229628307068 0.22876750331983828 1.0669203944261627 -0.4416337620283878
Ni 1.0521871610143247 3.3317421074557654 12.454985142681947 -0.5457505845446601 0.34174023356484373 0.8263798097307962
Ni 3.3079463398461804 8.268219772190537 8.070266299710786 -0.4564703128205881 -0.24036317857723768 0.8040335808251121
Ni 5.4753871337644675 7.929797106886299 3.705020010013451 1.2304867784583196 0.44636356340388933 0.05216639759091016
Ni 3.2501708311080466 8.493370604145312 3.664037204323861 -1.1431664586740957 -0.23957847789241318 0.16257368110158454
Ni 3.4278477048025726 4.212954281434135 9.072825130802146 0.1309326571575358 -0.27354609308710953 0.2167951614493105
Ni 7.094973565393508 6.007241985258823 11.596939247363853 0.28041582362374934 0.5721884670212146 -1.3813244020698985
Ni 0.7055811393690923 0.11311626998842969 0.3607803762623901 -0.2776284906865993 -0.974282261973451 0.7196363482249541
Ni 4.523203698504298 0.37744645797055515 1.6313866361141136 0.2635429591278106 -0.09137366391799102 0.1310604409846517
Ni 5.942140527541683 5.597242085115261 0.3964170480735976 -0.4685041040566706 0.23867190691774381 0.6658817802113177
Ni 7.9975485683699175 8.547021874939709 11.305796086118567 -0.6883920454986918 1.1947924103805037 0.536627024976837
Ni 0.1511641738956902 4.947403277533092 5.860381128059689 0.08702232892783078 -0.8017949213025803 0.06885414265923624
Ni 7.6972208377565074 8.684487428682804 2.801728692025762 0.43654786286504815 0.5021652437545416 -0.3827637271650569
P 8.734213437925487 1.5900746149395406 3.489409191618005 -1.557306129047273 0.5927266961838824 0.5114898635895773
P 1.7692347671927793 3.265482968912314 1.3749919884210988 0.14634102129280602 0.1872562714499291 0.8963935199157723
P 4.7989668890844 1.0090816389971136 8.26150703227422 0.195235947221296 0.49460491490878045 -0.08802094539567422
P 8.509406292466023 1.4229615787851113 12.45321153947851 -1.4359945399192688 0.7813464236402414 -0.37911353200697934
P 6.21571497780954 7.774070946984422 1.3687169965672294 -0.043320774274822164 -0.7071495286118531 1.204666474961106
P 1.8548488820511342 3.2279216527273626 6.0809021411473605 -1.7858525174952407 0.21190877989128665 0.17941903479369745
P 6.959561086240826 4.239499541006212 5.900000041025781 0.6504088813866992 -1.3865128882493736 0.11382967892866201
P 2.2264372941529214 8.41618585280354 10.033394516547915 1.0048742758276952 0.35080645753217005 0.27364842299292874
