# total energy = -381165.81899313524 ev
CRYSTAL
PRIMVEC
9.32155541324683 0.00000000000000 0.00000000000000
0.00000000000000 9.32155541324683 0.00000000000000
0.00000000000000 0.00000000000000 13.64303858455678
PRIMCOORD
 96 1
Ni 1.5498391005404675 2.231925279772578 8.254543125698177 -1.2159821570842413 -0.5244754772159677 -0.34040300281065894
Ni 7.5138914776882455 3.24016336373939 11.891177412256443 -2.6118124660797988 -0.5959691143805801 0.34240949171772644
Ni 8.86401625204217 4.697802959014462 0.7656035877222369 -0.5218172136575142 0.400621067061452 -1.9311638119719512
Ni 8.89708913088977 3.3738997202293945 2.6192312492422536 -0.12706623222359406 -1.6087721581370489 0.3120005404085659
Ni 2.1203369391061084 6.102822373597676 6.602029887997993 2.1891228492540815 1.1352163505890835 1.693434471473135
Ni 1.0828944218164283 8.088397585110839 7.85894936125009 0.1957951621588757 0.7534044458143346 0.04226225110332076
Ni 3.182929013084297 6.916472986892652 11.783779110778811 -0.24708095691704543 0.5890834430043403 -1.0865949900369545
Ni 6.685773810286315 2.738579784846894 4.193733321275107 2.1934471876610484 1.9397464114346399 0.14445691689621576
Ni 1.9704742916334796 2.9329435381871796 3.2507135002331093 -0.9514076713681228 -2.45980396208857 -0.6798058464915776
Ni 2.691664396109583 2.1390173362906046 10.647422771810565 1.8694874180080772 3.7621726142888563 -0.6750516196360439
Ni 4.943286122614118 5.108492050408943 7.728467159778603 -0.47213373038945783 0.5143720702333786 0.5674463243505389
Ni 7.368568427735004 5.017961103574696 7.985611589285347 0.16554150548065683 -0.24203156741859605 1.5380920180126672
Ni 7.68468101721636 5.439090337108217 10.648091127338573 -0.25955209280086267 0.6153621741952112 0.5915499022669619
Ni 2.122648684865467 4.8055694619336045 11.156458002154801 -0.7303866447629227 -0.41227793457408995 1.433045227482958
Ni 7.69627703223508 8.760332590423829 5.920205644474907 0.20799041867348694 -0.11118941309233753 -0.011989568261708383
Ni 6.632146901602479 6.969037238251621 1.3479258194158885 2.1032683153821066 -0.09996449091079558 0.5281799226507484
Ni 7.619001337295222 8.7576573040007 2.7851577332757818 0.08911212157732394 0.1498176669874968 -0.6409878451831155
Ni 1.000081722920687 1.0423829416947612 10.122207185461914 -2.305544714389952 -1.7145774240993374 -0.3658016453894216
Ni -0.03035284895816214 6.921972704626611 1.5883772073667466 -0.17034046953119697 0.7013246943999599 -0.17235235775490318
Ni 5.137864271730473 8.197077600467148 2.3899060699138586 -2.7743434668689058 0.9395286605423496 2.3807209426124745
Ni 8.156873731676363 2.0914960464470105 0.3666596562341762 0.8060123018180376 3.2187779315708824 2.4300475567617443
Ni 0.07447363536218311 5.8933483788222265 8.975727637240992 0.9448266757164954 0.751959485837692 0.20249031479086418
Ni 5.326924060001908 5.519796364465187 11.09000276881762 1.702671930911003 1.816093575767969 -1.0564158953504128
Ni 8.858413997197916 7.234440565914785 3.9943816035967847 0.6254946346435227 -1.0515649950160149 0.8778651220942816
P 5.225384356144263 3.471794695893856 11.80719019737006 -0.27645092543873034 0.132648611407378 -0.65806022728437
Ni 0.5457463122961831 1.7875294437577687 12.382571598852344 0.9469887163648206 0.36050517287717265 -0.07779772500576924
P 8.03300890244104 3.0263641672206236 7.96675687901335 0.5904638682916347 -1.1306539280293817 0.39840040526104936
Ni 8.706575179963256 1.3614038564862794 4.083456523464854 -0.27442566747858543 -0.7314467105963209 -0.6351444990284609
P 2.7441540750247024 0.07432169400783815 8.788968408862338 -0.5464414399640977 1.052173575134291 0.010499613979743208
P 3.2219210796625144 4.464325958874702 3.672010521765293 -0.8623189468295664 1.701362210960644 0.6233624187918684
P 0.9788192548678748 8.108084710287313 5.6427877639519135 0.15402579153157345 0.5942996970979572 -1.8454522314357442
Ni 9.052013382988736 9.407500222823044 0.7923545876424304 -1.3753319319318895 -1.6801902048687192 0.7301968973496198
Ni 0.4941701458182299 1.0892517226546652 6.190542871454315 -0.02441905227431278 -0.8370820266396486 -0.22238088306720413
Ni 4.47483135190211 5.582791436407716 4.967675972530902 0.04869103744780002 1.1277244130874127 1.3394701850382738
Ni 5.770639422466583 9.193887457413902 7.857830774592336 0.406935439315254 -1.5500337637555757 -0.3381291191748177
Ni 6.356247502467388 7.158041097190168 9.488405731467314 0.5449735971693195 0.09604587258267974 -0.17713666651742396
Ni 6.062413430586303 0.5936702933365686 4.220528132506062 -0.7370722843132145 -0.929657938395857 0.6231654722897139
Ni 2.945975072750017 0.23464965181930592 11.551042242144264 -0.09398539050922525 -1.355484301078343 1.6341566596484245
Ni 2.774430487227918 6.4567152274446835 9.257060571066125 0.8839866616109873 -1.9224140908037795 -1.3509105656647316
Ni 8.585879679591569 8.41707563138097 10.420375780641795 -0.9446590397903796 -0.33316611874258756 -0.1054540532704571
Ni 3.6227572869132763 0.1650912726624047 0.2229576247791294 2.6842648676132543 0.5681970864736343 -0.40003177021688524
Ni 7.476493397097328 5.089056607230462 5.68820611087893 -1.0954598966267521 0.3908580741374172 -1.737550487955743
Ni 0.4578254009966974 6.518265458287613 11.852267375366461 0.6944413370165653 -0.25613715358204275 -1.007423781722426
Ni 6.367629121710038 6.838032097517633 6.989015195959113 -0.10454336853072961 1.281786200063244 -0.6610059401762551
Ni 6.228122722377117 3.1661874994399075 9.675684170486274 0.559684678127249 0.40687219017748644 -0.39015487742280547
Ni 1.63686514251375 5.7166769377854205 13.67100725118667 1.0150129069235938 -0.16591971475568199 0.5120002275670924
Ni 3.342868262032195 3.2369194624319024 7.516113736514984 1.0533981915700117 1.0507003330228744 0.49310930419986043
Ni 3.8461576855777664 4.007280772071788 1.5307765195812384 -0.7071101907334854 -2.2952569593106986 -1.512366588222105
Ni 0.7548045656971675 4.300844518843915 6.930459048736773 -0.2237901047099049 -0.9727851086026342 1.1098909844504175
Ni 6.727674202174693 4.091528990511647 1.5650612006414069 -0.505247225113975 -1.3362578487485632 2.8563876258558545
Ni 4.1956973730150136 8.26880696989564 10.084129563476411 0.28804325826202004 -0.2058476612988713 -1.4017713570703407
Ni 5.3221980313728965 1.223817697582504 11.724131409409614 -1.2009761705937123 -2.0148077113458527 -3.817542606418729
Ni 8.469332271409057 0.6978796906840528 8.1181538545182 0.2974730362163522 -0.06757450461586426 -0.7321244533896359
Ni 9.14774575778154 6.5325181166184985 6.4688332495703555 -1.6390872641808223 0.05981825770921311 0.43683145554373803
Ni 4.134631863057112 4.1518021682536395 9.794774499004083 -1.8005895665950988 -0.8013907438856264 -0.4779048285452801
Ni 6.064864999677881 -0.19128950434255787 0.6850793306971514 1.1563947844389117 0.8539137534850068 -2.3998828602529056
P 4.408760166650758 1.4371601378826873 5.7776492321885105 0.6032769608959029 -0.2320618578003939 -0.473143659711211
Ni 7.95448411906669 1.5661052148553107 10.112384130295734 -0.4638110694563754 -0.035071389781836375 0.6345513455291523
P 1.7754766725204665 4.297749762424128 9.177862771386025 0.4657823342501333 -0.46562215452318517 -2.0179046051036216
Ni 4.721283957271821 5.632223645124973 2.6057932948604323 0.9960271098497104 2.3765984358036683 -0.21158096423822273
P 3.941405339485543 7.047114586962869 7.328931309517481 1.284631639931839 -0.25517041879339925 0.06616039787715702
P 6.39984441745336 9.329572018999498 10.037920748644583 -0.7465853660099723 0.13494254964787727 0.6007595937906879
P 3.0028831689632653 6.815501897919367 1.507092311414388 -1.9515410900767227 -0.564145285001764 2.2278572897098017
Ni 6.480447907700038 5.386516764193767 13.566419398686646 -0.8159462731022981 -0.3446046995968323 -3.499783566259831
Ni 2.1189387057839153 8.081518277165651 13.490482279113902 -3.134267827541944 -0.8211095624707923 -0.11237443453937422
Ni 4.667582476144134 8.254535668453792 5.650591770200847 0.849775048726285 -0.08242931024050966 -0.7232965706853607
Ni 5.1574395382411735 3.583681326335727 6.052788924551876 0.3301327312329024 -0.2581469849232199 -0.5826762539264159
Ni 2.7292675509210897 0.08600067087034086 6.333466553026674 -0.47825501279584726 -0.07767636893655654 0.6448288161957604
Ni 4.530863221900119 2.826789664366299 3.8811302974324535 -1.0700329719132153 -0.753015180795716 -1.1005313976123885
Ni 8.490044767688472 3.0437395466377404 5.735083281238767 0.28716496942212477 -0.7851843093290929 0.30788240447513426
Ni 4.490006844225643 7.260000271044469 13.884793397527762 1.3361966564933245 -0.7453653775599421 -0.6648037166557906
Ni 7.634475119394156 0.8318117998391641 12.395014011108767 -0.38217571587207083 -2.8306012609203703 -1.6714415121418116
Ni 6.648599447026948 1.5918327079836592 2.0779574192659913 -0.2768216785145878 0.3229801793485212 0.5904299297299057
Ni 1.6164322928987718 8.090923726646267 10.178348117659054 -0.30024828496864425 0.16482879568434838 1.4105218495694611
Ni 3.4338280004185795 2.5706146766296087 12.909562009364633 0.1876511928955026 -0.23396318858816484 -0.31430784838550385
Ni 2.4051011375039018 2.3583162505433295 5.476738235386033 -0.06254696949428583 0.41580445967010976 0.1625130030669782
Ni 1.648722161085945 1.0932040621787302 0.9145396725800256 0.9772547143382136 0.7884586092049906 0.6448830664724635
Ni 4.0122118749213875 5.076202182221769 12.736581904298417 -0.9820009707739474 -1.576110920458602 2.635212075950662
Ni 0.8930842483287506 8.911938368771459 2.9277001632289563 0.055694208238510526 0.5958786115493028 0.020693009572977265
Ni 2.6660487616470108 7.6153659306575205 3.9248427997063944 0.02114783772220874 -0.6104392829722971 0.072730594895507
Ni 6.413043740014861 1.913333156533199 7.013667913740468 0.25898182211968945 -0.20318502686504364 -0.37865561853395435
Ni 5.874798483414468 2.14239173937483 -0.1797950942785846 0.7662856726523771 2.45569302524399 3.5400971782772124
Ni 9.116220257143832 3.6270358808791863 10.216084570713942 1.8265875333207573 -0.41598392267076745 -1.7649088253640377
Ni 1.6965324191494588 3.408417440176595 0.5455020875425735 -1.4459668206406324 -0.2639553640748809 -0.25692416825971237
Ni 1.2862348330851923 4.9421768575118445 2.379168570154965 1.0105556424831887 1.7435290741366811 -0.3628001395589365
Ni 1.3510848945684961 5.380737399795369 4.72446167553539 -0.5213546721987988 -0.9477883294479807 -1.3483749437270713
Ni 7.7375062721288055 7.186322696520388 12.529221106150574 -1.0437280154700992 0.5237799938108398 0.8038798288560672
Ni 6.402202770990126 6.873463329901999 3.762190978113442 0.9157791235312357 -0.7964812223991509 1.7106109832524217
P 0.11398770904735273 8.649135755087574 12.517611108798633 0.22703843644387353 -0.12684666001362024 -0.8782546442232165
Ni 4.612790373025137 1.2446234094167334 9.298426837825426 -0.8287660505747856 1.2514993761542446 0.20372830096302336
P -0.029128928723469342 4.0683835682516145 12.281736604589087 2.857869866828336 1.5840047213843815 1.757725163131405
Ni 5.564083074556776 7.985860474816698 11.942038615428983 0.5684292570890985 0.1497654735933227 -0.1323814737889204
P 4.233598817601921 1.8072911413780943 1.2203752471432652 0.3612561921105843 1.251032206709839 2.296878554074522
P 7.860047440485785 4.916011251275876 3.5349109480576404 -0.7009642257367475 1.1244544840868893 0.2834211861089764
P 8.201691770430383 7.863431165125492 8.219903293374172 -0.805131184764665 -1.1423599036124004 -0.9664943904979162
Ni 3.397874760927261 0.6138495966424556 3.5706153020176084 0.20445283783387366 0.1264154860134726 -0.09740572904468386
