# total energy = -381169.1569916888 ev
CRYSTAL
PRIMVEC
9.24208044439744 0.00000000000000 0.00000000000000

0.00000000000000 9.24208044439744 0.00000000000000

0.00000000000000 0.00000000000000 13.52671893418628

PRIMCOORD
 96 1
Ni 1.2664515293055028 0.5551837887220384 1.4536896102336063 -0.9730638161853176 1.472055033087252 -1.0056607762847325
Ni 8.222873080581921 0.20700411843586236 3.7954756867419603 0.038349289202159756 0.9894404577711283 0.019528299840914757
Ni 3.385734518424653 8.427418805611946 5.522459161812584 -0.22988413342278474 0.6278222543354349 0.32882198284127884
Ni 0.11140681064654949 0.8271015077766153 8.113325776526555 -0.1003694396586981 0.09997348977186007 0.03652380595764678
Ni 6.16123294737332 2.27501204509041 5.014003331962397 0.7948724831511342 1.0607561745969796 -0.20629426191798667
Ni 1.8236288347855827 4.974762382481781 6.909190823226832 -1.2589026105968515 0.06299382722371731 -0.11784754183880349
Ni 3.802385990311676 5.670912852035441 10.229337993366283 -0.12353945001725819 -1.4293991460899385 1.350997726061899
Ni 7.743301524834225 8.351079220904372 8.073652297679798 -0.015972721279172493 -1.2992825570757944 0.43627018372362936
Ni 3.867136006106017 7.558709451545562 2.9621616524713463 0.11753052481901693 1.0439169915524535 -0.8658547278969669
Ni 5.313225853566617 6.51583309096414 8.318120113521305 1.364141976753341 -0.13961450120224986 3.245351568294353
Ni 6.187175467261232 5.058403210763081 13.24579594440888 -1.7677131275820523 -0.10880677179277391 1.0759025433201148
Ni 3.314588982942946 5.905107171223081 1.387043119526191 0.6607915101726038 0.5704380599890111 -1.559321616815405
Ni 7.083370768654533 5.809710416580034 4.652366268299381 1.5568692986201702 0.6551818772953103 -2.550581644293775
Ni 8.366818483950015 3.9368490191143977 0.6738594956606588 0.019559667299482445 0.2554349853086956 -0.5966900517070046
Ni 3.3097461327750564 1.6705245296686753 8.537645402582084 -0.5758746576235502 0.564103376020235 2.2442303317511865
Ni 0.6635508791009946 7.688514471789855 12.868711667443172 -0.6696574452036661 1.558709694263019 0.9494932279542294
Ni 2.7679014387998024 3.882348470564693 4.646306236133188 -1.1200671536524711 -0.4379447432125748 -0.8998969050833405
Ni 5.056961446209281 9.084299675235526 12.562426347941429 1.1012991290163483 -1.279068544021765 1.5856967643748239
Ni 8.18583082204585 0.6592597811373474 13.556612655966568 0.6376559525964051 1.815165921747377 0.8131139458598255
Ni 7.211687813942661 0.7864354294870519 6.483113353465323 -0.0053047000423650575 1.6034710576391096 1.3431502049930224
Ni 6.59153497211907 1.061212648239997 8.9618846225375 -0.6436515080582076 -0.4287633338236228 -0.11329823190522423
Ni 6.021880858000344 5.27141468150644 2.3029647174812156 -0.1743830150316868 1.3422927420887334 0.03741392187208395
Ni 3.7199373904114026 2.112591722856646 13.281073889782643 1.00641539506257 2.432538698614714 -1.5772787155144579
Ni 8.620467382533471 7.272851902513451 10.712295847399314 -2.6832513387470756 -0.012759099437881252 -0.916763341821376
P -0.328078145257245 1.724830994528445 10.089972040872597 1.1890439379325006 -1.195669156558502 0.20382266044904251
Ni 6.678207202795538 7.9428657684892645 2.813381716807789 -1.280930536931168 -0.9291226347176773 -0.002446918878595786
P 2.4231441109128045 6.52934501261577 12.851640620601362 1.346730723255429 -0.6375736772952438 -0.5042732912364799
Ni 5.498732892822114 8.051811413105835 6.750117058332367 0.36773820029050214 0.9396561872591495 -0.5722910540373498
P 8.555671156336764 1.6000351819005567 2.097398666766963 0.1239135455272253 0.11409270278206156 -0.27553047050699003
P 1.661356385839388 7.1562722994261225 6.253524362977416 0.16466733040581963 0.5761489943308593 -1.4137293007631653
P 5.903129366001845 1.8519927797574403 12.954687969460016 0.439868699708165 -0.1328851528982163 1.1569388298678398
Ni 6.170049892144631 5.8890629195218285 10.658932998955844 0.6176458280230653 -1.9283206860962014 1.0155721218611735
Ni 3.920684620366995 5.737668399292439 6.495517149668233 0.6284025523189372 0.6162625745222935 -0.8875363266354586
Ni 0.9822575547585447 3.0086114247209577 8.135861665552092 0.9089968105020796 -0.6634284335748187 0.5945043569095955
Ni 0.7096762543260013 5.147219604109301 9.28859493988473 0.20062755055051254 -1.7786966231767496 0.6622243859643886
Ni 4.731612487315735 1.2529858180562372 6.88639892857219 0.3224441043393931 -1.5960092020444256 -1.5285969340380383
Ni 1.0544382032532356 5.542531112184001 0.6622773204118053 -0.2521097775902045 -0.09458882842117904 -0.45939777088002814
Ni 4.945843912681538 4.183122737480342 5.1175090880125165 1.96272050373231 1.6655570283365764 -0.8234574938776785
Ni 3.9162669059008666 7.993669484849741 10.544212902459698 -0.4575368064118895 0.4467805963366499 0.09395170905781239
Ni 0.18028711220430635 9.132534093224487 5.805058877477937 0.40194441385856583 -2.4193057448642077 0.7216158405488282
Ni 8.624044067676548 5.799969263761417 2.3255680736942077 -0.8716348249138537 1.0422789417283984 -0.1646786432597293
Ni 5.9987294464152985 3.044988253462968 7.563370232728132 -0.38354559963640394 0.7410688070671173 -1.065445352542533
Ni 3.6301783048569294 4.337308366012599 12.513527424366455 -0.08731234936442382 0.7821329240972789 0.08007135153129435
Ni 5.68155972874042 3.2251903385269225 1.1805944501267602 -0.16879420808999962 -0.3411679060011415 -0.9882772907009625
Ni 3.1799226283698165 6.7272549238661306 8.406964233108944 -2.0831679450878062 0.8392299262205869 -0.03696166482601376
Ni 7.318748074142725 1.0732273528549905 11.38504721761125 0.1865726151193432 -1.822671486095803 -0.4700102562885518
Ni 1.3920144346126564 6.7179019384273815 10.90087125737187 3.4829675231437567 -0.7371861841832594 -0.39947615482373133
Ni 1.9696721904210637 8.872267865022312 3.570864480796849 -0.07435347521091065 0.5585302528078316 2.0920814455273518
Ni 5.9558739192616645 1.145740716246712 2.300502627243189 0.8304210696797052 -1.0439843544552794 -0.12797588852205705
Ni 8.117910772649244 5.814396151379881 12.708609258992054 2.2066965964717866 0.10661490634777768 -0.9062680987170069
Ni 7.764623004485602 3.0952282029145866 8.979739397803428 0.7521854858055691 1.1686913424180776 0.32156658683044614
Ni 6.274744179743588 5.522716091649736 6.666062184845874 0.4114292134205495 -1.346215217071591 0.46649452982580947
Ni 1.1920158131753826 1.2414609437063167 11.922342035369612 -2.252920917546649 1.2693466887483107 0.9033954051549022
Ni 3.5761491024113514 3.321954921079984 6.761614206440869 -0.2281725500483167 -0.3222862386052901 1.0837595774706885
Ni 0.9162764938451905 6.990469375739215 8.113217644185019 -1.8621541175714575 1.9403102543579098 2.064429745248354
Ni 8.614182767811782 2.85279919002544 12.24057181967475 1.5295029907920754 -0.6195008789539331 -0.6507133000009955
P 2.9712919037706937 4.092716706292753 8.758658666599029 -0.44496591172541433 0.31666169332966104 -0.34879842596320576
Ni 4.466789913440335 2.7869863349766955 3.1977025427839125 0.406373653274513 -0.5532211818900923 1.6024210191080404
P 4.461512685490211 8.737037743540325 8.555554706122804 0.5129245391535747 0.5377822216272029 -0.12227935235791199
Ni 6.292193227676748 8.040878031906193 10.345870461843198 0.1538679257974705 1.9916955508084218 -0.6569716222058815
P 4.506262839140825 8.652722243384492 1.274485669860744 0.7073567595266528 0.7377245731852328 -0.7762875210600952
P 8.200507245837088 4.579866768028369 10.542711064382823 0.0042328071344249684 1.2658577017584456 0.7652220072745531
P 2.890534604596992 0.6686580527704141 10.90960964445916 0.9002339767077852 0.6525202713027471 -0.9088813679701379
Ni 7.379006438827154 8.033059231825973 12.61785849820282 -0.9819431209528184 -0.11308971543884394 -0.60983738772224
Ni 8.656918147919265 4.149416869995049 6.896448766878608 -0.5901087989450611 -0.01776632284448553 2.016039783980741
Ni 3.465428978343951 1.2710448433006196 1.7250620465402722 -0.2690106671106012 -1.1952834910843093 2.012846473854424
Ni 1.0265640885464509 8.915446864992504 10.221519193286065 0.03785538028487674 0.15312487698385885 -1.4697397546905138
Ni 5.164086400972657 7.065496585019612 4.6536509174851375 0.6742910873209355 -1.5648731427612534 0.785302580074512
Ni 8.719348401514866 8.33400909827061 1.7143218248225152 -0.528522907812464 -0.8135232654831022 -0.06236082162540872
Ni 1.30495403655632 3.1110691288454313 0.180641083886425 0.8160126075638593 -1.21413199124938 0.37412662031534927
Ni 7.6819895629758665 5.926789092012908 8.715102589745536 -0.04354240336732501 -0.35349557432855894 0.5918597201978968
Ni 8.943413400504019 2.117194278932236 5.496947322874717 -0.5886594680930443 0.8208982177909346 -0.3948844216879909
Ni 2.3589116516249558 3.1017438696481023 10.608951827757473 -0.7103698353213637 -0.8390550912056194 0.24572727110262838
Ni 1.76588431598983 1.4804888709813728 6.154995467262045 2.069405858306707 0.7120032571597287 0.6120310529394491
Ni 1.674997696617642 7.591971699168147 1.9205773347400588 -0.30030202102471504 -2.3092787275110873 -1.670806192550658
Ni 3.1391650534835702 3.65638884507856 1.653871224864247 -0.03198092378197073 0.08636104119474805 -0.8893165584643329
Ni 0.999928412623058 4.024907561861826 2.4212420907514467 -0.5061612522878122 -0.6314428818071577 0.6812559486745428
Ni 4.572713397742211 3.3991817455129723 10.100482134786574 1.1656399571862632 0.6694813246371181 -0.6502111635535963
Ni 0.9945587638682033 4.5104679857560726 11.908571335464734 -0.2528448559840162 1.1039895313643182 -0.6196829130577521
Ni 7.667932358576325 3.627396438634534 2.695496207749616 -0.27925831298053844 -1.734231450884839 2.555472910947805
Ni 5.599868979438938 0.18919000832401642 4.603656807374103 -0.8376620675128347 -0.9652422632583698 -0.5908073676739825
Ni 2.4690402825420796 6.352423866119756 4.442634811915915 -0.500868379319989 -0.4580664536631143 -0.18320138465426514
Ni 0.48883581721390323 4.411910439591235 4.799333831982168 -0.1986560286464385 0.8933773587972679 -0.9174076602735943
Ni 2.378985450412468 8.917082713236237 7.782584063676969 -0.6370836250327028 -0.10394070194972421 -0.2900142659454618
Ni 8.503240833813027 6.408209063855218 6.609479395565587 0.2100807255436124 1.4599831895243822 -1.8323702014408054
Ni 2.8365331283928334 0.18651627444315674 13.079498569416662 -1.1990992652859735 -3.2775348378951166 0.7845556746061585
Ni 1.4793058846808196 1.8388782675661515 3.5610706481195344 -0.8879664721943417 1.4672311293360474 0.030649092344424637
Ni 6.57694172705209 3.386279801172564 11.64457038254339 -1.8236071105361948 1.3249452519492213 -1.450070815506677
P 4.060443361280787 5.288096636760335 3.2694617524090313 0.21558571452224162 -1.0968038122491564 1.1360923254361337
Ni 4.641659318071326 6.678706275141083 12.530882203078788 -0.6790931366952692 0.04111425354180661 -0.011945088177018138
P 7.010783468619027 6.95257684579962 0.90316937531828 0.42665477212105235 -0.9886868674345555 0.2698038524358579
Ni 0.17652835807590805 7.153139234145752 4.111757240483376 -0.25816781085882634 0.20612019823396757 0.4633559841968279
P 7.632988052307641 3.8593356901867444 5.14774178165603 -1.1628839917076812 -0.7772964219405839 -1.0528783145107996
P 7.3634058069886095 8.224268634733356 5.557384983920322 0.3515009124960333 -2.306846721030827 -1.1395093215374827
P 3.323479864358041 1.2645106924061578 4.616615128405397 0.9422542870036288 0.3867425093071469 -0.17653245727452177
Ni 5.031786019000634 1.329417823568541 10.919592939786172 -0.9092487786118857 0.2694498115305488 -1.342336450842475
