# total energy = -340895.7161789569 ev
CRYSTAL
PRIMVEC
9.02862723926587 0.00000000000000 0.00000000000000
0.00000000000000 9.02862723926587 0.00000000000000
0.00000000000000 0.00000000000000 13.21430859229859
PRIMCOORD
 96 1
Ni 6.401378028158781 1.814582547580327 11.420096719729617 -0.4804800454716241 0.21509951891444246 0.15166654727077752
Ni 4.3835971940944445 0.3427600990221726 6.085704713962019 0.31344267217173116 -0.5367944037926369 -0.3498597773481846
Ni 2.6383183898292897 1.5344422990676696 4.815347055442264 1.0061320594941963 1.6406073003697743 0.030212776137954415
Ni 3.47214823742301 4.196894209725706 4.741954246813459 -1.045745045900128 0.33858446154468136 0.42944236216851844
Ni 4.996731275456265 4.344277522111957 2.7610508410413077 0.46101190944468345 1.1735093326320114 -0.1894972449653059
Ni 7.355369876766262 5.948890312717604 2.4424802403372707 -0.8060223291203666 0.36228514759573094 0.0828280883408251
Ni 4.901831373686362 4.720807395902464 11.329842949579044 0.4554794096622285 0.39296894983283287 0.5058861442495546
Ni 5.581723125458863 7.841462143095803 12.36268631489354 -0.09395042350623174 0.2180310907389406 0.2637347634236426
Ni 1.6178848727673596 7.092248590753488 0.20657950741568445 0.4779536795053446 -0.9827324496233333 -0.6585351100382595
Ni 2.838392771260271 1.6734289880454913 0.5401042235513159 -1.138700195372626 -0.33316637585290365 -1.4972266472568732
Ni 0.702338725017704 9.241793211938932 4.802502930215561 -1.1734144589253597 -0.5373821579753068 -0.4491958906463619
Ni 8.629182790961723 2.711116211917647 1.3645361729667191 -0.08006569510433954 -1.062966294874421 0.9783042386486506
Ni 6.59616163397972 0.8786723309083979 4.877559714859607 0.9505070139307243 -1.0309038671222375 -0.6227147579055405
Ni 1.1452362325186292 7.447823020532203 2.4943596357858526 -0.21868440805222336 0.07181245395661182 0.5147343386688038
Ni 7.889702098871331 3.901947012406784 3.7032567195440955 -1.1282759147155084 -0.28535259880373437 -0.055685980708394416
Ni 7.508991970631251 3.7744627946357796 12.56087461607719 0.020910010679789797 0.30497011592434575 -0.3387202157915973
Ni 8.026061457298773 8.772530306935536 6.675287620957291 -0.020494263298609865 0.06844765124943696 0.32802802618507376
Ni 6.95614203389103 0.5923086495834494 0.48299454429574146 -1.0196537481297148 0.4484829237397373 0.29659577581772145
Ni 1.7607629001204859 6.428472938748781 9.130267995820338 0.8978436220987377 0.09873036139337836 -0.42192857028997655
Ni 9.338128665452858 5.035310599998439 1.2076159215414084 0.2627852550261797 0.1279434926222248 0.10245383299155258
Ni 6.546124981367333 1.8165507883362815 7.105307597310427 -0.9842419442893243 -0.026680851725295985 0.1518043584002224
Ni 3.53414782123558 4.4662091340806125 0.5669797384974171 -0.3963013566401756 0.5456677950228668 -0.7352537430472369
Ni 6.096914657643639 5.493748180844085 4.7120243472447 0.035323872112274654 0.047435567774144115 -0.425486462844564
Ni 5.005326528665754 2.7118565593579604 9.22648156286543 1.6961539272868273 0.5258093655360428 0.5577524941015426
P 0.05649573259775371 5.586535383820899 12.319885204216119 0.644075997190136 0.24364801997609647 -0.45360430412670266
P 3.764684791247253 6.390507560864427 12.644216972013616 0.28249738874312635 -0.9332294577971991 0.31521056270543135
P 2.5333786544785544 8.776855019422245 1.411525663858305 -0.3077188823140765 -0.5655246818477938 -0.12722641195054218
P 6.516772913947111 7.5687163403589555 5.636126925106366 -0.9132332171809304 1.2895771568625727 -0.5482913486886428
P 4.7024883110683735 1.021092606856355 12.667487356070486 0.9834500445156482 -1.1124659442664453 -1.41878563224015
P 3.9382330656094515 6.0942602412112965 8.288661791515132 0.22679083920944168 0.15770761125853483 0.1612161386324256
P 4.6827246458629395 1.1909572012716294 3.9389345899522845 -0.7165517957623595 -0.1340966567078142 -0.08191457538762022
P 0.2881522523972175 5.652724250710363 3.3804580126656845 0.25911423393249566 -0.6794854870376814 0.9533737939555581
Ni 1.3584562953288302 1.123874500277397 2.650301184009578 -0.09654029572059501 0.5502960378234975 -0.038377314226617776
Ni 1.9622367187862055 6.373985172867194 4.7409502634553755 0.5229114751629574 0.210591860852076 0.44855234352509193
Ni 6.225969856568479 5.619146785703962 9.08535238062436 -1.684538711645402 0.09461942454879833 -0.04427645331987213
Ni 8.485853332242552 2.248931750733831 10.291805414966838 0.5205825699194646 0.6981938620804621 -0.46958730981852026
Ni 2.296043128094249 5.252124056482355 6.99804660187549 0.6138179696365429 -0.3431039466815897 0.08747587152548161
Ni 0.6351377490055677 -0.10819184691172087 8.892040441056729 -0.3304201805663342 0.31981078048160405 -0.07967540164445633
Ni 1.3104510838636436 1.0056807400195913 11.439046002750706 0.3840719044535192 0.30467546750206237 -0.17107940457975052
Ni 3.9424945777049127 6.99578673645707 1.667064708646994 0.3484348719761999 0.014608493941794198 -0.43970492043679116
Ni 5.718831859953938 7.834383699276223 7.859051714842365 -0.3254605225682137 0.2893576061980694 0.31176451313835984
Ni 5.222483072987864 2.9211581979108936 5.330493444490435 0.41749393155739073 -0.8626390491731467 -0.9785448939045469
Ni 0.7993143082086799 7.189225076807196 6.85960072767419 -0.3547361316038794 0.4224124519049306 0.15153413545797126
Ni 4.9358151269222015 4.657733405438709 6.923372631029851 0.7274424745329342 -1.2562219784408948 1.2483106940136177
Ni 8.17176544500334 7.11219282850534 8.90694580190079 -0.44129489063173033 0.4490511375383815 0.4006385505629487
Ni 4.737501327818794 0.23721363991547323 10.322172300097929 -0.38594855265094175 0.08439620415889336 -0.005941819405731703
Ni 8.521543496042042 7.149020599347261 4.783922918051897 -0.8248088656992504 -0.3719152144863272 -0.5421926919900727
Ni 7.180882625162691 5.970477760641859 6.828427586123344 0.8912726537494392 -0.6452070254707856 0.9236230450556867
Ni 2.451732777615722 5.205382852842094 2.6660525272336075 -0.31184087490225004 -0.028247939102099738 -0.36425589816885656
Ni 2.295997984957644 5.256864085825824 11.293978533272263 -1.6465308649430612 0.23751696737769418 2.118868740923525
Ni 1.1368486377375198 3.3473635792209526 3.8003957208895796 0.6739761271836779 -0.05728057888902393 -0.07216932307539828
Ni 3.5305453989345437 2.623267668085361 2.546926109773554 0.027076544501817883 -0.11480232725457647 1.4281195080465663
Ni 1.0593920439515816 3.335824993504852 8.374634186590137 0.1057373888388308 -0.09568154726472554 -0.5500898353499623
Ni 3.5989914226542306 2.556609312575211 7.225993258708799 0.0637078225716064 1.0253441136462726 -0.7953810473564366
Ni 4.377015324777513 6.671225641525622 6.100161352028232 -0.8003659021655377 1.751561200412538 -1.072138191181676
Ni 0.6991200193778057 7.359378587296738 11.019042385547367 -0.26912353853938165 -0.03263321265398896 0.7596105746250467
P 0.14331230432726125 5.472088503901263 7.963893941018035 -0.025920062299871493 -1.0652255232222427 -0.05052114867800331
P 8.553152720292486 1.5223258812030318 7.859989789221006 0.5370579418666686 0.7953921031000303 1.3105774132633234
P 1.69860080101614 3.2022554809195656 10.51724211340494 0.1280260250337021 -0.8757298209188338 -0.4131415681259659
P 4.115898394029977 6.150752362358123 3.8409631491678144 -0.5811587888406249 -0.23562257856845872 -0.22706234770327346
P 6.663903424768377 3.8624648251325207 10.370312038110196 0.6423029644501133 -0.3635581007708836 -0.0024451191063828855
P 6.325429215135433 7.705843132108673 10.18080566495832 0.10077001753122646 -0.32537310506073 -0.062012951367686746
P 2.3092068667281107 8.32238100597047 5.850965820795203 1.220128832262763 0.433490306985647 -0.1185114006750475
P 6.754379299151043 3.9417271443826367 1.5001542810911157 0.4055110481639016 0.9089425602253766 -0.1240582986352057
Ni 5.11391382945413 2.734328812759662 0.4587797658211074 1.1684195768139296 1.3328318537861499 0.6098548712237368
Ni 1.564372198636429 1.2290128654291919 6.963081436849869 -0.4439724374638934 -0.3108029205560389 0.29302297086479856
Ni 7.1156417641419205 0.44729083755527144 9.183085465647558 -0.5000345705647841 0.4218126135374026 -0.09305387983389135
Ni 2.7497497082237468 1.5700060620846659 9.203462174648083 -0.5562329721332226 -0.28921593841388255 1.1129675664932124
Ni 6.244875802178429 2.188458004938492 2.674655003344954 0.9622412716485169 -0.5973389981449132 0.233285702905166
Ni 3.855566953859358 6.890892144242939 10.497592208903749 0.7643236638299998 0.358188351818538 -1.2256415345508762
Ni 8.133195149088486 7.150582551873775 0.35423729007249133 -0.4966263162141834 0.22409220933135596 -0.19655518025335184
Ni 7.593310321181068 3.747340798163818 8.222695931720494 0.09581935839417045 -0.22343966334902166 -0.14399617520971328
Ni 3.176171776589507 8.570343226711467 12.263776799730431 -0.2506277937280394 0.02266093193262549 0.26906311761509144
Ni -0.053660743618993416 4.825900617917655 10.069356289309221 0.18286791257424637 -0.269913895651161 0.8395963084210701
Ni 8.689205105391018 2.337033096131101 5.755835689028617 -0.0745571065812845 0.14824158074962857 -0.3761061126392232
Ni 3.7334367120896434 2.6893030483103706 11.52850615655977 -0.8720839966361302 -0.33935013606611236 -0.1745586213776026
Ni 1.03489737803 3.3298390135910996 12.582109947535928 0.029153995856136882 0.4289268559846806 0.06997257253439562
Ni 3.0866980798394605 8.343724680957061 7.969312020273303 0.32283876867465044 -0.5848809748872186 0.1510926770451785
Ni 5.563250553960317 7.810024462764455 3.526237840839746 0.34556449240694037 0.26666273570371496 1.2485343799886497
Ni 3.094209897770443 8.427934687979025 3.7083714369213814 0.5273659113898853 -0.11828874314128016 0.02567760727176223
Ni 3.314977893020911 4.278494943451933 9.548871272926206 0.5045260306772343 0.18306485907640085 -2.086154024299323
Ni 7.211841788246032 6.055328800203608 11.227154051019408 0.056510019271586547 -0.18160267270857755 1.3897622484246066
Ni 0.38169515148079003 0.2342107184685443 0.6391022192621717 0.7059804480044164 -0.24464380823046253 -0.4809140476852491
Ni 4.675808717335135 0.48058390080106317 1.797238554496892 0.08129416819480192 -0.7242033987703463 -0.39141806040594523
Ni 5.905426500794827 5.642901104185231 0.331739756514291 -0.3498582346862878 0.3419464360383789 0.29398662032964856
Ni 7.886686537346153 8.736912372154615 11.540518745210218 0.038922645207126516 0.19859200817772252 -0.30646032731662703
Ni 9.16793904045403 4.807121073090198 5.711488877353857 -0.17955401770966495 0.21405513681032812 0.17072330679191242
Ni 8.06730422690061 8.487794487116545 2.6269784339142483 -0.8151697999475896 1.0320932594446481 0.6251441932826395
P 8.371514795850768 1.6180383594318148 3.5613086408050214 -0.3123648657265201 -0.07017183302939527 -0.19545217699716017
P 1.8074860465061056 3.3937797522776614 1.5124169627183521 -0.3441208179818784 -0.3606895209738369 0.11994556201841278
P 4.740914148946092 0.8972062970727265 8.202716482322092 0.6125571006462482 -0.3628219939358074 -0.6125563293152999
P 8.524604200703823 1.6607076521503534 12.51614408774129 -0.91757529619971 0.07761003447499537 -0.4522315921488921
P 6.23832101874346 7.801031949952845 1.4933096787191469 0.612130811742107 -1.0729552877663329 -0.8507816356139283
P 1.814167230723566 3.36422905505638 6.095219081432776 0.27857748486342987 -1.3468191692041773 -1.0320395233885775
P 7.051339880362523 3.874427756332703 5.988539529597305 -0.4378879218327103 0.18851739755053984 -0.09538869861465507
P 2.3443372556337034 8.567463094596102 10.076716426301214 0.5599996382645066 -0.3097127728156537 1.2434525945903683
