# total energy = -381164.3431191042 ev
CRYSTAL
PRIMVEC
9.30321413654098 0.00000000000000 0.00000000000000
0.00000000000000 9.30321413654098 0.00000000000000
0.00000000000000 0.00000000000000 13.61619427213274
PRIMCOORD
 96 1
Ni 8.43544759159537 0.8293368904344514 0.5240993628786738 0.11981315020560657 0.8331292126394878 -1.4897030851863182
Ni 7.115386619222033 3.264963023224702 13.142786526199389 -0.7248379470305517 -0.33844536486365584 0.6343454001659334
Ni 2.7476950105325333 6.550728033398914 10.107750581266165 -0.9153548915096235 0.3225865434545283 -1.8062711903609088
Ni 1.6790254922511691 1.450529248303536 3.496393500930777 0.7008600960587156 1.0770618537355385 -0.32223790186585793
Ni 7.241826603403958 2.563370427602911 9.647931776897167 -1.4427061476114893 -0.32555822448834254 -2.382774482707393
Ni 4.472883051640352 3.3038876714343393 9.290683700039096 0.5891922006680628 0.06542454815239701 -0.2759832417736925
Ni 1.356873790959746 0.8913102518227156 0.34337977545125836 0.9512603471569812 -0.16597936434902383 0.46265021637905485
Ni 8.274436863449052 8.008578911277256 12.797642861335955 -1.134845083292594 -0.297406701754791 -1.3718977094393598
Ni 1.987399133313512 8.525567827543446 2.491109571953123 0.27759943722087677 -0.04166781205243147 -0.7223941134757493
Ni 0.40475866145219097 2.529860250057234 7.481608576496694 -0.6049090971826873 -1.382471371190148 -0.24546373302859661
Ni 9.134425984027173 6.49097348859717 3.3329043965217813 -0.056837063593702115 -0.8849464544210953 -1.2248825448976648
Ni 3.2803040234392555 7.963514141696117 0.5525392886857629 0.22177718804493415 -0.743521382372668 -0.3737031596246855
Ni 1.959759283927558 3.1822109329224264 9.174659594474644 0.6956255871326537 -0.15547820770738385 0.42571503391560234
Ni 4.847067629948146 2.5643193554512336 11.844850457834696 -0.1992178146871795 0.5372808565107521 -0.9677470319580946
Ni 6.826438089407711 6.361333198730704 13.724443014685946 1.3517649432452268 -3.8235610446986663 0.006429043454795378
Ni 1.1383878054904992 3.598232065484222 2.2356293552205817 0.3906950661969917 1.0550971765389892 0.2012746972162082
Ni 3.538300759612692 1.287081078037017 9.525372163357746 0.9106793404108251 -0.46743041137651753 -1.3629129894422463
Ni 2.4450614526311245 4.945867764744119 0.1404301576947492 -0.524212196252252 3.176073964944453 1.3020716897851576
Ni 0.02658486489575982 3.253752650114613 0.2188478805015973 0.7590307908621766 0.19613634754837833 0.1419053541189556
Ni 2.524883030460638 0.7977459659780785 7.46270909685093 -0.5101531470560247 -0.7580368023800235 1.3906464508017728
Ni 2.0721979307396214 7.258088621824237 7.510665305405194 -0.5669573005292623 0.5587631947542441 -0.11040702640035825
Ni 7.916337542491751 4.676465287962409 4.634585008601673 -0.251418922170767 1.3742739229810204 -0.3701064434123626
Ni 1.7645685468132184 7.193049851357321 4.38871687277979 0.40770805581522046 -1.6000466053385927 -0.1326771506524683
Ni 5.324973743363314 0.3053212564835708 11.629441975622559 0.2783013483839078 -0.7002602576911875 -0.7152636730785552
P 1.881658800724904 3.045053645982971 5.937736458846464 -0.06403075312866392 -0.13298953968656452 -0.4513062521211453
Ni 7.274936742739068 4.840313496439495 8.893335979018023 -0.8460153245735365 1.1334883121543833 -0.7984841117617926
P 1.4764386998484307 6.341042888562153 1.8561186867837192 0.27523196542996475 -0.014699768104019845 -0.37497251325541225
Ni 6.538531519583706 8.1434010914527 7.009671405311762 0.7112794916198266 -0.7546342044563779 0.2034387947470625
P 7.4858685182785285 1.5283878479370092 7.588808583393163 0.4031716013974476 0.11332445715746935 -0.6387692402652418
P 7.264200833553141 8.58449438628146 10.91020676459332 -0.40272988587433867 -0.7800590722873856 1.6188606527213023
P 3.4367654798421423 1.7672664789309989 1.6421540634153051 -0.8666332579342043 -0.8546637442771539 -0.12952317840451888
Ni 1.4409655441067128 9.038249355635388 9.54256915480505 2.0281784762258037 -4.476661613984915 -0.42684349109309067
Ni 5.308255867447272 6.077194430657392 4.052302413799506 -0.35623148520248327 -0.3945758893086366 0.8704402903851203
Ni 5.903652272984693 2.336734826495126 5.757539712057046 -0.28712280333027973 -0.8530719743100018 0.5379141192193768
Ni 3.747343982669706 6.039134981368284 2.1507319437239603 -0.32873816487822094 0.5041930728178479 -0.24201305547583485
Ni 4.929568533467043 4.011490143428842 13.645333132742675 -1.573289906070039 -2.8818644299707206 -1.1896774577514415
Ni 2.482860411922653 4.738266539887987 7.313353435453426 0.371368855064554 -1.0255793695855304 0.6394518681545632
Ni 5.880896611053342 8.191247522079411 0.32212193100598563 -2.1266712676870796 2.6988679622384097 0.20473848739509254
Ni 2.5616679394044493 2.8804611803699456 13.404394770124972 -0.08450341916071898 -1.5173748400699738 -0.16679183294799016
Ni 4.92971738489423 6.641787893981115 7.869316306964511 -1.1314252589777676 -2.1645554443273625 -1.6812842092638465
Ni 7.797526193953204 8.945766103280704 8.962859829050394 1.4970194163420734 0.8502440179429034 -0.8118039687991504
Ni 8.606105752866302 6.791271939734568 8.007669987249988 -0.5738234315214762 1.3298565732079097 0.8237140899731749
Ni 7.473411514465741 3.670722710524732 6.746456496293971 0.15146291590040364 -1.3330578537540267 0.6605009755153786
Ni 3.5623402651035385 8.132162808700013 11.686330200129516 -2.386301779134361 0.22189957255541137 -0.05799020336153883
Ni 3.3696148797519987 6.058085628692145 5.768377956599164 0.8875769500654069 0.5597600114498746 -1.237300201835727
Ni 0.13291223030034008 0.3386137388169856 11.80319810722184 1.1053535015913802 -1.5743296601884627 -0.15421116806950214
Ni 5.691343621743744 0.612114281453462 8.439576358056994 -0.7267207658755613 0.9000820245109532 0.06240581593073123
Ni 3.82630036157869 5.190579511041035 11.616819374597025 1.0585398836719513 -0.43428709185532943 -0.04737411840858938
Ni 8.073468830316983 0.3889227302422377 5.595288865457969 0.19786207199023345 -0.2010273570920925 1.3789813557590187
Ni 8.544192862370334 2.3109556199490213 2.5555966618180226 0.5681114687383635 -1.605933403136673 -0.019090440972547768
Ni 0.5940520910856296 2.5369213896344602 11.731345662675398 0.670968964926238 0.8467758568886449 0.17301158860545687
Ni 5.945219034026915 8.804385157094792 4.949840237207196 -3.028647681007268 1.662130776263847 -0.9019882403947304
Ni 1.289071965875655 4.728860990332551 4.561602223530023 0.34279798540539674 -0.41614384528739945 0.11298892819492155
Ni 5.686505950360138 2.3308179822644073 1.7641005951389963 0.17078398482651877 -0.7733531210221196 -0.24346264343816781
Ni -0.08163198331268692 7.125517819485009 5.8521040934281015 1.4480314164791448 0.06206077388648667 -0.1695349429107661
Ni 9.112786707799732 3.7778864348858243 9.89255979426629 0.2994723260345681 1.5371260545549723 -0.9182435259113283
P 1.381657553586532 7.585152420212861 11.648817779835325 0.06536669833126807 0.20729904903341714 0.3452053092953087
Ni 3.5496506809357693 1.5423891853068716 5.715002625773842 -0.3223710850096126 1.1900366408630731 -0.5444321228435526
P 3.937055126620691 8.08346048236697 6.498246741458138 0.3164418640093712 0.6756370598258686 0.22885466371700586
Ni 0.09924389811327584 4.750546782630989 6.931460213860137 0.9204310204809504 0.9233034569327389 -0.4261976299789757
P 6.25443926758139 1.225437980752826 13.457306800883174 -0.26231320048576756 -0.27298353571542017 -0.11635064557830285
P 4.570548194304015 5.9121833204054 -0.1514851671277109 -0.18922599358179024 4.18667151640917 1.3408143577709941
P 4.906226769041139 5.301306366440437 9.697344868795033 0.9494438627735325 1.5612322035745565 -0.5528697120879446
Ni 8.903306233675353 2.5984063322772637 5.0222378501057126 1.1578420584083995 -0.36722192277571597 -0.2398751831972256
Ni 1.4438867533652757 9.197566898797442 5.3607501838879275 0.004824160861520724 0.8354154375705032 0.6287823042558591
Ni 7.9637932381220935 4.318291541291512 1.8793478823178118 2.002318063519274 1.3282025825442545 0.1899351038336729
Ni 3.6439945761303036 0.8290308146872963 13.132057129263401 0.9284348646220334 -0.6980380532288882 1.9359308943432918
Ni 9.285528789051295 5.899856561591402 13.158703395372875 0.5175067592076185 0.4766596432842694 1.2451711199433717
Ni 4.384353665320345 1.2933793540499052 3.659801667376239 0.981012124498117 0.8714738738559571 -1.9237762612586289
Ni 5.543152722763986 7.211981892252783 11.859596052340496 1.2008584140689254 -1.6667063114496716 -0.8520877560198615
Ni 5.899186730169056 7.662750529848756 9.47943103099904 1.2230364928278614 -0.18032483443741845 1.5895271938645077
Ni 3.4780252348157896 3.681663290423043 2.5867363803857324 0.18014922809150263 -0.1373976960565892 -0.43567471623147547
Ni 6.575493189597302 4.6261162927161 11.117255378526016 -1.527192340381028 0.0929986011159237 0.4950222049518572
Ni 4.6940762724415785 8.323948569417428 2.6069290068051916 0.3331900300019875 0.3257765111467357 -1.078396513386562
Ni 6.902938419768095 1.404301576947492 3.878409524951496 -0.22358133113320847 0.25506063268841234 -0.6331830044267159
Ni 2.3822647567862267 0.9564913614668794 11.220806664813542 -0.7561110461122204 0.6605989345458236 2.428300749273966
Ni 5.884106219952081 4.603928126850904 1.8031517670617432 -1.1188703051308924 2.1164179653901876 2.524615302137
Ni 9.166763956583745 7.81173220203545 1.1523435571107852 0.581582763751921 0.01648128548447484 2.0975769214242845
Ni 0.24796973190949098 1.3415979132445872 9.650259441089819 -2.3319370883405517 3.095353924085566 -0.6949504154424999
Ni 1.3316248676229976 5.058818088337141 11.388421744719903 -0.22117709256709003 0.36755976573110893 -0.3028985781072977
Ni 5.345747820670226 4.452667167185394 7.114420945588151 -0.9724161552989898 0.1456427096742008 -0.17305092648382456
Ni -0.03414465675406554 9.12610891053305 3.5955601823661993 -1.6446896979692645 -0.11890683634125326 -0.8180890304769137
Ni 7.391524623083995 1.3500824445942978 11.410684336298694 0.6241296359751961 0.5402517662136179 1.5496159594918668
Ni 7.485524299353156 7.411377682185181 4.601579065265595 -0.5486651870882937 -1.316500720726294 -0.5127134515840331
Ni 6.466933983106323 6.935174056968476 2.348058698818446 1.8330556575436043 0.30362491475036096 -0.4104647926247511
Ni 6.87530787359634 0.2090171740572561 1.845661874023769 -0.5238293589915366 -0.64490389240807 1.9527600500854885
Ni 4.347401298520948 3.881747518206185 4.757852596741657 -0.5935448212098036 0.18312630844195557 0.6774980242940073
Ni 8.991296033571803 7.090779617665032 10.334337805660113 0.03354441161434868 -0.13537398075834106 0.5464105867261622
P 0.9965882146656212 5.746520985159461 8.691366920038115 0.6807813230309695 -1.0871878864259468 1.427261016701013
Ni 3.7903806515554086 8.330414303285904 8.910641818071458 -0.6052736796109576 1.393480063595826 -0.17467714923333785
P 6.250513311189308 3.5807327195754444 3.758845546384231 -0.10561834676246327 -0.19292503969993227 -0.07544490850287652
Ni 3.535900530349287 8.679163893972966 4.402102337369663 -0.3975547694313024 -0.48070835943234635 2.0192040406413354
P 8.496923231023974 4.398736434472376 11.914115678512328 0.8803372377838581 -0.4576787313063924 0.02821091521657722
P 7.209544450132581 5.896209701625297 6.671840066808933 -0.6274443021707259 -0.12551122903164835 -0.8752533955030474
P 2.7093936776742455 3.3928077927507143 11.215795023324409 0.42267187621390434 -1.7671623972849049 -0.24229047750693758
Ni 0.3595031759799682 9.121401484148231 7.379950494298716 -0.9923260068490394 0.1552619779315197 0.5155861451461378
