# total energy = -340894.0366263571 ev
CRYSTAL
PRIMVEC
9.03907841027043 0.00000000000000 0.00000000000000
0.00000000000000 9.03907841027043 0.00000000000000
0.00000000000000 0.00000000000000 13.22960493747923
PRIMCOORD
 96 1
Ni 6.661312796405559 1.7619514294835033 11.319832434349063 -0.6498041579231648 0.593187952091017 0.1847031660107722
Ni 4.625242270185259 0.22702097784386346 5.778889925184629 -0.43012087629278184 -0.21535431523772589 0.18339884537705187
Ni 2.495870374957599 1.769951014018624 4.6933345529666335 1.459782643477802 -0.8103872909572817 0.16814886119651687
Ni 3.2805618247636406 4.148051234277822 4.816383529550357 0.012080585313617906 0.29235808358729 0.12751823215934813
Ni 5.223186356719448 4.64148549437691 2.5473470235102065 -0.257249412809615 -0.2970742581160367 0.5040110387140287
Ni 7.374884776016879 6.228449401809116 2.4602961773345253 -0.29742238548407485 -0.7473888357478741 1.4104429167024095
Ni 4.9562352492892625 4.7284504693061695 11.435049049351225 -0.7766464470614108 0.00034864158867036735 0.9237261462924543
Ni 5.626772175825205 8.15921466268009 12.452154191276444 -0.43740686843123383 -0.7257470891083824 -0.4498294104653027
Ni 1.8775341271677815 6.616280106966044 0.3707305763167679 -0.37124518500249615 -1.2703743586818768 -0.47810074660617013
Ni 2.999039722677394 1.5997632426883992 0.38995850425248363 -0.6351355001673965 -0.43235927870499735 0.22654864129164856
Ni 0.5876693659228083 0.31706918247360816 4.636129840323737 -0.6770439674757243 -1.3395079802547447 0.7343530856098386
Ni 8.87576953821976 2.216264557528353 1.3539970237044985 -0.9387717277716672 0.9607132650397648 -0.4837682293045926
Ni 6.9509158347340625 0.6121625571259903 4.916345795556509 -0.3137239508575758 0.5056341761397485 -0.5186673551746228
Ni 0.8010820109783962 7.468936388545612 2.5742165884696413 0.3654110948192223 -0.5090773974933426 0.2909995126768665
Ni 7.522899687613036 3.9221194654017344 3.943110013658748 -0.0622903733987895 0.22752257516914365 -0.7850359566766867
Ni 7.5886680232938675 4.074934127718963 12.534323031116058 -0.20425152045634504 -1.3765051263043842 0.012228423745391844
Ni 7.97632698595795 -0.14112442200166778 6.940726985369105 0.41187427137776805 0.21948736356949294 0.4879146473727985
Ni 7.032276580949452 0.7905234632998942 0.4453734793383704 -0.3825202436956832 -0.5611116403817626 -0.27923954392746103
Ni 2.0223130486356067 6.288920837447486 9.098938964684622 -1.3702257210535755 1.0310159672200694 1.104551317405059
Ni 0.13078913956386348 4.91348944672815 1.3644886822015767 0.21858156392577197 -0.8720366883379628 -0.3129197097887256
Ni 6.28121050342663 2.0530007203833285 6.977095717998548 -0.5309500291967179 -1.0459720743092695 0.21726927287225165
Ni 3.4520331452509128 4.311812220744238 0.5264323203294966 0.3428671480804353 0.343176451790738 -0.49442622323907104
Ni 6.069560478692339 5.733812944260118 4.852116814956276 -0.4837371189563411 -0.34087711423360006 -0.09960813601264136
Ni 5.152121120996151 2.8028194050633872 9.320124313403207 1.0250353241566024 -1.567179936517559 -0.31819895590979397
P 0.13025402611247464 5.487886733585515 12.31542637709159 1.3955685706937384 1.051393245324841 0.010218078183582401
P 3.9963031832319427 6.307839628896081 12.58530976161013 -0.428299763923643 0.011795707083347427 0.12136069719838455
P 2.508958960728056 8.393155055169867 1.306734393581578 -0.15436620559012768 1.795934841431907 0.9408442940299796
P 6.420276727237735 7.7228441055981945 6.021057686989511 -0.8573688019131428 -0.46992952364928753 -1.8544220390345225
P 4.850270131204271 1.1568574317998455 12.49627483768817 0.002245087280434843 -0.3119738009356885 0.18801937486819875
P 3.8286915492943834 6.04773110394396 8.151037912204982 0.7018934224192364 2.7058515926450943 0.9499827659961382
P 4.9388531011976955 0.9997311290043656 3.7385936297324998 -0.8701243018065983 0.06303702175682692 -0.4159965210762578
P 0.1160048226535323 5.563706524637029 3.590978245409171 1.043457278307216 0.3792176616850114 0.9039235097442303
Ni 1.5457366700709807 1.1535581681215192 2.5731843256968605 0.8014583638987681 -0.6892137700690388 -0.7509726964443905
Ni 1.8007833110234783 6.632622761021974 4.955148752045058 -0.32749555072037145 -1.0356570655365067 -1.0015356983727655
Ni 5.768712826621813 5.817451538275337 9.373915869977784 0.8762394135654006 -0.9009209754724807 -0.3722633418543653
Ni 8.632338113230686 2.402632279500234 10.0790941612283 0.26023857734492595 0.18572260841422208 1.5980946238185447
Ni 2.344520043368833 5.099278667671502 6.981606218205356 -1.0588499587132023 -0.4669586139464216 -0.5976349321187772
Ni 0.3097231233191534 0.20106435982007584 9.496117884899428 0.5997152116865736 -0.3643381734700177 -1.0143464769841886
Ni 1.329115152122774 0.7199029502422789 11.662505710782199 0.7625241487274158 1.445472397502717 -1.1057522796916956
Ni 4.098300145824372 6.710349797651919 1.5486571963571927 0.12812784071888902 0.4889762558680934 0.5392413226712326
Ni 5.686529524256485 7.840306931625189 8.014719568279386 -1.3409470266941164 0.3700357380754272 -0.3777109952324979
Ni 5.325915484676108 2.914922057497923 4.752206071697978 0.0534825452991724 -0.024050098970668256 -0.0348549028956561
Ni 0.8196744916905876 7.527807907276956 7.109047283066611 0.6335411590970831 -0.159743410741641 -0.053973883113294145
Ni 4.996142781179157 4.602662651915506 7.495061133430816 1.4245248487167725 -2.9573057389291715 -2.149851562458285
Ni 8.1814056005713 7.150191360904985 9.037342163764196 -0.5104783916059273 1.159362608817984 1.199360232256844
Ni 4.614485766686057 0.3474522372734958 10.211323226008483 0.4124568833541155 0.24959369603657017 0.3841312969365449
Ni 8.252452758137455 7.046847575605513 5.097221373388797 0.4580636254496369 0.6449733121934247 -1.00338432154573
Ni 7.048384218962543 5.932889610702484 7.197712508675029 0.3709806184871998 -0.17454242342768653 -0.15414097695319906
Ni 2.3664036525886374 5.162235849916828 2.6640451434901165 -0.9079737685542041 0.21208027247214442 -0.5311531463464595
Ni 2.4272366513698365 5.177774025979962 11.50048293912494 -0.5542133706000326 -0.07277944585557143 -0.04926696455592805
Ni 0.8701884783754095 3.40474972524728 3.4905920466180507 0.02252440635476121 -0.06938764656520309 0.5352167748928719
Ni 3.9019803983460863 2.67591074192995 2.5223964549313442 -0.8024834627291727 -0.5623815082331217 0.29075088700117024
Ni 1.0918935741118105 3.241024895095147 8.304779080075713 -0.07711072624107365 1.102801681703804 -1.0684918526783405
Ni 3.444639178980033 2.704130745227855 6.995021114712218 0.46074220072306454 0.1196146610415553 0.023021400595837772
Ni 4.05234547037064 6.6699812727549155 6.053073199379277 0.5946239132065952 0.5275636292229882 -0.7572197057953669
Ni 0.972116743970701 7.322259260577928 11.276373448488716 -0.7699631215039643 -0.8686178924644008 0.45674799196200694
P 0.12213783746379137 5.654440795330294 8.054037752246469 0.8469686896257413 -1.1396052236853986 -0.41844266862390517
P 8.497908936726379 1.6875869300818804 7.970572708539806 -0.7136312796814549 -0.6361960802214269 0.4520189619174538
P 1.69092235007449 3.198532186734015 10.327625434346995 1.8194372954292215 -0.2885075994929483 0.7156033158061611
P 3.9978398265889714 5.916565034803695 3.7909298946571868 0.643778263444059 1.7965565341763061 0.9231149950710166
P 6.618657384630153 4.044996699492613 10.452367430347023 2.083558238547689 -1.087747615584159 -0.6782423586591997
P 6.269034864591819 7.778181344608372 10.157704315834607 -0.2835453703916665 -0.6543480685401054 1.7429544325801336
P 2.4186043313347625 8.529274539366908 5.71451451151155 -0.32558059308584575 0.8282875682764703 -0.04808142888825913
P 7.0501287611266985 4.162016610669642 1.6112600467225457 0.36037841749132127 -1.2904109656177776 -0.7608634731955412
Ni 5.538360948324624 3.020887175582915 0.23221031285133542 -0.2254510373520956 -0.1786289347922343 0.16689956217044805
Ni 1.2772941146766204 1.2399446420222497 6.969408885581975 0.8144969422502811 -1.0839410973538752 -0.5737879502978506
Ni 6.978394633589166 0.4098092247017245 9.182761955902688 0.03126307177933971 2.3019256295801256 -0.34829731795707114
Ni 2.768082226115965 1.4390213084646162 9.180737202302838 -1.0099570896672414 0.39281314098125897 -0.007912312868541212
Ni 6.409755239781373 1.9976544422945797 2.4508105682823724 0.5795240814506795 0.7252670641481703 0.26583792580957444
Ni 4.049669903113696 7.0339307323279 10.406142486444026 -0.6399406348655237 0.08467234063841546 0.16736184651884725
Ni 8.270621306064678 7.068342504446775 0.32223501587679615 -0.6921738811386272 -0.6285097673207627 -0.24233804291542135
Ni 7.479358446137696 3.5511918371721243 8.358967452199549 -0.28041659495469773 1.8874699706284268 0.0387498670746881
Ni 3.068514080572237 8.417424981132353 12.304471917771691 1.2636136429192755 -0.5164937445620719 0.28882153118894127
Ni 0.21328338623202603 4.88880372315141 10.091688309400936 -0.6613268138507836 -0.03221232306648646 0.6755401292366882
Ni 8.445961352180234 2.5018090495785867 5.721182639773198 0.6779284269632067 -0.4896010339362858 0.3012361028032102
Ni 3.680306035476826 2.7038957291850156 11.476351311064589 -0.8445883623190228 -0.16153855496885083 -0.5338936852060742
Ni 0.9725867760563803 3.3623112513575726 12.403045781309375 0.11249064840226433 -0.4601660165046204 0.49610695337560357
Ni 3.2352037284955784 8.312345692747295 7.773187253698029 -0.8237850524204264 -0.13157877538196694 0.9598128647126826
Ni 5.748031414851918 7.926467428561652 3.673623444689465 -0.9178740583870515 -0.5703030770730436 -0.22211580233127554
Ni 3.1055833417909144 8.232874113953194 3.4867947297104753 0.5583559320134964 0.22748375151140823 0.4091519873505986
Ni 3.519636413881609 4.289124133531637 9.455225093445321 -1.4524069198390213 0.3486091927705351 -0.11462466402613163
Ni 7.171758602374814 6.179728768312733 11.414860267363437 0.20001819910128776 -0.29533362127584617 -0.4898725424301176
Ni 0.44360453166207314 -0.13290066831799247 0.5347781015738771 0.89999589255505 1.1663503529897268 0.13349219035459592
Ni 4.7520243862187055 0.17801832509607218 1.5960066016343923 -0.27285240945419464 0.18433909780313412 -0.1678369863830529
Ni 5.979341435477607 5.648809449380713 0.33501717688370447 -0.24153663006004852 0.6361906809047883 -0.2731568280684909
Ni 7.9277148214044155 8.522576582145977 11.46871871311944 0.21510543245171343 0.9007026888140875 0.208360400418396
Ni 9.052998751756606 4.946581513375692 6.0620164637171845 -0.01382739280139554 -0.8211643269681277 -1.0154600217633416
Ni 7.858222385352431 8.708501389267889 2.698442453083277 -0.013091543076635518 0.8157938066848337 -0.4268722874484971
P 8.333307315952881 1.7070209490090091 3.5538556536269263 0.4955713925871078 0.31825294907618096 -0.5140550532135921
P 1.8083128634729195 3.2290119596746094 1.3901009113318186 0.447056732816172 -0.17574081461116187 0.796525445373525
P 4.552423453219236 1.0214791520456084 7.890176432007916 0.7233508209620638 0.4333257563833247 1.0583861317029062
P 8.627773378552455 1.559900906191358 12.36638689425781 -1.7050926245373539 0.13864570953107735 0.5338445771356936
P 6.339584872836582 7.677630634587264 1.2815081331063074 -0.07697625754573839 0.9464259018828152 0.5156779335289957
P 1.5684609135978655 3.266930894278938 5.934682059983065 -0.08870177351278272 0.0479310193533239 -0.23465841488297648
P 6.833597633964199 3.992045777225116 6.156409753415893 -0.4809898952285071 0.6818089929645355 -0.7040024983424392
P 2.232426430012868 8.43779906423084 9.998287510529297 1.6310325121971458 0.33105807126064923 -0.2789423244020164
