# total energy = -340889.41049844335 ev
CRYSTAL
PRIMVEC
9.06175524536322 0.00000000000000 0.00000000000000
0.00000000000000 9.06175524536322 0.00000000000000
0.00000000000000 0.00000000000000 13.26279477784561
PRIMCOORD
 96 1
Ni 6.1557410619065545 2.3432612058063214 11.47619035292485 0.4390235780990504 -1.6137289879216918 1.7715481850574266
Ni 4.5859097413879315 0.33538644152218555 6.2913130782953575 0.3856875856800712 0.13915633061890872 -0.805101102857678
Ni 2.673054731894598 1.7024863578436291 4.8000707376732334 1.4290271074625 -2.7750219809931695 0.04496653740836126
Ni 3.2500166983187495 4.016133746997302 4.535278995432197 0.0015912557465198403 2.1550073956276115 0.9413163485703917
Ni 5.4121515371565465 4.305194682555085 3.1510143020289143 -0.6327014368046071 -1.174466554338958 -0.5067598051037595
Ni 7.173684293197439 5.776325363238748 2.5796271275278686 0.47222217633820607 2.7210069602292943 0.3094145248489445
Ni 4.789300841378353 4.649831363991292 11.402860815863477 0.5319162497647291 -0.5891698320705595 -0.41955904161653546
Ni 5.6401815500841 7.672905460030687 12.519786507582312 0.10278216286524879 0.6909253534435068 0.509438123266871
Ni 1.6018465023527133 6.702953285347033 0.23417025838772346 2.5472530941411744 0.35381027735550036 2.097726045407639
Ni 2.9002420015697963 1.4701157640786768 0.4187065639138951 0.13885833976251571 0.537576790484616 0.42352342558092226
Ni 0.6181231779851445 -0.027629292219683334 4.723478062491722 0.06279816627314347 0.43096651212252873 0.032963085189581944
Ni 8.596352705992986 2.2644783043442267 1.5983785685604952 1.256158986413443 0.8800207349847038 -0.8492528576742276
Ni 6.6768282445240255 0.7097601794845041 4.798041810638801 -0.4868828636741744 -0.7859816084194077 1.1394085342935603
Ni 0.9440627395010919 7.764601362940158 2.8108903747827374 0.5377135731727966 -1.3467685184719 -1.1348466259544907
Ni 7.829719137256539 3.8495333739376503 3.9177239895107365 -0.44458050336153754 0.06895852944758447 -0.12321626234988456
Ni 7.639041680094658 3.7886927481708566 12.703834384492335 1.5718320905775898 0.07815228013171058 0.18007415187919312
Ni 8.004529460710101 8.976167121898467 6.86833757083178 -0.018255603776078235 0.32527231781680754 -0.24746585106028995
Ni 7.117664521304333 0.4267198742155894 0.33447029805107703 -0.7536702978812118 1.4718285188987426 -1.3733470402913768
Ni 1.9338510967589966 6.571367535159423 9.134988884121325 0.5689493912586265 0.3098487841728857 0.05799354579564851
Ni 9.21788944723794 5.021191162107017 1.372367514736433 -0.14033543852867442 -1.277792762633135 -0.07020294337764685
Ni 6.542587400003727 1.7859723103591891 7.086974168109966 -1.517041367989955 0.8213833849574692 -0.5001338151468097
Ni 3.528892220805058 4.256152462321261 0.4639129430861923 -2.2997558756223166 0.9400503373737745 -0.28288999619585475
Ni 6.04548668393447 5.84362702060693 4.8970215525401315 0.580271244029349 -0.39207549148428605 0.021442486144492106
Ni 5.145554693239497 2.8623910492570324 9.516943686652679 -0.574848787462197 1.5540765663663816 -0.7038256064449427
P 0.24180025643592723 5.515491795757159 12.46149676596109 -0.9970768912704634 -2.7303668041776397 -0.24693774647096178
P 3.86860836905816 6.139783310644218 12.74717766675405 -0.07330395090047374 1.0210282598797382 -0.19180609560414064
P 2.7404832538384034 8.409055283595928 1.440711273975807 -1.7648815716705282 0.5744983461013138 -1.7903776590591036
P 6.4802153375740525 7.7969246444579055 6.023709473353183 -1.6581779622636863 -0.22465630936494216 -0.8677470598236733
P 4.9978480801923215 1.1227786795327728 12.78940635310136 -0.9009729117563386 -1.1845133970519985 0.24695240175898112
P 3.931940977560412 6.167766011324567 8.079137611458647 0.08321298248406958 0.4897252182189759 0.5611952012345044
P 4.7506524545902415 1.1479250507723993 3.7477209272977587 -0.11765008111601674 -0.17559091929685888 0.6201889061598932
P 0.2795533417903532 5.7418091369137985 3.4995339456547363 -0.2492059736798482 -0.46029585721426536 0.12043047207463131
Ni 1.6475630583541243 1.034979331446019 2.62751850482568 -0.4133362006352752 0.03034493084044451 -0.5038793982321709
Ni 2.105553238109787 6.345892937255139 4.513514471308472 -0.296358977216567 1.1195871286922592 1.975084681724618
Ni 5.7464578174348535 5.545459020870473 9.372353411288138 -0.22301003201077074 -0.1277434607962768 -1.1248355215753918
Ni 8.53837559493312 2.4128283020249204 10.358150065291607 0.7855013263488795 0.9464253876621829 0.43433337171223263
Ni 2.2622400507600147 5.271513093322671 6.932821022270044 0.5369592115052751 0.19001249403882758 -0.12700478285803934
Ni 0.25842404672028574 8.827599642088133 8.830329042815114 1.4214330971653262 0.6185122897884187 0.8995053260718766
Ni 1.4493824677196625 1.2772000533325838 11.316691677573484 0.4337196493876337 -2.148051018914436 0.3129811591542803
Ni 4.5159348661762575 6.856577224671497 1.7641769762670994 -0.19083601838138747 -0.7209926051425325 -1.624772133109731
Ni 5.673800662624285 7.751126532657879 8.112971487601852 -0.8383778626329367 0.36717641424976116 -0.3115354278466893
Ni 5.013869263742469 2.6804038155253496 5.274122878878351 0.8313446099352393 -0.4005727303220198 -0.10748985275356326
Ni 0.6589690404581594 7.503224090134469 6.7007349676247046 1.1614308042009223 -1.1626240531780752 0.04835268027177479
Ni 4.961075476772356 4.542920773762423 6.930619015707439 -0.23024948718200344 0.3391141087959063 0.6368046603397033
Ni 7.925465644830554 7.009086568081555 9.246025291584575 -0.09197041696172548 0.7346603324376122 0.6222049081486574
Ni 4.723195335723189 0.30883821672192113 10.684348793012044 -0.4135174634081459 1.7140634605773963 -0.5429529671948649
Ni 8.093896492481344 7.1859720335221 4.648901627887081 0.5076635478649516 0.5238481280446139 -0.19817780345843933
Ni 7.276843316690019 6.015474150044147 7.155397670796876 -0.3090676830324871 -0.3227948028105924 -0.6843317593863892
Ni 2.459596021652925 5.367014933500842 2.4189214263570014 -0.5567119686521703 -0.811543258938596 -0.8262659098607511
Ni 2.458707969623562 5.279360573500514 11.28117412727665 0.11113799102911183 -0.8763898231003358 0.7321473362077713
Ni 1.0370091646559925 3.027940258690091 3.818359123004835 -1.0660593319774478 0.8676814966930604 -1.0275624614538303
Ni 3.5078145777407794 2.715364067864982 2.6981168288089887 0.9702955094115612 -0.14158062378968522 -1.054584755678945
Ni 0.9478868002805955 3.3801706911528955 7.924944593894958 -0.0408748838374909 0.7883912463021648 1.6378919583211404
Ni 3.3225198032874887 2.813638805196063 7.072903074322257 0.3814257250799237 -0.2684062007573829 0.24916997823559023
Ni 4.189022978305711 6.945581786226673 5.892912095885519 -0.42890525871812585 0.3557434898224712 0.4180757722027897
Ni 0.9455307438761621 7.093288399273848 11.36629482046667 -0.21032215213045713 2.7177414021041453 -2.3901941722102324
P 0.18826612404949786 5.775582299295811 8.180147186569952 0.5085870881204854 -1.3568151040746246 -1.8373964510108032
P 8.570517641342834 1.7033472246067878 8.138210288746576 -0.3144436026324197 -0.07684487417419668 0.21726104534213553
P 1.7177644774508403 3.2275707301888197 10.41919911143264 0.9677604016945333 0.18351197391614846 -0.5736725077659087
P 4.113864779004283 5.981546937820306 3.7402141691230173 0.41158965025781374 0.5251753314964697 0.48447785377710756
P 6.931608559397302 4.020954600870989 10.56937324047569 0.03183385668114517 1.7948945730928507 -1.2069424154794761
P 6.1570187694181895 7.847144892893946 10.241131993087718 1.4321191161242626 0.2657620782663165 0.6982020896105782
P 2.538804825618898 8.531869254554723 5.782299778575068 -0.5708728335335845 -0.25009840358713054 -0.5414334452265449
P 7.004011985056623 4.007787870272367 1.57954552230921 -0.3511417293844017 -2.0759847970758054 -0.3786844148893607
Ni 5.198783444468891 2.9554099684551467 0.6536824123568268 1.8567856541706926 -1.4106293216816026 0.4985219905749995
Ni 1.283996369883834 1.1477166303981607 6.759967131807701 0.32123825695675 -0.3492311426252502 1.1056391511525991
Ni 6.811794029476458 1.296655642179963 9.371556882988331 -0.4819735992980151 -2.4602006833063563 -0.00047513986420563324
Ni 2.623731597243323 1.57900181698511 9.196501892138924 -0.16954805553688865 0.7162340074116246 0.13195775598794046
Ni 6.522243759126985 1.818277468366133 2.5729957349249286 -0.5664731618039922 1.228389786719975 0.5022567750270834
Ni 4.159073876703201 7.083809803123704 10.569095044584857 -1.2221669457387143 -1.0225279843537165 -0.5231289904904023
Ni 8.161479064266977 7.184766820053678 13.047950921168487 -0.035845548943699554 1.129846858747054 1.4728754721060182
Ni 7.470900808616722 3.837589980318253 8.388797729395499 0.2728634651977881 -0.12106784854831408 0.03081929937370176
Ni 3.2978355815733473 8.471227987406767 12.54862010709488 -0.512991130725452 -0.7250999424426867 -0.3206970397412993
Ni 9.419241652262984 4.877272362817737 10.300934141685481 -1.6010326234009458 -0.15500126807096531 -0.6363673156919686
Ni 8.562896705050031 2.5913720687039694 6.093922672731921 -0.554094071413349 0.7709367982711433 -1.6263837005712247
Ni 3.572035238272395 2.557236436105889 11.472238521394182 0.18097455220627542 0.1993862219442437 0.20904688496245932
Ni 1.2861802529356359 3.1313167643123103 12.78244330025072 -0.4656380953627851 1.55431773584291 0.08520430188248553
Ni 2.889657871260649 8.655480659988864 7.976271282665542 0.8796219568843884 -1.048775862306652 -0.2902238108531066
Ni 5.864885898779242 7.858789248585087 3.4683533514931395 0.27188927420997694 0.14818013138407382 0.43000054866483367
Ni 3.3966177772069215 8.386989909192868 3.3298235781412324 -0.25243733613295233 -0.6943891436223912 4.109576988118013
Ni 3.314445779224603 4.231785402046179 9.078130899853566 -0.5192877623674412 0.42193114139313787 0.36463693565735905
Ni 7.101607090732578 6.134817468684105 11.319729177984122 0.2958941217650065 -1.5360420774621741 -0.23440259011842857
Ni 0.7672434248749801 8.984793913040853 0.48526878204130147 -0.4786177954519047 0.6178188632658198 -0.40817779636278734
Ni 4.778780143357016 0.339677182704875 1.7627316262805335 0.6068675064606387 0.31009638140731755 -2.2588851055498838
Ni 5.849934002366491 5.364903544492253 0.13133383338744326 0.6263757516968954 0.47713324048657824 1.3667827568102977
Ni 8.31313660266928 8.887461598271546 11.207261013167411 -0.6971178554074638 0.2869870490833638 -0.07350989626369275
Ni 0.16046193995056235 5.120073037050008 5.828043519842684 -0.5337278490521712 -0.41945619749008406 -0.6531846443596235
Ni 8.076941948124823 8.99254171390928 2.370750946992819 0.4083197212572903 -0.3120334505290303 1.5972253338397138
P 8.366881873956567 1.5975059215153147 3.9589441024818406 0.9007124590061005 0.5206036529653874 -1.2466142801478013
P 1.7361870261824295 3.224698153726491 1.6351303299430369 0.06286758605849818 0.15828662369045643 0.008293607467359911
P 4.558352943211462 1.3883334215786305 8.19921946316384 0.569986060053257 -1.478921164079466 -0.48782414454152123
P 8.761167913238511 1.6257332895915082 12.538367637033433 -1.1700735674775848 -0.7029640297755958 0.47810511748154433
P 6.668772343971944 7.6222593090907695 1.311824114546814 -0.7973422848478655 -0.7714299358574778 0.7950097800599469
P 1.6536525579840449 3.2890094318121235 5.83878623087136 -0.5082567013642603 0.98665698148872 0.8636122117196933
P 6.71794142878139 3.9917123161898087 5.871385895928857 1.205615983358569 -0.34390433109569807 0.3605825630823274
P 2.2459470145478173 8.616161703301032 10.071129837050282 0.07991014336308173 -0.1501997329172639 1.0798383880394111
