# total energy = -340895.24670557695 ev
CRYSTAL
PRIMVEC
9.01988225282929 0.00000000000000 0.00000000000000

0.00000000000000 9.01988225282929 0.00000000000000

0.00000000000000 0.00000000000000 13.20150942069216

PRIMCOORD
 96 1
Ni 6.30553802633666 2.0197861277115816 11.50458726702154 0.8184430713822226 -0.5232912270998794 -0.4285260210018361
Ni 4.57507363809471 0.3398060197979619 5.77766656196594 0.5650436284463172 1.0591924296542856 0.7211869805415256
Ni 2.6509343405781647 1.459876943973666 4.6201324593168245 -0.4965239863083642 0.4047654282471287 0.5002970801975513
Ni 3.3379787630560864 4.174221055984414 4.747144125671537 -0.027117682152398456 0.055441211687440005 -0.33023094737366354
Ni 5.218064956208943 4.321578870478595 2.989732839541273 -0.09581267352595112 -0.42667996893203286 -1.1584521811885726
Ni 7.281146518184593 6.064905610649828 2.5734093555872826 -0.015201133220470594 -0.059842426078929194 -0.8748476754241966
Ni 4.999143396829113 4.425893807408583 11.35999134043812 0.10202702986677913 0.7127187951695145 0.5174185703691864
Ni 5.727020825747334 7.854495326308645 12.48505025943633 -0.6883815039757306 0.3433906246840731 -0.7299873524419751
Ni 2.0830335412656735 6.594480930756482 0.42167317605024446 -0.6659077483532466 0.02586066981684578 -0.5052775641312781
Ni 2.5945420374492167 1.6104728961555146 0.4055862162565019 0.5492226022536606 -0.5570775795217051 -0.08517576263739524
Ni 0.43721894291568625 -0.078082413707032 4.653901996054583 0.6071966076652833 0.9731764305037821 0.4971490214868728
Ni 8.582535113105356 2.478645571853591 1.357326295989939 0.3487840277855025 0.15829407988962418 0.33723180417152887
Ni 6.939482402666131 0.5912758238740184 4.523259827139188 -0.39562438517780896 0.6494313479647783 1.1788050338133118
Ni 1.0023795020345474 7.643547342739115 2.7080121547496274 0.25033520218828503 -1.3240317389960166 -0.5262338546679711
Ni 7.733484587540577 4.018023756994651 3.704964393701531 0.42298966456463927 -0.9185875395143084 0.43888216742517966
Ni 7.592720306889527 3.764826645489101 12.678320176002915 0.6463848478289707 0.321138241043776 -0.5426503483527816
Ni 8.047827480061985 8.706260836397067 6.869207598938053 -1.5216030192187084 1.7492801176878456 0.26709622369670777
Ni 6.966956963659537 0.7065995269538592 0.4480617432341936 -0.1402269379752682 -0.0025417925852472354 -0.469202929895908
Ni 1.579354302778216 6.407201117917975 9.158084772471167 1.3252632974102725 0.36446775706934653 -0.3906395303687079
Ni 0.27345125684720917 5.0270960115758525 1.426845233594824 -0.20725148362493337 -0.2477869818451345 0.12687288526586538
Ni 6.401365254174463 1.7498841944858121 7.056985309270597 0.08158187463854981 0.36965367214566014 -0.12642114244042743
Ni 3.4398042125158903 4.395632102834427 0.5105244270422494 -0.18194771475282215 -0.4883687041910815 -0.33786815220394717
Ni 6.064229119489452 5.623526698091936 4.7959894934153295 -0.4972590647021759 0.577012113662103 0.4644836700433679
Ni 5.188948776666358 3.051940260684814 9.472703673386007 0.47853731992295645 -1.750834863769475 -0.7071305024484595
P 0.2720504691511238 5.537612320724177 12.412507857338671 -0.050696497913603006 0.8954504392762127 0.2827611839274743
P 4.001102458103111 6.1286220580751145 12.464152094509995 -0.6523297525584959 1.0396312196929063 -0.6447264862899412
P 2.573471592774037 8.57318149532789 1.5007343040957384 0.27365433653019966 -0.1491612643504205 -0.1095891584847532
P 6.370418038557793 7.813554081282686 5.786934490863094 -0.4398041650188168 0.06315657805382671 0.6151611139279987
P 4.75508342592971 1.1252663762873925 12.706557819025225 -0.7149181168136785 -0.8505461225643546 -1.0632216054183368
P 4.1092959443525885 6.268303952869562 8.115047249709805 -0.5470232806094966 -1.0686000961214306 -0.6359865353137821
P 4.661330770983727 1.2320978603339792 3.755895158195709 0.6406494880070902 -0.9778972330182192 -0.3260948137181029
P 0.3621978772064093 5.632149705416197 3.6596169362509894 -0.8303647625204732 -0.4226708477726398 -1.612733456777642
Ni 1.2588057313456258 1.1439194925494949 2.512986067130707 0.6916820291038733 -0.16149921709048318 0.06758170370471586
Ni 1.8393704451803565 6.425150683373285 4.872043335629447 0.8003818430051377 -0.28539939288126975 0.3164572906283389
Ni 5.966381438052659 5.528240663182434 9.34727589833479 -0.7261844337561172 0.8929240733099332 -0.5076465785840871
Ni 8.595262166802565 2.2656320352743786 10.22808091896762 0.29113141026904055 1.132820082442765 0.35211592037221295
Ni 2.5957867811843087 5.133052567055019 6.807873302385504 -0.46837734867081915 0.38426936517630594 0.6731160931762279
Ni 0.18118958841869504 9.067146320752347 9.331961942440303 0.9301875856470819 -0.5558763601247524 -0.8221148638068551
Ni 1.3589264230812819 0.9369041775922836 11.42009803103164 0.6653043104412929 0.51432681881774 -0.48256932390048507
Ni 4.3543210426407954 6.837756171909849 1.4590173492058818 -0.9679326656063394 1.4097394628774818 1.0459419924022826
Ni 5.562290718254696 7.945776533548721 7.938542588073767 0.37954264912459795 0.23024563052726155 0.36647450308673013
Ni 5.216089602020646 2.7482227893223796 5.17992889452801 -0.17510035281368552 0.23993226168740617 -0.1551179961544877
Ni 0.6431428521341576 7.279207243524848 6.98349311358377 0.9997338692773363 -1.3940387643127732 0.07733158400262811
Ni 5.1295528527853405 4.4471807292550825 7.318599774787653 -0.06429660519554088 -0.4037488140571563 -1.2406310659811732
Ni 7.991254779290268 6.954139711140946 9.012961182782654 0.5033551502975847 1.08337494043776 1.1118177691594853
Ni 4.5118983835977255 0.4456236690921983 10.55069865136275 0.14357708539442368 0.40535061132663736 -0.04422965924233673
Ni 8.072415678771119 7.071831133282103 4.701281632950895 0.4750601600076335 0.051655776503078774 0.13215573093135952
Ni 7.141230106454548 6.035185099003973 7.0706224690755635 -0.5013280925652269 -0.21029541265757976 -1.1377488872029504
Ni 2.6205373377719337 5.464984229746204 2.5386638676021542 -1.8230967465586796 -0.8305108011800342 0.34032149884044616
Ni 2.4943401667743155 5.089306138684034 11.226470927132377 -0.1734648740927916 0.781039433922784 0.12542046909005497
Ni 1.2429938779571028 3.4358625240214327 3.5278923814789915 -0.569046064737491 0.432586564224455 0.4949712971092637
Ni 3.566416298091873 2.5994398334503392 2.4663451585815266 -0.1455367802239558 0.6177407017297167 -0.12065775759408898
Ni 1.0476051910762212 3.3939471317245324 7.971190051473515 -0.37447089102864545 -0.16487147599682572 0.430723028653155
Ni 3.3999543732286717 2.495043717581106 7.070570153759162 0.7394343567874879 0.3149187424966254 -0.09721238208695517
Ni 4.236846097670959 7.0978895727797875 5.941194319169538 -0.4433615433527719 -2.0749977505721877 0.2774130322416835
Ni 0.8685758644296604 7.4195926891260875 11.438025046781604 0.003487958548600445 -0.4682007138836388 0.11646685944119298
P 0.0660381650876967 5.376526245615431 7.966714385956466 0.2987809563944983 0.22054125875530406 0.030308164065238126
P 8.490857031051194 1.6685338774800569 8.029963603486987 -0.9244802508496595 -0.5284884550301027 -0.2702795065206958
P 1.889331572344663 3.200218103157107 10.113913564777917 -0.8231322493277761 -0.1566611722718915 0.887721188952755
P 4.188571688466523 6.07400667172742 3.694825144189814 0.20091937075931848 0.8222999832344676 1.3055804742693642
P 7.004840468640596 3.91563907484227 10.5397945158457 -0.3015752313101838 0.39311961647808424 -0.7133911386461907
P 6.2519599264348775 7.8280580517611495 10.167405975799385 -0.056941450382050326 -0.25475338586063867 0.32816532309388646
P 2.1972703485478435 8.326830474365346 5.8921243563605 0.5675900490172547 0.6639627088117339 -1.3268712653273407
P 6.919250807029818 3.9946442224920546 1.5265302650231982 -0.20525476490987876 1.1715666070833437 0.6098587278784788
Ni 5.320142962368621 2.9351598466396296 0.38611770264909284 -0.19137620715557363 0.5688416620361687 0.6155205541499464
Ni 1.376316755844016 0.9766547981759806 6.993987746451737 -0.7668744552763115 0.6436890461643623 -0.2287379356334835
Ni 6.680512566592039 0.8843832078771143 9.321295029823492 0.11516716679316295 -0.5350319125755754 -0.0759591291351337
Ni 2.508393143145861 1.272182216556795 9.235947101054023 0.2888541841990896 0.5449345164012679 -0.4363822838214614
Ni 6.396494517819756 2.124795595566222 2.5702938882966975 0.21447885461130803 -0.5191445519213574 0.5360045609014897
Ni 4.061824304658466 7.11610973469925 10.181690763141887 0.9252778070502903 -1.615020967260238 0.33966638175495045
Ni 8.215146293728328 7.137279398077951 0.2571207602357312 -0.30455745386695937 0.011217980203006486 0.2679508583875192
Ni 7.462987342093677 3.8350915273468273 8.310429622673189 0.4909614046189222 -0.8138690788582951 -0.22034148403967213
Ni 3.225004739273285 8.469615208615386 12.446765369700115 -0.013936407575434065 -0.4851504543640999 -0.06780153302500581
Ni 0.15947151620598218 4.953024739455744 10.317402105819035 -0.44841273262343423 -1.6779975680927746 -0.35365781093803605
Ni 8.554167583780254 2.3820787136804435 5.687487584323171 -0.5859819212608812 -0.0422805059357659 0.6650317735061966
Ni 3.4234782258454817 2.7319238622983857 11.594648084208297 0.16295548992103548 -0.7492102052273291 -0.17952753534710372
Ni 1.0616130680370748 3.5443807260278906 12.482172015045984 0.03181868717249359 -1.1649491017668259 -0.326005082217774
Ni 2.9526223384594705 8.274930072541295 7.8684562998823795 1.024776414068261 -0.5321252804517416 0.9017493849110471
Ni 5.738223519363162 7.7581810248353715 3.64791995309398 -0.9397070951017429 0.3471585763669376 -1.0705510492002142
Ni 3.2213156074787013 8.161802710762142 3.95531753636886 0.2771903747079162 0.5495627592018987 -1.812138704885279
Ni 3.3669506244844585 4.320289027332811 8.967454975406476 -0.6308672118093457 0.5452672171503384 0.2950610843407499
Ni 7.234576866704304 6.0820884861233795 11.300636908014939 0.15683317907338148 -0.07921003197226358 0.9953493670563954
Ni 0.6669012216865645 9.001661976427945 0.3353339622337692 0.05734485646805607 -0.6285920426219238 0.6456551687517977
Ni 4.813288725368465 0.49265423654975554 1.5820422276554436 -0.9030981856294575 -1.0532534384620311 0.7516450399210669
Ni 5.793975410860288 5.553306915644902 0.21498889076751043 2.0937809447169617 -0.9445099158070249 0.5778567210505854
Ni 7.887923009513361 8.710996274519701 11.289613710053665 -0.23918381355715584 0.6381195224963849 0.7093570777861332
Ni 0.047353479238110056 4.863394170646986 5.796439642660483 0.2119584021822995 -0.4882694596090559 -0.015358998954573547
Ni 7.99594511800221 8.765277925228276 2.4559695881577857 -0.3723643862086039 0.17339853963123042 0.1872030496144905
P 8.52231837994975 1.7786576185071403 3.584751012514492 -0.6476272048765039 -0.4852597262484546 -0.399297463154022
P 1.685960289771344 3.3264513536832787 1.3786601212235585 1.020817686530829 -0.0844820790044803 0.5726350676403299
P 4.6207683610075785 0.9864594100603642 8.301478291639093 0.008997575512919988 1.0339375117422387 -0.567674638311261
P 8.623864213063264 1.5464497727375246 12.516324896774622 -0.7613553252302953 0.7246736535385455 -0.885527780845862
P 6.360965202076804 7.675477725508864 1.365999814654174 0.7087700949344117 0.450731867674914 0.4987770440085991
P 1.600199250399937 3.020695388957578 5.822855269490847 1.3608121410491596 0.6269025707346428 -0.008503409485320839
P 6.81755163591995 4.0180598365232045 5.904005345113132 1.0325249476654281 -1.1112076463793121 0.8911749518293104
P 2.3283292360180314 8.262148899551256 10.078943481727544 -1.2666855969763797 1.88391336362542 0.6830045559345334
