# total energy = -340870.5282306023 ev
CRYSTAL
PRIMVEC
9.23564228524540 0.00000000000000 0.00000000000000

0.00000000000000 9.23564228524540 0.00000000000000

0.00000000000000 0.00000000000000 13.51729603748533

PRIMCOORD
 96 1
Ni 0.8253256445736886 1.345679290922196 3.3886375844973387 -0.02364463600213347 -1.0882268692134227 -1.879319316496834
Ni 8.278349686417958 7.023844658286908 11.773916616252574 0.2556000501316501 -0.33352067386852885 -1.3145963046147295
Ni 2.904046193049548 7.6619721413998985 3.366671532367835 0.7692804936146429 -0.7857016152851437 0.42736182549040597
Ni 7.343517952248611 2.343867532663186 13.001557007470447 -1.4920533305860497 0.08860227182044095 0.8787187283438286
Ni 6.784364448180099 1.8078400774225742 9.073688123348152 0.5472693351820317 -1.409049635899309 0.053673064043423695
Ni 4.1601397516911405 5.606995506235399 12.585806248112673 -2.8337711740079192 -1.019631636642528 -0.08159730125751755
Ni 0.3486334981588463 8.28611686176311 5.3529035861243495 1.1422359764400263 -1.5518571901175597 0.5655395942461292
Ni 0.3683562127243338 1.4043256208172301 8.897043530575809 -0.35668914156519216 -0.40628032222975835 0.09859640691867536
Ni 7.280909531719723 1.1998115532273663 2.915140046824338 1.112193150221033 -0.5224890429135582 0.3243456922374801
Ni 1.7615695084817677 0.435852135265891 12.954233575284281 1.3545990702599122 -0.2348129381829698 1.3451281546549996
Ni 2.805788192458482 0.3301649838452873 4.739772369446149 1.1607309499204201 0.42238442688047256 -2.323457847224947
Ni 7.938145559171741 0.730727729106623 6.86114957995133 4.7042698068893305 1.6486677087804058 4.405635660485341
Ni 1.3731183847990696 1.010822600685306 6.256075537792881 -0.7643316342497999 1.7037384245023046 0.8883716780525603
Ni 0.9114766414073686 3.686757659549429 2.2268528657124627 0.12583390247838974 -0.1269047669450653 -1.1693374606425087
Ni 2.746578488370756 5.4845401222860675 10.495031339041695 0.052904561308515334 1.7802912213573792 -0.06966789680978325
Ni 6.242601658945028 5.91299081364993 12.594078613102749 2.4967666553558483 -0.7671850445381949 -1.5475058551273995
Ni 4.467289514418566 2.653123021881331 9.47428688761525 -0.07032069990243374 -2.8411109022024426 0.041920037272553605
Ni 1.395274691164138 7.592815650336274 9.47584124624853 0.009113018044861724 -1.0624487318080542 -0.28847391804153544
Ni 8.95008567259993 5.80702105156873 0.3576807335549369 0.4993406298215529 0.05961385500789088 0.40419670022785226
Ni 6.286240069772435 8.845806033096807 7.542380730190795 -2.5164538493721307 -3.0741207257384024 1.6870367954769077
Ni 7.899272739875962 1.898173896745933 5.088518542443533 0.28005998294622736 3.1763339034740588 -1.5335321665561268
Ni 4.425590588516821 1.567131526862846 3.3580343594988844 2.847385679467561 -2.2368664351869474 0.4950075496638378
Ni 4.613397378818478 4.741772809612332 4.339809017383267 -0.9726856069102926 -1.2394558147261492 -0.17604034812945166
Ni 3.9631896753113605 3.2182519866493835 11.639648845541707 -0.668651629646971 0.3716524477432438 0.6552407555577038
P 4.972202090066049 8.866540050516388 5.296022187511668 -1.096937509613543 0.2801288885109498 -0.4995650871275332
P 4.002136379747165 5.842624453418392 6.66156734545815 -0.26444901588184777 -0.3735085271153761 -0.518004010559011
P 4.797103543848733 4.880926235207367 10.271360701771789 1.1667774132248163 -0.10017377870812426 0.442818012144476
P 4.688630922649178 0.7393852203890805 8.3990798523477 0.3179421027039815 0.33143345232219695 0.03963381234153819
P 1.5242689100057039 2.0067758169405323 11.522021855493024 0.9350973642438735 0.8883472525725281 -0.44083260628333115
P 5.829482134136403 2.9005181776133426 4.472129914654469 0.14373160869441695 -0.6018003763503764 0.08910492248847234
P 7.898127520205571 4.676412167617504 12.042113209594442 1.5056948326288844 -0.43754622222257544 -0.14296053485634733
P 8.806046592120724 8.871157871767966 3.5056300859060543 -0.9646889618580612 -0.7955764511966943 -1.161451887246845
Ni 7.01530168897149 4.602000595969584 5.3907115358395155 0.6571762820175198 -0.468480964128219 -0.8673801634025576
Ni 5.830932130009399 7.0575824603509325 0.8033614395726855 -0.2860604235040364 1.684306798140254 2.4293960392206744
Ni 0.665140813870468 9.256145629511982 10.943116082803016 -1.5717557288136996 -0.1323472781168753 -0.09541749497006147
Ni 6.04934583956651 0.956055240641597 11.332603445574568 -0.7712484159742911 0.4013983115471087 -0.133614317754757
Ni 5.1345646852715126 3.9174917162057503 6.539600526997235 -1.2705713051840313 0.11929533002892358 -0.19395090986128533
Ni 2.772595293302143 5.150514639874461 2.930793537302935 -0.2817592250255212 1.0694411039654872 0.05058696891893223
Ni 6.173953128219077 3.9865004369893238 8.504217483039367 -0.181463576027552 -0.02515181667527926 1.615707451804301
Ni 3.6186170891611518 2.2252911185651794 5.660881785984308 0.4798084733258962 0.5932380886026623 1.8763604909788267
Ni 5.703923574306011 8.80843862352904 3.181038812311421 -0.10259987165111363 -2.0378692211510065 0.22140334964528322
Ni 3.1174818912974596 6.778074975635451 0.9481042760106309 -0.016291023850539686 0.1060225241794174 1.3820437967344263
Ni 7.827502561983944 3.0010296749751784 1.7050852424967224 0.702050516822391 1.222115523675489 -0.3003102485548312
Ni 3.570850346134834 4.41683519942383 8.519046230642433 -0.773327667100823 1.4250629806084296 -2.3756242448158575
Ni 6.01758446499816 4.433634833137069 2.3357346258749074 0.32448890268356373 1.1302091271824795 1.2533701108143962
Ni 2.790235370483169 2.773629685262496 3.603292387555667 -3.1793405515108666 2.8824817518397454 0.1384341077409035
Ni 9.500336017295398 4.765083571290295 4.393161476995493 -0.9670782880258441 -0.1762825460472448 0.13176903701590212
Ni 2.2792549777111137 4.234560558981563 5.580967618533008 0.6947506407268681 0.6935609912941411 0.6003227633635854
Ni 5.905038925454714 7.771737752549894 10.802225432853136 -0.11305192022237304 0.19648164670293902 -0.13087352178482622
Ni 3.52013743315001 3.52136577360293 1.315519376763893 -0.02210505942915548 0.3183807329032968 -0.40430442945031014
Ni 0.8310683670821504 5.07273205871289 11.736689588450856 -0.5885625375038637 -0.34418226734743307 -0.7450663582622845
Ni 8.674614163658326 2.3505171952654575 11.11270464470295 -0.18598563226762163 -0.9742246692626383 -0.7973230015741558
Ni 0.6027198768843945 3.2367140360131903 7.39898999181531 0.3663611174373174 1.0806868520826356 -1.677357877626247
Ni 8.036874577530469 5.185951800159067 7.520050793746666 1.1957555456247213 0.8900914889571445 -0.04266617140995878
Ni 4.194976595213041 8.15657774001386 12.839958199899995 0.15333159367802626 0.11532528963758203 -1.581682243898792
Ni 8.14724050544317 8.118600778040886 1.6099507362002237 -0.26194938938844564 -0.2214843393948637 -0.7700276561933126
P 8.422795135167302 5.063053105369584 2.3864650865804875 -0.6860667397996248 0.23574393463767143 0.5558545057478814
P 7.686271116825698 9.050403221469198 9.997175717830874 0.011456578576373817 0.0977847096506574 0.5437939750389216
P 2.467107946225286 2.2343974620732903 7.8110372585293195 0.997927669306533 0.5864604035591965 0.5223643444102359
P 2.119506069334042 4.998412843490002 0.33270755622640585 -0.8952023278211486 -0.604562769586862 -0.28890946291705727
P 1.7597777938361556 6.345071112517532 4.839002883192797 -0.18418971670946344 -0.3907721992918302 -0.4930347422081831
P 0.748027934643533 8.757540997694154 7.605196029111752 0.3143826674874973 -0.6837414341005579 0.6783498307713414
P 3.524699840546569 7.740419688821697 10.535839949006135 0.24800141184878577 -0.8855138968887911 0.05127988122089878
P 5.57025612035785 4.029381525131472 0.33761352952408175 -0.6541999729980154 -0.5106588830478496 -1.3100469946811504
Ni 3.4363055061488725 0.558691721943354 11.066664966824721 0.5005266797098542 1.6399493550708015 1.9170548833743952
Ni 2.6243447598414997 0.24804442139998417 9.055966772513099 -0.23261155965627683 0.9848826631971168 -2.648731964813967
Ni 6.944021000132139 5.70746082538472 10.108612980273941 -0.08517396286518235 -0.3207952558820604 0.17457790465131223
Ni 7.698415986717348 6.693458019021545 4.076735434937899 1.785004310562332 -0.3025391378853499 -1.8653533412350454
Ni 1.1945195300730587 6.148241099490294 7.069180580206395 -0.007815382279360733 0.1270312652206006 0.17809543088626748
Ni 3.74401864306899 7.352374933409137 8.195550304248673 -0.13718917959020888 0.4867483949788391 1.4035767857101957
Ni 2.708647704610298 7.8502037712567 6.083539882370191 0.6021431044017759 -1.2578793115386593 0.8540147978392453
Ni 8.565181035638442 3.842378235727591 9.309713279594531 -0.5653881562699294 0.24964897475453776 1.3501171232291587
Ni 6.424525344972175 3.4287692218662977 11.071354826087823 -0.5784632442863328 0.14089362502498962 -0.6535566829870615
Ni 0.3099980348753981 3.244268791580771 13.100369146611703 0.5946982180879564 0.2540306487620012 1.2871106975999511
Ni 5.751468661912253 1.3915250203078573 6.338138839254665 -0.8183227437542745 1.5512951469665026 -0.4804887872223725
Ni 1.6183616358278468 3.4916085334577645 9.72442410560645 0.7246433145212423 -0.8079326587692022 0.4736347404150166
Ni 1.880884773980027 7.047968156505148 12.345495753744832 0.6985977823871001 0.7853488599314152 -0.38668697347886305
Ni 5.8075659544764155 6.1861257050382354 7.992155596530192 0.18458592370661758 0.965740285940711 -0.9482362156186765
Ni 7.331410024926975 8.855401865657585 5.1947912335988375 -2.6094851034982023 -2.1057214049082895 -2.428734237266959
Ni 3.8506349001254114 1.654362170305145 13.350343817294847 0.27390604752968956 -1.0941105816877092 0.0802757542326166
Ni 5.594019428518466 2.057599557635394 1.514910433457257 0.40205548551513337 -0.07553052623814734 -1.547759108788786
Ni 0.6543378828345277 6.716768780699508 2.969899094789794 -0.09651278491676928 0.45125071629286156 -0.4416347904696523
Ni 5.593123571195661 6.698593036253299 4.789516463532391 -1.4004919761372847 1.595196476335143 1.3843552184764223
Ni 1.3632731898907062 8.709515656677748 1.7419603923190692 0.5236632657273176 0.21969999380093133 -0.222722582677339
Ni 4.0098666125223055 8.91747461892129 1.577373854398845 -0.3646323076716688 1.0645212980663668 -0.05593152106029723
Ni -0.09551224407487784 1.1986201553444593 0.7813602920016697 -0.307035997314439 -0.16752896822433083 0.7349143574299473
Ni 8.212822802858073 7.618278316717472 8.074516285680577 0.26506942307466613 -0.36506219612023577 0.9256932973211541
Ni 7.6171330970470805 -0.14920734602397054 12.7354698348763 -0.5420479388820922 0.5244857616286128 -0.095732455107319
P 7.6603004901068275 3.088057134282408 7.314803416142052 -0.10878543163653523 -2.010675177234718 -0.829890651097532
P 0.7623801230934358 2.6823907729738288 4.885366732122885 0.27113516965277173 2.1881306605441413 1.774406480441828
P 5.756446673221453 0.2458287907634773 0.2142271928104319 -0.17351809592823023 0.17871300986560834 -0.45439388990753354
P 4.842838445524357 6.464487970083326 2.703797145167641 -0.7639323419288521 -0.029710896800871415 -0.39184074976566063
P 2.636286445598079 1.4639047506050828 1.881999516030158 -0.42630150254669164 -0.7421072756339607 -1.0285744476581125
P 0.2124086948015607 8.150352916966733 13.1823243910562 0.5321095967224578 -0.06533095999732619 1.5033633562822304
P 0.7302077624336955 5.6348594396674185 9.151642487460283 -0.637901750058624 -2.019219724370619 0.3086694191528039
P 7.3846627396001665 6.685016641773661 6.184406028404148 -0.057360540197339924 0.820834968653167 0.5909747464897823
