# total energy = -381167.1898146255 ev
CRYSTAL
PRIMVEC
9.20801410314700 0.00000000000000 0.00000000000000

0.00000000000000 9.20801410314700 0.00000000000000

0.00000000000000 0.00000000000000 13.47685940028122

PRIMCOORD
 96 1
Ni 6.477469641772218 8.617992237705597 8.022895777700167 -0.11974373042025183 -1.4639195484643113 -0.22858135545096117
Ni 2.726879729698502 4.304295427623553 6.754089436788861 2.7170027241659076 -1.7889537821283836 2.036396750370538
Ni 2.7988219443392293 5.513896999883192 0.3382600834139242 1.1880664045105798 -0.6695376317963502 2.226851474153107
Ni 7.4935463804078735 8.741830820158324 3.5699526150696186 2.630540381506605 -0.6104413398548261 0.7043233720169677
Ni 4.264654926659989 2.9011137736549655 5.277254719148412 0.17957021565958106 -0.16264952864484244 -0.5171303497048062
Ni 3.450574394676533 2.6286210105853307 3.2583405246379376 -0.4252177825642096 -0.2815972455263602 -1.2540504247108726
Ni 0.3109260933766786 1.7382336652487826 9.392939630305765 1.0451002132272775 0.8617288786540513 0.5224633318819454
Ni 6.014214449326933 9.028163228512101 5.480149627982736 -1.6689652826871773 -1.2825066231690365 -0.783458841997554
Ni 2.6933257260954284 6.485011005370164 7.897709141974256 1.3334008389157421 1.2143970719853086 -0.5884712633416381
Ni 4.116728179161807 5.295842016534022 3.038425522428223 1.1773968406118756 -0.17468923341819595 -0.335700455128667
Ni 3.9372271511051906 1.0433048365100495 6.746974404246574 0.7971635931781562 -0.8740560327608365 1.0557471514181624
Ni 0.5933082636553421 0.04049684628054789 2.024466627049621 -0.9028580445941935 1.4227235338419755 -2.4084346064776585
Ni 6.067685387560481 4.06533825212867 3.6303829704061306 -0.6337931272068892 0.24548918694989333 -1.3056151841620418
Ni 2.966720874552852 0.9657733572735299 10.123452829770095 0.9649231893560544 0.27678131219495555 1.4867504303158974
Ni 4.39319880434904 3.3536140055600776 1.1040059074628978 0.3789371543301151 -0.044540248504220066 -0.19894553486239933
Ni 5.628886680727095 5.758544728129641 8.117449191914911 -1.0346144832046054 -0.7591565178067635 1.5128211592610203
Ni 8.62982453590262 5.912143612351064 4.389265140699416 0.39859478066004256 0.1743300503065643 0.5201066587243107
Ni 2.484018356199309 2.4455748970766877 8.449950583272479 0.5151251463493193 0.6907389484643136 -1.2172754219743682
Ni 2.267353782988465 4.317499719930581 11.977868613696643 -0.8869768545875628 -1.4653740215226505 -0.6983900372516681
Ni 3.788048113681098 0.4550545350334034 4.425867917791232 0.04055940947960111 0.2427766731147367 -0.04989199973443666
Ni 6.465186150881301 6.6082971069732235 3.408876823349377 0.6285827866505433 -2.0763828038451724 0.08650270897893489
Ni 6.687900389395993 2.1884595176561015 4.682965801984912 0.37060523742565205 -0.7153544330201487 0.9868793819121714
Ni 0.48568867734598975 0.350354810014538 12.950170453010399 0.9814960061130709 0.2874632173888339 0.3626787834897238
Ni 8.878173885841832 3.4711358902982843 4.573197065170357 0.5115816519724351 -1.5723594238359695 -1.5761559147639244
P 6.614945293197542 3.2447752781757946 1.4857968778234547 -0.856209748608035 -0.5579296431093552 -0.4515160541391062
Ni 6.627891761108059 6.465536055419424 12.361393453123737 -1.5057007461661553 -0.8900081852147187 0.46474849366898024
P 7.355370919906305 4.169158611795149 7.810500039854414 -0.5377637096844415 -0.8714651321052088 0.9720371746930163
Ni 4.666796529118008 5.1806957994493805 5.68375723711313 0.052376199608871084 0.081568247791795 -0.6572732126067004
P 0.8748027813688749 6.834169694345174 5.745158117142223 0.7524760204627945 -0.5896956226670425 0.3865617607549085
P 1.443337803725175 1.8613171905402977 11.272907653529385 1.1520241661750417 0.040656854289413846 1.601276878201268
P 8.732503101813121 0.7779455220110242 5.181434282185101 0.260042659284036 0.3886525818456661 -0.4570364697367032
Ni 8.62742124420657 7.199359535974672 11.48070767150733 0.2874390490191179 0.8090114936556777 0.3142075753622137
Ni 0.7392120104423282 8.197913423661742 3.8666587721773 0.03603555346731859 -1.907349483161173 2.9185538149719545
Ni 3.1038097893834107 8.872271548764562 12.590203397013081 -0.6560287986766379 -0.06534330129250036 0.42002286862683147
Ni 6.069563822449346 5.496760885529373 1.136660288082431 -0.595292914249162 -0.6459819559635971 0.21482235399365582
Ni 8.724271137153092 0.28140704157900226 8.110239316826762 -0.7640786376987292 -1.2647438998689766 -1.202381278471355
Ni 7.175630483481499 4.534394493495452 5.620901490846583 -0.5064762124250697 -0.9040780330442236 1.193165930520674
Ni 5.957990314859214 0.8361512211262127 2.886716122712659 -2.522086107957244 1.2105345037061088 -1.4477051434879777
Ni 4.408806388352116 8.540212142086727 9.050398741108342 -0.987664339707312 1.7407126877338084 -3.6468195567371327
Ni 1.071103831262431 6.020098370375879 9.840479504982289 1.7847464289152553 -0.22432617971903301 0.36972026371753747
Ni 1.4057322738912146 7.528693370460819 0.6893616633769281 0.056820094312837625 -0.0038062611199676383 -0.35349377455634606
Ni 0.1922108500031925 3.5627556312012976 10.830799586406497 1.2868620719242547 2.862115529478568 -0.08576685925417488
Ni 0.5137095852396539 5.254479616922329 0.9503517751565081 1.2172936768068132 -0.9744807511375024 -1.1840153743696578
Ni 7.30224988621088 0.3183155247409668 10.095744994357908 0.16723817645678937 -0.17621672580631587 -0.08665234718292174
Ni 8.831783910498176 6.878745690899093 2.2769420881344256 -1.301507075530939 0.866522700498269 -0.7128033844635209
Ni 5.934868991300675 4.80341583522635 10.406238311069016 1.0692220459761457 -0.6825900941049342 -0.3567259083403986
Ni 1.5594784863392157 1.0938936663111705 3.7916604176365007 0.10507404422321905 -0.16326942161702848 2.0982695766159347
Ni 3.7757369987476985 2.1021712169523696 12.184980793016756 1.1647881507089293 0.08494950555920208 0.09584764052894461
Ni 0.7230510247881696 7.609806767206009 8.10522555311604 0.7094491232793072 0.08444505511895779 -0.4068904450099315
Ni 6.366715647442425 6.543739719689704 6.2340585498276075 0.17062791886462872 2.1889253885312945 -1.1206633924755731
Ni 8.097186956753394 5.502948671045637 9.808647400027343 -1.2890431387359738 -1.3272042231867272 0.21438603778718562
Ni 0.6685543137770749 4.405390215098346 6.32455583380438 -1.3738872290655628 0.84978533313893 -3.849532271951448
Ni 6.827401803936761 8.898007948344857 12.369210136345101 1.5173131335941028 -1.7653659675061146 0.09196141810066098
Ni 8.438988442413681 1.850580646028447 11.772387173684464 -0.09950297789334477 -2.1112639319930735 -0.197581307525021
Ni 0.7435664803391157 4.089647409513992 8.357728638243328 -0.18834281964588853 -0.8452974725709054 3.281098129766343
Ni 8.133788813043793 4.442885248762373 2.3198523549265997 0.13649395329539718 0.8202341018443744 0.9864890884522881
P 5.07337639440168 8.051432334386854 3.6168389023765584 -1.183652077492968 1.0056425214522875 -0.12163117725095181
Ni 6.376024949759304 7.956884444980609 1.3214550034802683 0.8248194072222117 -0.2560829033053396 -0.04242345927153339
P 8.098135382211987 7.509107924340145 9.148954879078918 -0.9782625867774379 0.9527029931407784 0.7314937617841725
Ni 3.8080295044107 7.597412780145159 1.2484050647359595 1.153670443529213 -0.440790440191486 0.47631074458528294
P 4.2288725836299275 6.780910540437333 12.707627676801179 0.6801231206216802 -0.07088017195032954 -0.534823138998879
P 4.48820709446334 7.774151403953444 7.08322161576488 0.4423433865009027 -0.4374559765016144 -1.6123457344209198
P 3.30355003256614 0.45477461140290576 1.4487355416264158 -1.3056591500260997 1.4719591309393358 0.08455612677552533
Ni 7.469725247773091 1.019916480540838 0.6374072850757149 0.24257792684036933 1.1058749213124888 0.8650098633981683
Ni 2.485629758677503 4.876370931424799 4.780390275015087 -1.4041529699286397 0.7134078508167392 -2.9190484952201854
Ni 4.632008651617346 4.548123642609663 12.275370343227845 0.29548865879647174 0.010844913134303902 1.8106058131805205
Ni 1.1407072103062377 2.4370943160343086 2.193911582840893 -0.5845935255537867 2.3681729307441346 -0.25979017695359774
Ni 2.117244736134101 0.16587777110525917 8.25371398947805 0.3489619481242635 -0.1899836976834212 0.22503014776459307
Ni -0.027144304945526852 2.922605278706989 0.10546583179706942 -0.6994963829419696 1.505394527779646 1.1860704571264735
Ni 1.979060067618371 2.0320982291863463 5.908551566026816 -0.4038871394072335 1.265302343475608 -0.021996558875749212
Ni 5.253457527350447 3.2284955091389578 7.225119876391784 0.9955506844339242 0.5251496204648569 1.271378888686991
Ni 8.65452963789687 5.905403345985134 7.4550614852215285 -1.745534534602484 0.34931290370577905 -0.4676749232871558
Ni 3.07119500322477 7.6875131987115894 10.42164239795913 -0.6664787903653684 1.3811750209762277 -0.672732484584564
Ni 0.9935171039409448 8.840706476220289 10.808913057546961 0.054062843282674626 0.02052383098496465 -1.2492874561045904
Ni 1.6325440787075984 8.94937025133551 6.117213454130242 -0.572615270145988 -0.7656763212031522 -1.1452295118507116
Ni 4.964196970493436 9.202691928921721 11.081738229927813 -0.04355551599344757 1.956959689989133 1.3802854192824228
Ni 8.088448551314505 2.0707258485921893 2.7102371649037176 -0.11374277564181055 -0.5115901366128672 0.1557000939102028
Ni 5.215925661629775 1.6428386385397158 9.053053411590989 0.3695863092428345 -0.2768777285635038 0.000903742761191992
Ni 6.981258512554695 3.756630369363402 12.720780404228904 -0.14072676042982216 0.2809159031886194 -0.059689445440832684
Ni 3.243633484419818 7.303271975782763 5.01591194042646 0.3632567674803809 -0.14535731722329803 0.35614355347436727
Ni 3.8527067891203908 5.636308340140947 10.377020361334408 -0.6710836361272313 0.7092179811051077 0.12050940494168277
Ni 3.932890176435309 3.3356767939742418 10.182495537372528 0.2795884426264475 -0.7894148024706726 0.29864185971347273
Ni 6.881683047416486 1.2888181180876412 6.841729473971443 -1.5974755021773068 1.168367897640388 1.116939920877399
Ni 5.748204128226717 7.2705651094825114 10.16589164623722 2.2865064668115784 -1.6523276741304962 0.7919805063153199
Ni 8.788082675289562 2.248900922609607 6.9344099781058155 1.9825511653049919 1.987880290827389 -0.3253386522783687
Ni 7.453638847033638 2.8628728908438887 9.943294349502375 -2.07228729361956 0.4773661824329907 -1.763155590118357
Ni 2.0185072002845525 6.721629345268126 11.985415502103086 -1.8490679738114608 -0.7497843325632442 1.0536756136011143
Ni 8.121717106478583 7.988928334261261 6.098171280845072 1.4610489117847354 0.8844828845211153 -0.46376041872409807
P 2.176332563005924 4.327656159550282 2.6089444051244612 0.11026741549870042 0.473253702926514 -0.8068818489071846
Ni 2.2685876568860532 6.593849732754448 2.770964018296217 -1.8435046207910704 0.06276371349078223 0.1635357879045377
P 3.063266903032057 4.615139569674199 8.75126627226921 -0.6750243659425342 -0.8592518778684685 0.6440186615896392
Ni 5.073201442132619 0.5131736788154776 0.2778242032689156 -0.052309608036993784 1.1673782800336088 0.04360051029877007
P -0.05040098631223441 5.2242957465022215 12.194791932105415 0.2799977622497242 -0.20156471765280126 0.36379978446804445
P 8.481658380036249 8.15695617667314 0.3726879275608866 -1.5641372930364934 -1.0539414656679915 0.5528182900247189
P 6.42657694750378 1.7448910594872629 11.880849293289558 -3.003244667553131 0.03158574522608109 -0.49822554238050326
Ni 2.005201619821753 2.0579082928799286 0.17481414884861335 2.070876272204646 -1.0072643733264266 -0.4747071475435889
