# total energy = -340863.9251083022 ev
CRYSTAL
PRIMVEC
9.26739376673566 0.00000000000000 0.00000000000000

0.00000000000000 9.26739376673566 0.00000000000000

0.00000000000000 0.00000000000000 13.56376754013769

PRIMCOORD
 96 1
Ni 0.032074449473988395 6.729749594560394 1.7033376882027138 -2.6746936789850513 0.7989949899599401 -0.3483644237495807
Ni 2.2349246562112226 3.3559920004524537 10.015879347870502 0.6753344409837854 -1.0912162908590497 1.7551322055932481
Ni 1.3875512490735158 1.226678562445673 10.217788980385594 -0.31317759143580254 0.23786740873857748 1.6055852757686349
Ni 6.267195441961229 1.2812079067695528 5.904077643167628 -0.6225435224349988 0.08548249524453666 2.070440984439441
Ni 4.633993389013974 4.869311048951424 5.915186467953664 0.6051155567665385 -0.1683949157690519 1.7732800801468684
Ni 2.160729902530566 6.853117139026656 1.7889387500060472 1.8991018984404002 1.0451161540668774 -0.1223379735099893
Ni 3.695419560820642 2.1422785217438833 5.143434993120997 1.6795803391988622 0.03550796309862272 1.311066179974284
Ni 6.818688771561799 5.132894259566616 0.36832236707577215 -0.17632908301446404 -0.8772100050087861 -1.337126624506762
Ni 4.720245021852579 1.3668849612009373 12.591746783314111 1.6754064103268307 1.446501867208496 2.5794127095928547
Ni 7.255006932695821 5.656993173493939 5.105103199444513 -0.600959625616636 1.3911940957751265 1.3276842481469393
Ni 7.2198927780997675 7.219966917249086 11.036213829932459 0.025771195426833034 0.2141404974352828 1.034207991794806
Ni 1.2993441961716314 1.4931068629159683 3.8490988964858412 -0.8507926913575218 2.1107363416243774 0.1270783164084521
Ni 1.0103127225528075 7.927736306219742 11.081489681682005 0.24461372632347547 -0.07326898389748027 0.3730634691581575
Ni 4.3762208342266335 6.208208481284564 8.04001819438413 -1.8497979099989499 1.2735077621045356 -0.3908755576389139
Ni 8.96592534891637 1.9862063450344238 8.436134401800105 0.2162187201205502 -0.6363832565315686 0.9292118519973739
Ni 8.668321536157574 8.440260245459688 8.01511485412799 -1.2965548737319865 0.11720887981354007 0.044524050554303966
Ni 4.056986924654117 8.837794364106383 8.871829794079849 0.6762906342494674 -0.6416671306383271 2.2552565076583613
Ni 2.2938282103449037 3.937131722386827 5.025931855365842 -1.509711152877129 -0.13555755752405688 -0.27845664301484946
Ni 2.627408045310582 4.430750178550513 7.543774285595197 -0.17331754988164988 1.1371539339314285 -1.8782335396318235
Ni 4.963949673056702 5.94755376706746 12.429700844648302 0.7029650582168603 0.7508042891873263 0.8729139487365934
Ni 4.471610117218764 3.5045390535060683 8.921608672411136 0.24589336436684744 0.11784805605943575 1.2152092834739587
Ni 8.795099481492494 6.075870099750744 12.472683943205165 -0.8282238049180706 0.8476518317356949 2.639613547452467
Ni 8.104882536123032 2.6596956448388616 10.838738645285991 0.30223446216073757 -1.6440721189899234 0.8601481644304929
Ni 0.4346833928915446 5.069486752111825 10.888016157620008 -1.936329415333291 -2.8055962542356 2.271005542962502
P 5.195847664731829 0.5348982077649536 1.6423415565795134 0.4239134619304893 0.6106424001220387 -0.9357820490157238
P 2.8798611161343084 2.8251000869688077 12.864229472065643 0.20652180454776045 0.9712969540928821 0.05408469765954556
P 1.9497206161759746 1.1775335738410615 5.895965893492799 -1.5475287379455347 -0.6045378298861975 1.2263514161337075
P 8.171579968328839 1.9952976582196253 4.978648686148495 -1.3515808522588786 2.7439710252246354 -2.0950251015367076
P 6.096981222519235 9.055420569537665 7.810098791256446 -0.3393491076248478 0.3060440657148149 -0.12689911051811048
P 0.24430332483487213 4.094028697132456 8.978250982490596 1.3994871890218543 -1.917580159750246 -0.7892175988582021
P 3.6037187005071156 1.6550731019962617 10.273794620520281 -1.1743390276221584 0.7291121489258734 -1.469800175614804
P 1.664396100023084 5.777256141082481 5.770148976880922 0.04255561397402348 -0.022699498480044777 0.6007056006243009
Ni 2.11046355929251 8.565740755681533 4.351663167754191 0.08213671870075531 0.3866520064758696 -1.1090119242795737
Ni 9.052853501492505 5.5348952619597585 7.468264488753502 -0.018312682266258786 -0.4518582679698735 -2.2024275367827877
Ni 4.6229188535844985 8.111842348765324 2.9535239214186033 -0.14763351485198448 0.08858504542926034 0.5923505437913863
Ni 5.4954810367032225 0.9968471995578045 10.492998136353316 0.9275144096902929 -0.3625083193501305 -2.2212680665280584
Ni 7.774926252080305 0.5445520517456105 1.6162177005777147 -0.8046555306798271 -0.8803403231076515 -0.8677408891760863
Ni 0.6739489625302133 1.762018824888439 1.3849693531984932 -0.016296937387810642 -0.34754938404745306 -0.4952682595243923
Ni 5.601527822409911 5.5400942698057305 9.973886006957041 0.8430886378450448 -2.035635960945114 1.7004268436305683
Ni 0.6237410038722454 2.9573457945659802 6.578725367180169 0.7535309440898701 -0.9173927478752587 0.41543602058709744
Ni 7.6915753134587925 5.142856707756311 2.5983705207405596 0.21437215383011465 -0.14493205676042137 1.1549068870394754
Ni 3.6473866594558104 8.213079357159963 0.5180806684813803 -2.3439145724174018 0.08728123901617227 -0.2997790586417095
Ni 7.962285149802241 2.635396538649668 2.7293558627993146 -1.2616979139538014 -0.024673848597596214 0.31174471564401796
Ni 6.511548810721891 7.199791801240743 8.922232368004778 0.8530634896695697 1.5922538487670514 -2.595167915544582
Ni 6.377060393857829 3.678265615147035 4.557208398803997 0.05422610833341628 -1.7067419872153187 -1.1985570196292583
Ni 4.791817103126087 6.156348146336156 1.5861607627045604 0.0013655128889589385 0.5618284639431292 -1.2444820642961472
Ni 6.9695712078189525 0.26474534178076164 11.986681431155239 0.969153682497634 0.5717490654909508 -0.30260058725090466
Ni 3.2146086427017555 0.16013036839528982 11.738857423467097 -0.8728725539756967 -2.759694092386847 -1.5281235939460458
Ni 5.330243407659243 5.905767089032727 3.7745519818459212 0.6256674127759612 0.9903380298847331 1.0330949612362854
Ni 3.49834843453796 6.9308983740556025 10.735328433076946 -0.15406101564488306 1.0222407921306007 -0.17306635310279225
Ni 5.5773121227637015 3.281584096717507 11.503431335023768 -0.4612160550356896 0.588648926570083 -0.11594775371292933
Ni 2.7468740170439494 3.2082141410730207 2.378664712170888 -1.9446009113134637 -0.09836449341352738 -1.2766429652994076
Ni 3.5481792102737693 0.002208419910329799 6.798838014331727 0.3832010718127916 0.5688732866050525 -2.0901171227121296
Ni 5.7666727775172415 7.5766410972275295 5.633751476921903 1.9283142583382984 1.1015693519585996 0.5111581912817712
Ni 2.4297252710460207 5.649579258562072 13.039405454075789 0.48261534664707206 -0.700055340769233 -0.840031853296592
Ni 3.5345746763737935 1.0149093498105648 3.071609978235277 0.3497404781615009 -0.0777442460600145 -1.0825586151840516
P 7.2697698908039 4.5505497764558145 11.471393955124439 0.7221740270451433 1.979021811995495 0.6385290992299777
P 8.781411541049536 0.20332847048517774 10.000945869718988 -0.8524009163849062 -0.2566128076668806 0.35556942613845216
P 5.792880966801391 4.03927693536062 2.1230690681554165 0.404639958412858 -0.27601589478384075 0.5015134691031556
P 1.2670473292496873 7.367930124501816 13.394858191569208 -0.5990171571782845 0.9466781271029373 -0.9243871769152209
P 3.1295988406142388 5.731947853455112 3.1738673266724153 0.7207830602348877 0.04667632101061639 1.0694840413882807
P 3.869655829113175 4.849339815603708 11.00077160960067 -1.6808088122893245 -1.535783938704781 -0.2628683016582892
P 4.7100694236085925 0.21753075127653493 4.740075390816589 0.1602460614096724 -1.5041452287535775 0.34234110037363624
P 6.171796891575434 5.17853617336592 7.8463278133103795 0.13873389836950947 0.05726772337321749 -1.320929445921609
Ni 9.21530164504337 6.700603641484492 4.290327849522858 1.6200464454992873 -0.7840440250770626 -1.1113400581921182
Ni 8.618954130105006 8.58395118423293 13.188363052668755 -0.1312635581343933 -1.5290607610483344 1.1346681913950976
Ni 3.619742024153613 7.3032993210832675 5.463892198657271 -1.0901125162719096 -2.179726495640846 -0.19967984192526256
Ni 7.485116317393635 3.9902246206926573 9.03977628229206 -1.4681862941604649 1.1748216236855313 0.8642591012750728
Ni 7.04927079333652 7.500694806144219 3.2667108566248158 0.3041599613182246 0.3980795315865209 0.3614446539723065
Ni 2.427769850982741 2.2240262012613785 7.923247180728498 1.4431023546086437 -1.2206271120554204 -0.22601590871663013
Ni 8.845514103029188 0.5707407795030632 6.1520499291544075 1.6193861862074692 -1.6960438840715242 0.6348359666491066
Ni 3.0170463445548372 1.2451762802006805 0.6161667630299771 -0.454088699962289 -0.6353373317655574 1.830841423501105
Ni 1.856629646812723 5.370195141748339 9.470547908317679 3.8724536566343115 3.193882968101416 -2.2056036205179246
Ni 9.096299042993245 4.2838619889629035 5.025185830175822 0.40553830185741124 0.3530312330976307 -2.47213214463662
Ni 0.8064643512830325 3.22991837703606 12.638623113949572 -0.3949348153099521 -1.0078590694876322 -1.2503752898521305
Ni 4.157389867618922 4.050610957812712 3.832455584203167 1.7024297329932103 -1.7485172713798918 -1.3222738757646453
Ni 1.6336468878431667 0.0992204235331723 8.363418724148357 -0.561915881450613 -1.6706089889381874 -1.612777679752016
Ni 6.4515795063167545 2.4472499124662206 0.5563559310565088 -0.9448963526121661 0.12918019324280333 0.1778799724413517
Ni 9.226765411006769 6.6916050022359395 9.364926495980205 -0.8642483026417953 1.135501228819354 0.8201040040244133
Ni 1.1840392841937744 0.5320392168193524 12.539310016479753 -0.7096352711481844 1.3200529568539265 1.6304786965762048
Ni 6.574140787534176 0.966450148337151 3.630315193585821 -0.8909355821249948 -0.977123330966672 -0.47138991024489785
Ni 9.058469542053395 8.858312373680324 3.5676370300124534 -0.10629454689388146 0.891939855019793 -0.6611488935120227
Ni 7.494967556859352 3.526484241704394 6.674580800073641 -0.6574997267952096 -0.16118271429132885 0.3535271988974428
Ni 5.737786311463957 8.168141765279186 0.1383380921924341 1.8886074266669797 0.5535230294012272 -0.7890553622487249
Ni 6.570526504004891 1.897202296277364 8.542704795248856 -0.824635830456496 -0.9221528882680635 -0.871559491591228
Ni 4.26408537088215 4.2197316248022565 0.5136341730009933 -0.25345986386019576 -1.9422663496430164 -0.8031131258933717
Ni 0.7682419128517937 4.53909527788608 0.9128568107734195 -0.1808915055741659 0.7998177429715515 0.9153926867260945
Ni 1.3044505300809548 7.79378539818824 6.330169235392504 -0.680414426609854 0.13967106547179817 1.4173391296016107
P 1.6779820991357297 9.093713440160757 2.269259423000064 -0.11534251602876264 0.42035094139021156 -0.15571809163233183
P 8.244468019502753 1.6515144228289655 13.220197476646826 1.462490015106636 -0.25707509201527984 -0.27975196478750536
P 4.877596098887785 2.776928174699004 7.004166388369775 0.4162538885027025 0.2099629690188255 -0.9618998291486982
P 5.154524356380337 8.231382459648009 11.465045790464027 0.3419736897318885 -0.6209327263044531 0.32131513294127245
P 2.200134860393438 7.369468511850179 9.019715155225795 0.17330083771110152 1.5251357149623153 -0.34752418723647244
P 0.49726239535269867 3.5616632680561016 2.777832672320692 1.8900680703729063 0.9353480468020988 0.6651359031842288
P 8.370875269091082 7.279732338993597 6.072240988391594 -1.2021179975076395 1.260941495403751 1.0568918065455668
P 7.148292894645264 7.0541917793725455 1.2060604650201516 1.1582094690501472 0.04910344239487027 -0.07219014901100469
