# total energy = -340888.7269322899 ev
CRYSTAL
PRIMVEC
9.09807090248157 0.00000000000000 0.00000000000000

0.00000000000000 9.09807090248157 0.00000000000000

0.00000000000000 0.00000000000000 13.31594641288769

PRIMCOORD
 96 1
Ni 6.80774059067002 2.109869893430576 11.454855880801832 -0.9148154740663859 0.5038338897062161 -0.8117198937257762
Ni 4.923784891207502 0.787342490793717 6.07694533880223 0.21855765266637198 -0.5683094436817826 0.4052367114565924
Ni 2.8961979493393732 1.7022126388243666 4.856684800057198 1.2359418880356199 0.9523885472241533 -0.9587504848864392
Ni 3.775335424629918 4.422735940693673 4.711114758781843 0.6678859551255402 -0.31780300602295586 -0.6851015476728782
Ni 3.6786320309813942 2.63978702232871 2.6594343060415695 0.4492092603828006 1.0946284018643924 -0.560226409563332
Ni 5.305985743948196 4.6496418243698585 2.600337787700805 0.9367824652557802 -0.29118797453858886 -0.2643106905317706
Ni 5.393272634404865 2.9516324942166388 0.6492974638082009 0.7531239384594385 0.4397892526204813 0.3231524432603273
Ni 5.760206924482823 8.32614490680353 12.048547756003293 0.7263279013125169 -0.8515665934090688 1.2854214828229864
Ni 2.279903737056247 6.646413600720296 0.16282635200384787 -0.43443724427994856 0.5541727471700842 0.45164795173128025
Ni 0.6060306787075405 9.022456651040628 -0.09181409044533274 0.7158622258945025 0.16156735132425723 1.1624929269168498
Ni 8.25605337000155 9.375015989386092 6.734340085548354 -1.9603363197708499 -0.283756200850892 0.9466683569109244
Ni -0.26637968309502597 2.103219203736619 1.324207816298246 0.7088253736523793 1.3293963457420395 -1.4463056920372899
Ni 6.902970096862427 0.655309468937841 4.491282625087943 1.2390426384481306 0.008879561877816964 0.8417238962870343
Ni 1.1295891659817252 7.605304763914026 2.411611047980463 0.580453021022852 -0.48578423129335696 0.4295043257547055
Ni 7.906614669911938 4.063944423907222 3.68786475314477 0.11344915566079171 -0.4053927774184825 -0.7006042712941676
Ni 7.758989374461666 4.027270100847932 12.590146807701757 1.1969318253210097 -0.0013889099277266403 -0.5391855297326328
Ni 8.64538711018419 7.35768257321576 9.272386112472667 -1.3463584275176748 0.7575508638825406 -1.7760046781668835
Ni 6.802818534412249 0.9806810425603886 0.19611983198478755 1.7987193461555795 -0.9147152010430956 0.056349325324006175
Ni 2.064679776180391 6.958986918265566 8.91340171658702 -0.07927071000686993 -0.13384057483295014 -0.04234864016953997
Ni 0.23319628976975917 4.821868303038271 1.1394560236740598 1.0260647938623815 -1.0595541838690785 0.8238524153232523
Ni 6.454571681586532 2.6566457473668805 7.138359021674928 0.7203693697362368 -1.0086440272827726 2.5132065460794264
Ni 3.8300148296376917 4.598201332537254 0.390159845003722 -0.1289217973750941 0.5543007881075164 -0.5231559870735958
Ni 6.260136812298491 5.81225698705345 4.678224323333656 -0.6030401622947485 0.5245017024682128 -0.020071316828578337
Ni 5.45256476126604 3.1164895356044693 9.727830983518697 -0.10844373202640033 -0.7327515454506736 -1.5746230230591656
P 0.44678987637317075 5.93202398996898 12.280404809763544 -0.05706769154726946 -0.10525067901039939 0.7249821859178999
P 4.173230449357035 6.321967300889643 12.35291006472668 1.3801648345441586 0.7087955488557083 0.7210411989922807
P 2.60826220729511 8.750469826962858 1.1841175430156008 -0.3092229776634287 -0.1953860996459151 -0.40162996794194056
P 6.556906781008736 8.083381085868018 5.789041440005474 -0.028762931065305305 -0.7047213787863347 -0.5531702740474989
P 4.826071611709417 1.4339924160233384 12.578096413037398 0.24322867305049084 -1.3076209017381608 -1.3112618409248578
P 4.238681970093463 6.475451753881514 7.975532555591453 -0.340911052795329 -0.11056823456857087 -1.3683938100511595
P 4.9652084071809455 1.1683014568815717 3.5228002757445975 0.030549847762398996 -0.3316849062113707 0.6344438734170106
P 0.4269451645257571 5.677068754273 3.359240619240978 0.07187647442532782 1.14047579921581 -0.1951863249302832
Ni 0.9583179847385735 0.34987358786987466 4.773074439977174 -2.2047363874216224 -0.8013565482135812 -1.2049678082516087
Ni 1.7627239071615883 6.9657194905959745 4.744831299051112 1.3638894944229027 -0.30536683714213214 -0.10992263056477197
Ni 6.050462674559863 5.476465393038989 8.92800866912279 0.5435332651783671 0.81027184842534 0.5553621394924951
Ni 9.03787788090555 2.7622197599642524 10.289271107836289 -0.2540267921072593 0.7108010093215112 -0.23228168712068384
Ni 2.5810134854983904 5.359209457641287 6.689997908488972 -0.1412227262296342 1.340062310096318 0.979452750430797
Ni 0.6320111294463423 0.3198708800671899 9.175858311588975 0.2853837091519859 0.6898676016029538 -0.8657333718277542
Ni 1.525928420616276 1.1860881851328526 11.272774371933018 -0.15052754857032785 0.5610710169518145 -0.09039330228259271
Ni 4.429013609488242 6.980522051652155 1.5668870251760925 0.05988253528824525 0.29782707712166123 -0.6587839928242718
Ni 6.069286582872855 7.914721050920578 7.921843020677663 -0.8230193778989955 0.13174769685966342 -0.44165047419893616
Ni 5.982336321032705 2.9031579734377004 4.981122752478716 -1.5667847579616694 -0.010119862042821282 -2.5747173609997143
Ni 0.94749128058562 8.11779908738955 6.850894559693793 1.0246015790532936 -1.032588453913512 0.6919489096120148
Ni 5.264807875884106 4.870106273978574 6.772823105066138 1.4458637194038646 2.825207857818941 -0.2249483866840642
Ni 1.072189437829638 7.76117291143369 11.259711361997882 -0.11989054041076125 0.295339277702801 -0.49604087602435865
Ni 4.7790072918915785 0.5447306076391749 10.327141827194835 0.7343397158733999 0.5011897672151497 -0.6274419881778807
Ni 8.498453268108392 7.418193841552981 4.893916834851425 -0.4841196991067404 0.26916184797648485 -1.017450569830809
Ni 7.541991289796039 6.250156228722196 6.784234815166179 0.3844516563904411 0.267966542116803 0.8455095885817115
Ni 2.8315015684724383 5.154020668766026 2.4938239443983905 -1.1991771697117604 0.7550419814177577 -0.698147839333875
Ni 2.512941720395535 5.854180896916317 11.112729300147286 0.03556169915469359 -1.000978797428031 -0.04828814558242651
Ni 1.3434393181793496 3.6665952834231104 3.5134256236780397 -0.30549462096924807 -0.895169160590368 0.3264416555345604
Ni 1.6468417804421185 1.3630183663618338 2.580923414598294 0.2768515033112587 -0.8528832553379634 -0.8761339983357879
Ni 1.327099183172035 3.583639074627623 8.106229070859037 0.7644848719982125 0.7383136129194833 0.07804069425451075
Ni 4.187832852857448 3.1127229343277274 6.710650529016034 -3.1218547985895717 -2.7960623466032364 0.6574935561476225
Ni 4.316834397550497 7.4114430730811405 5.624029731415459 0.2864700002376292 -0.5547345332108253 0.5085616341991887
Ni 8.684590696902742 6.9655739214645065 0.7207864642722747 -0.767785140016039 0.7234377242489154 -1.6835660633194878
P 0.5501548774005117 6.144327470144755 7.517170843073625 -0.1460412306642001 -1.0912234899479014 0.6893556949635418
P 8.804102953838203 2.1280296425812444 8.088025650968927 -0.9275478340313897 -1.4032253159080479 -0.00013035493027719483
P 2.0602763099534753 3.7810217188278976 10.269324497596847 -0.5771247279805674 0.0722089180640821 0.19499863439950932
P 4.146827848136976 6.290033072673788 3.6896225004072494 0.8061043473112117 1.0383528672011149 0.28956200889939165
P 7.257858541311385 4.301049244856905 10.383748203580417 1.090393023626806 -0.20766388857200366 -0.5406178913037851
P 6.529739941848466 8.037963516849914 9.975627857174725 0.3418083677986178 0.1947250690231485 0.9528261489822042
P 2.675697107447792 8.888715011504143 5.771863372685146 1.2728480170333498 -0.6680528197207075 0.3156887878934305
P 7.30397666177468 4.100764316097981 1.413195136171879 -1.4864650378649948 -0.7405209049834472 0.9469894876957692
Ni 2.6516145142605074 1.6647285874712836 -0.12636310418518634 0.26916776151375577 -0.92418534531706 2.41738693057494
Ni 1.4727138049939015 1.445437788985032 6.917381440877787 0.5136256789856573 0.7907756873739414 0.18115067277282348
Ni 7.031625914868239 0.9605834043470487 9.094258625137359 -0.20049385318612567 0.5140244570859728 -0.5469384342051742
Ni 3.033387757677513 2.022082609084485 9.479049698611114 -0.8198080700505493 -0.25208946587523035 -1.1413201494939762
Ni 6.85787096031941 1.8034013813362566 2.4713335135865413 -0.8970247257418682 1.454415722738934 0.3170247330960347
Ni 4.294425849375099 7.0222367058885355 10.081888774111214 1.1678143391297628 1.2122478868527897 0.4511807822868746
Ni 7.629742181859264 6.711992494446757 11.33436012242189 -0.2846758844516839 -1.3912460320589846 1.0743920202128592
Ni 8.061354656662722 4.238454518325543 8.14236842736018 0.28790570424289125 0.3433042356178539 0.31512263097731535
Ni 3.3993940445423605 8.604282026685834 12.054792671743282 -0.7490752223113616 -0.46088258295567075 1.3628746800051432
Ni 0.37225211241190814 5.431912140738977 10.08204890015583 -0.4023812442856683 -1.9840393198147441 -0.08345338062964981
Ni 8.324297998448026 2.26813083354875 5.67754640298563 1.0789693551708965 1.590220106166474 -0.23556421452669754
Ni 3.72570544886995 3.0633749987599797 11.652224877896032 0.35446616577194434 0.369259522031035 -0.5758713151894405
Ni 1.645604442824638 4.019172817910008 12.490969648625343 -1.1846270398117276 -0.2810352023753031 -0.34207987629244957
Ni 3.449433433484583 8.556690018766423 7.817139693447887 0.5926513628612567 1.0619481380225517 0.48357745345002523
Ni 5.659063672324516 8.031704044196777 3.4779922774645167 0.25951584024628854 -0.2798141854840084 -0.41325341111348185
Ni 3.253688442013326 8.56460534029001 3.3553657509227066 0.20378152279846193 0.339515457999383 0.41247179575245096
Ni 3.554752700101885 4.704885309762072 8.982271382491735 0.3863972101525862 -0.7829353653939161 0.20293280164492147
Ni 5.3955926424376415 4.698634935179652 11.286875471736936 -0.39784581830916 1.8667785037173465 1.8579969008699742
Ni 8.356113951744561 8.904927773521422 2.1147319024216165 -0.9315479563297182 0.6551906190460587 0.7876469119369724
Ni 4.825125412354874 0.4499878482301146 1.3138987923690766 -1.1072373488776546 -0.45335619267163857 0.6143465884465033
Ni 6.247708847699385 5.707902115932125 0.2692301086505893 -0.4698361926045328 0.9299248189039984 -0.13133786301575445
Ni 8.139033984442484 0.06403859035411269 11.16191892928456 0.04395223721123398 -0.7102587636647961 -0.23950520145231655
Ni 0.4149666446200608 4.9600952914381224 5.479059253000339 -0.4947167578962963 -0.2644150773201189 1.0845712747387064
Ni 7.454668007056503 6.467136117246389 2.687876694716329 0.16657817427528732 -0.6113880200388115 -0.36608600939905983
P 8.88376566103422 1.824963808934996 3.6673849959613256 -0.710990242514182 -0.0848587456176087 -1.4897539930289119
P 2.095040038162245 3.3407660768435092 1.174093288699866 -0.42183575346585417 -0.15345269263692282 1.610524107831149
P 4.785403235605466 1.6054819509636926 8.330549282837517 1.1105905816206034 -0.6348549928125002 -1.7428569877703208
P 8.780602637176791 1.7064796339905306 12.364814890259572 -0.3528491989938117 1.0841084761696749 0.7607932820792381
P 6.615179923949632 7.985021843349042 1.0720666138749615 -0.3169766534669186 -0.5722465739526597 0.1924840955077717
P 2.1140095156067056 3.5027754220969918 5.799720755412816 -0.5423801254105304 -1.068600867452379 0.23145430612338205
P 7.348220579670322 4.28586456483062 5.8672320793595185 -0.3968672564459746 0.736167513110758 0.4427732749494697
P 2.6966226700963576 8.925507609482752 10.018278702887862 -0.696674083001826 -0.8212237194511535 -0.7213733855207188
