# total energy = -340861.0063419341 ev
CRYSTAL
PRIMVEC
9.36059090540176 0.00000000000000 0.00000000000000
0.00000000000000 9.36059090540176 0.00000000000000
0.00000000000000 0.00000000000000 13.70017097308249
PRIMCOORD
 96 1
Ni 0.2701522658969202 4.2156824608866925 2.049613675575748 1.4553174086175968 -0.22984788086821062 -0.4201905045529473
Ni 1.7664558048668288 2.873879216766337 0.5151760258791926 0.8145038842288166 -1.4277670098031539 0.9185147772948439
Ni 7.409553473031026 4.9014487010852426 12.719663101595994 2.963180966763026 -2.074342376376376 -0.08710563267025644
Ni 0.06392066617223131 0.45435933160537717 7.472291896589355 0.21698465175229728 0.28953964030188845 -0.25113044439607074
Ni 3.205562390012613 6.158473074626732 12.556960121057111 1.4338345561534724 -0.008848451529565406 -0.9664180287340259
Ni 7.203021398342709 7.048384438867953 4.847312660442004 -0.5655213394136841 -0.8464033040405745 0.7345590309730574
Ni 5.69972924230598 1.7617193459386071 1.7040131759767443 0.8905136640962277 -1.5919663994336197 0.9746190764875796
Ni 8.894723525342384 3.379987638369307 7.8955450490161265 0.8441695296140495 -0.5723044237737885 0.13246760574482347
Ni 1.7286015758041224 0.9606212668969301 2.128554345693088 -0.5578041732750846 -0.930825733451713 -2.6192529815182435
Ni 0.9714608310053905 1.7499343621626557 9.353270785257022 -0.25000481543205977 -0.863721483604048 -0.21595055406082808
Ni 2.0384932937442706 4.448368026178669 8.480255287350664 -0.3434878123835697 -0.7747942243440205 -2.033021663250718
Ni 2.480191490277883 2.0271014547805435 6.158239995916627 -0.2914497128404077 0.17465632329773148 -0.5168423861507422
Ni 6.0169128604538065 5.432138034042976 0.5764991281135157 -1.3552919825618788 -1.8884130512679864 1.7649862155691929
Ni 9.189282595605796 6.7602935368247 11.574232883004274 -1.0583192830207129 -3.3497769231899794 1.0942203677926963
Ni 7.3132517152176915 2.07366103325678 6.274637069989066 1.3243695819514094 -0.05716667901897897 -0.4906886105735098
Ni 1.5056510249100716 2.1425549813036446 3.893519944509773 -0.5021397898332448 0.9345890571488871 1.508159492119293
Ni 9.225423836558099 8.662899134400991 2.04001064550764 -0.7405515011110666 -0.8923332338034696 1.2636925757863269
Ni 6.965318556399492 1.2788251894383846 13.381148905403407 -0.23222666551303234 -0.30448263476496595 -1.5704331533475342
Ni 6.005539742671613 3.4859869682174986 3.496708588882292 -0.049405032795689106 0.34264834720140985 0.27815530972434677
Ni 6.639176852887421 6.892923747405681 12.492569553228364 -0.038402511037598376 3.3387476619590113 -0.4345130918232065
Ni 8.615132039715782 8.404144323822258 13.313511148637508 -1.3603655404300443 0.35573243407887767 -1.0898659474787424
Ni 4.026598527388505 6.09245282794541 8.182797242126636 -2.200866362943255 -0.8468645599477093 0.07832120160940705
Ni 5.015947447350085 7.1015525944258595 6.246167769229592 -1.4036636889970473 0.45762730924316675 -1.245181918576649
Ni 8.50086730822012 5.9245425507627125 9.139397199229961 0.3400430483680789 -0.8901495958885897 0.5902162710572029
P 3.533089460958235 9.108238600743059 6.288611495945474 0.26762227140350686 -0.895440926194516 -0.5853064924604113
P 4.602602480250434 2.7015413801507364 10.527101972295617 -0.6922597559842142 0.3916283766445384 -0.033198341128839605
P 0.2074840467693452 1.9934501309723263 5.871194671862075 -0.4535904201696317 -0.20992106003729655 -0.561484193229833
P 7.281931178510517 8.949267687743072 11.333137762967011 1.2064230526408966 -0.29414602872564827 1.4418286301025427
P 8.25700519755206 4.703781105853498 5.129836819155981 -0.5327140630756761 0.8409242832038744 -0.3332666488761938
P 9.316053076366487 3.2991963794572845 10.256303825635756 -2.0808503526982225 -1.00828690105367 0.12600925171398944
P 6.783180181250595 8.94799464739873 8.35669361710498 0.20377612348182322 0.06524302826921022 -0.07111748477211623
P 7.733476716531262 5.0152641242240765 2.1937948551634996 -1.6848079061463888 0.19909620150765064 0.148882299657421
Ni 3.144203717533374 0.3482486107270552 3.6705497363751105 0.9820832460751087 0.7310355912008314 0.7673082003796204
Ni 5.670776935062916 8.950671776358158 0.530189477410764 0.43998388512979064 -1.292822660383064 0.38540296456011686
Ni 8.420272621714208 2.967906351023233 3.7757946026074634 -0.24572624266136392 -0.8721819556665753 0.15897902177179074
Ni 2.614647016058475 0.6530331903445988 8.095061360924399 0.19379355834781462 1.1331545829640484 -0.5391305081249811
Ni 1.8844460514878514 7.8078091678138914 7.773011171636687 -0.369697380899402 -0.8796402117168336 -1.9191783574753012
Ni 6.283717779092362 9.240578633010255 6.1060425336212845 -0.39810010041181115 -0.0895324969441942 -0.045735811474218006
Ni 8.821982374490183 1.4883994561260538 11.747197879201279 0.6941515736902883 -0.5412557819981001 -0.7664895611330671
Ni 8.315639938118034 7.615589436408679 7.469497760245335 0.2999562076495221 0.08006929464876533 -0.7616674571540752
Ni 5.614117279148831 4.619732361354478 6.1014118493687315 -0.8752716503354926 -0.1418333632304396 -0.3333473815154581
Ni 5.5835175079307335 4.585313469103347 9.232750370951615 0.49062536143574204 0.11387750144746195 0.4212739674251132
Ni 5.994054297800213 7.458453199199072 10.202886678363441 -0.7524798771175364 1.2051323588539309 0.3187219182927995
Ni -0.07869635869831491 0.9691674862674174 0.5222591849127609 0.9542687949660018 1.9270343631846103 -0.6429177152159766
Ni 2.364663079028644 2.608693680330513 11.174750014771824 0.23612368657459332 0.827504924474175 0.046611272100635856
Ni 3.6902537799401447 3.4767199833579343 13.201717613104396 -1.8822367472539454 0.5271548238203437 -2.2007897440690485
Ni 2.1577565807096373 6.395062006268646 5.693133770051386 2.137917015804228 0.6013625174820094 -0.6064329900263815
Ni 5.3854754890683 1.2917053623341028 8.551359270877672 -0.17427220048543537 0.11144292386404034 0.44588610954683855
Ni 0.3862928597823366 5.431623201550779 6.6851626271496265 0.21639612623867896 0.41527121287445895 0.8851336307312369
Ni 8.882180333714286 8.25714560641357 9.94446042452064 -1.9285975939066722 2.2770160108226394 -1.9957118710566661
Ni 5.997527076974858 6.490483868549861 2.748240431429405 -0.1895962324370154 -0.49029368912793625 0.7081568868304449
Ni 1.7953519485652896 8.834787662659764 9.860834778724296 2.3250994965934275 0.32673810372905665 -0.14398306258359073
Ni 5.2592666437536435 4.32955404757013 11.822356870648655 -0.6079908214318045 2.0633583665610464 -1.342409984392888
Ni 0.9790897124806885 4.430171037727161 4.540880616849426 0.48640849514091716 -0.8562223470135254 -0.7860235174009367
Ni 4.0901194963349745 1.0694100527937584 13.425619200020398 -0.6672061554496961 1.6470425144721568 0.5904219593101058
Ni 7.117680892317808 3.158066752459652 11.221357332260974 1.0265576743383997 -0.9100802733742457 -0.6507819484554017
P 9.055398065862006 7.930592036907739 5.393373955557695 -1.5525421319997263 -0.42103176950732 2.2708849582242374
P 1.8002568981273217 7.823740893299729 2.746377673866725 2.369835920268854 2.8105479418139208 1.9943700123167911
P 4.860037447530986 7.0657389741504115 13.670332188389198 -1.155627567255584 0.6768431643188279 -0.18630213506677593
P 6.375442208020518 3.214698326601436 7.795520584254663 0.9187119809073145 -0.2368294543923663 -0.2795596462710411
P 3.6095561269357948 7.308328044474124 10.522197022733584 0.30095533833799787 -0.8096822944704571 -1.3166441882826938
P 3.717801998568123 2.551594076650367 7.986226708132812 -1.6041380017991471 0.7736151164342547 -0.3292971227054845
P 5.1592768131780185 1.2948973237857306 3.9133026170372514 0.3241865409517965 0.2119470893283898 -0.3468549290835898
P 2.470905784236784 3.6024139961803927 2.4881564169617247 -1.6212214396439948 -1.2802833902654724 0.3576059969525067
Ni 7.61853802250036 1.848922609526187 9.226133369338255 0.4960979545145391 -0.9095951062077109 -0.018903264662406154
Ni 1.1499204939827639 4.8700720008334635 10.695092750558912 0.2165537348624658 1.4655997643802114 1.5439806155829603
Ni 0.24900388317650166 6.547555390457705 3.9671175894171737 -0.13336029276242195 -0.04306186418648067 -1.3041172594602766
Ni 3.616735700054265 3.968375652816291 4.459255329300043 -0.13465638586602618 -1.290165682376191 -0.1850412660764813
Ni 3.4164658605892293 4.807936399320544 10.199791130996715 1.2307084075508223 0.45653047663456214 1.397650907144064
Ni 6.087791253743325 6.864729648014764 8.039876934115231 3.0456902383118516 -1.1427800218689543 0.7416514190434647
Ni 7.864281611912632 2.8437942780404373 0.9644469403434999 -0.69040779037714 1.8371393406946748 1.9453159351026177
Ni 7.858618454498454 6.844538853729833 0.9526554041540114 -0.09231880144007971 -0.6077725347734114 1.087761756651546
Ni 6.522740464333759 8.91885512834032 3.2682989414527888 -0.801923990681277 0.38677901897203715 -0.03542105981177125
Ni 3.9039279853838638 7.6301545156425 1.7652398641261648 -0.5716835023603379 0.6896945663601993 0.5571318297984083
Ni 8.613381609242307 0.39679450656409976 4.460515264817313 -0.03439776075357947 1.455177797715939 -0.26241578750190286
Ni 4.2206435739933275 7.834056264325223 4.2002253173527535 0.10638967771084903 -0.3226521065851411 -0.3172000823316344
Ni 4.340028548638668 3.5166429029802004 1.5659566309279962 0.2889984230864378 1.322846974659296 1.8501943741064197
Ni 4.938366871071224 2.256716746300867 5.874400674199854 -0.08163303959145941 -0.5495627592018987 0.21052552639051483
Ni 2.6666170159981752 5.673650636428459 2.846868296048398 1.2892423992309732 0.44419818032145436 1.5654477843178007
Ni 1.5622451566887865 8.664874219052878 5.126836749815081 1.4242746803791795 0.9250677479220134 -0.37999953415635845
Ni 4.288685708280374 8.399145768352554 8.41253515738601 0.32461771495194414 0.11261997489127701 0.5799331439636398
Ni 5.6770017279231295 0.9803346710527312 11.402200201647686 -0.6900028416292375 0.029874418961929196 -0.8775789583124305
Ni 7.553996749160261 5.089961638546629 7.115375378811839 -1.1501081800992514 0.7077606798332908 0.4661093785722488
Ni 0.029688985736445597 3.6067198679333217 13.152054062729743 -0.11929584424955583 0.9666000628378448 -1.8857900118228428
Ni 3.52341997069568 8.573177871897025 12.237979269481976 0.3067914854038007 -0.5489531506423577 -0.18600645820322803
Ni 0.9112413424225246 8.60656709916376 11.812519825811366 -0.04251061966870098 0.22151879217722498 1.4008336757474198
Ni 1.013068656965759 6.504131609888492 1.5283223757483198 -2.4325883209057264 -2.546398459450363 -3.097551445957517
Ni 1.7577972584071349 8.405389282394301 0.44675010737069015 0.4963622639195193 1.149591131253517 -0.7498031016163216
P 1.9464412441392622 0.8770967154808743 12.294834561743096 1.382939054855186 1.3617444230554419 1.5172681392887806
P 5.737836207319403 3.2147919325091086 -0.15003061275819796 1.6220760743348064 -1.1203463754557867 0.8480560091526491
P 2.3390993056433196 4.299815450702618 6.186065288031316 -0.17623780885223841 0.17102464008241514 1.7124899454426896
P 4.653187112756582 5.780614107125675 4.558499120791519 0.8498840635003233 0.5453350942737963 -1.1508761686135276
P 6.957025072979721 5.543510342991563 10.673980874142487 0.66827779124732 -0.34509115231494764 0.47973056890010934
P 1.162763224515413 6.803090157812507 9.51193279876169 -0.31267879742251314 -1.48338382783651 0.3231683840999273
P 1.4380862807521548 5.426044289453505 13.184194587188127 -2.5114437977520487 -1.2212454623657096 0.488155816849327
P 7.849987989811061 1.002687761804893 2.32089108448289 0.2869777931119832 0.8108156367439521 0.048137993157807424
