# total energy = -381170.0682016129 ev
CRYSTAL
PRIMVEC
9.26567380238605 0.00000000000000 0.00000000000000
0.00000000000000 9.26567380238605 0.00000000000000
0.00000000000000 0.00000000000000 13.56125019844878
PRIMCOORD
 96 1
Ni 5.098576014965747 8.327839395627514 10.874766509416235 1.898207154540273 -0.06741946709523873 0.8276095683728392
Ni 8.954134087420705 6.085954016261113 9.054874199666829 -1.433007432266487 -1.6031334717940324 0.5387574410562785
Ni 2.694170716464931 2.977422365720295 4.505793412313113 0.9385449564728418 -1.5190938796436098 1.0377471152963158
Ni 0.04723918493289573 5.953936695404378 6.704858406600392 0.7735585521647065 0.009745509422538054 0.09247486740196977
Ni 8.52508706031015 0.5421104855624235 2.1810562306139807 -0.7359507691142616 -1.3595296747923102 -0.03221772238312516
Ni 8.186435947171965 0.486287580385165 10.465636974789794 1.234318236389268 1.5761440876893824 1.6692992689878285
Ni 5.666552555616861 8.773851871537104 7.5705818166604555 -0.5444123253492108 -0.04609293770332062 0.031954441419409486
Ni 7.411297470830585 2.619044632979079 9.640449034640177 0.3339425918972958 -0.3288613207196465 -1.0420313444939666
Ni 1.542697631482535 5.497592993164406 10.651141324448998 -0.6844518299040212 0.35678195838931454 1.1369963253076416
Ni 4.518016689241398 6.667810536322909 8.00966727480808 0.7364696177322091 1.9723150893992807 1.643789554752498
Ni 6.57512600091233 1.8701002165802871 11.960494079107287 0.030056195955432106 0.48427807906147563 -0.9183044610562507
Ni 1.9845868825338127 0.6642774685610184 10.068916030568415 1.1390454945271866 -1.5799302942046918 1.5432555644914776
Ni 3.1262476189208073 7.541665501743997 6.3128434981217945 -1.3061990816899698 0.5419690060150407 -0.865495287675019
Ni 8.187056747319172 7.508160825142512 11.422627272163083 -0.13755761867322117 0.23515566623436923 -1.475834297624026
Ni 2.5838258067173965 6.87459257938578 3.3916415349864475 -0.8347924592745235 0.19742241334965355 2.010848726698105
Ni 1.9197271656614692 3.497708483122559 1.8453339969762748 -0.4817116038858801 -1.1979666943434273 -1.50760181984361
Ni 2.210382088314119 2.956917429514796 11.222314522574536 0.6529383326767723 1.538715767639595 -1.6730726199873316
Ni 5.863670500865753 0.45610186815277626 5.409867446392409 0.3735650913849244 1.1335901278395701 -1.0093801341178485
Ni 6.982194849676998 4.40177881093232 10.92288222709429 -0.5207674322367611 -0.032293827036699224 0.3054627392900481
Ni 3.166015891037393 2.604543853421191 13.447430885427284 -0.10136008570674157 0.30450911712752715 -0.19733242473900853
Ni 8.574639884000621 0.6630803435010318 13.2398214176906 -0.7447925357756076 -1.5104220629012244 -0.6231307623970365
Ni 3.3844356204419297 4.783181743163217 12.429468747924457 0.22332627769960892 -0.04687198196119024 -0.5280408259697229
Ni 4.178235163894867 6.9612451611272315 12.74768349084355 0.15506168899525552 0.8244586814486833 0.8089127632942844
Ni 0.776790545986857 1.6866491402437822 3.6016508122474096 0.21720962327890977 0.41408721986868685 0.5270231833384859
P 2.7173256353883577 2.85394799614303 6.926259829846289 -0.46260522207373234 0.18129465454985552 -0.10094690942872292
Ni 8.873161363742502 6.203887512882713 4.090032434920167 0.5050824174013365 0.011918348704140765 -0.36503802775051974
P 8.694204139217868 5.397542247051896 11.662295044815 1.1943936322801882 -0.15210929123515093 0.0888239009129438
Ni 0.056793021228191964 5.4920243231872234 1.3745145324977797 0.8616409469259354 -1.6935329447242122 2.3868728211464827
P 1.6269967320689038 1.3699947367991612 1.080679630583617 -0.5782125617281074 0.024532180813409365 -0.3303535889944568
P 2.137767002438611 6.728695279118362 12.6126816964433 -1.1510659160268304 -1.4096975538959526 -0.479256200366852
P 8.759119450133245 7.448508416967633 2.147451484735036 0.03659451129458213 0.7889720585062993 1.7905267830424583
Ni 4.708732053867605 2.94679931368271 10.630351932056646 0.9770156017442143 0.531106095158608 1.4361261804011265
Ni 6.586244809519017 1.65812013049379 0.8595978730851622 -0.6948722539063967 0.7377659679461294 0.18344538234427116
Ni 8.745035625898106 7.1224678859242 0.07082959052675103 -0.5293934833428754 0.9063891976759035 -1.9294270317865028
Ni 1.0193353103657543 8.340857667371177 11.626019005168297 0.5745803642921588 -0.10574407370705013 -0.9502313916718345
Ni 8.822070438194773 2.5438814867978716 1.0328150126665951 0.9926895608360453 1.2172461113983293 -0.4995653442378493
Ni 0.6306347334193337 1.9705123239725142 6.485234139596797 -0.033869913274567474 -0.07879557014266429 -1.0781895395820786
Ni 6.568306464966895 2.418998734797093 3.619335277336346 -0.13076862077584575 -0.32539650209949766 -1.1927452980434876
Ni 7.249555868298638 8.157953265791168 9.266985858321839 -0.7820807307031047 -1.4197102009369484 -1.3629178745382529
Ni 1.647242229406914 4.716135327264892 3.6161071165708707 0.4442300620006543 2.3995509308347835 -1.158631129968598
Ni 3.936623452871548 1.0411745036040563 1.4525593032428872 -0.06375410242850955 1.0431834558205388 -0.9517609409424834
Ni 5.102606583085671 3.159279746156508 5.392265445800639 -0.20737772479015254 0.45573317754424736 0.2562909055510877
Ni 8.94095829922178 3.706538240103828 3.060163906534344 -1.6416856210356177 0.4842181723578177 0.34338008316111185
Ni 3.6942241595719216 0.6838613967869307 11.909829374556148 -0.19057736540336212 0.6616700561228153 -0.11744105042900418
Ni 7.314739883755343 6.953378604038 7.0706866676754725 -0.8069566680091781 0.11489283008585374 -0.2414191306455778
Ni 2.2734998585047483 0.46883661027696893 5.397350447603431 -0.17509855304147262 -0.16013756085626613 -1.6965025688754976
Ni 7.118085222198398 7.991903124924129 4.762385864799176 1.7146900384178019 -0.583596194637524 -1.1482225330407645
Ni 6.440189992796339 5.544347583355527 8.796613925889762 -0.3524324231713672 0.06480928316590129 1.2206875329797107
Ni 5.408030989837538 3.6993758742263534 12.800952776310805 -0.32346200408094616 -0.4087884333635928 0.33262618707871744
Ni 5.081721754252777 8.926198080796402 0.15153360966362445 1.2291955704507218 -0.7030079956396538 -0.2966783082291987
Ni 2.9215596181455292 5.827034026506717 1.3891468846241806 0.016435262737887823 -0.6557542048590126 -1.3749146418888127
Ni 0.37166100275667185 3.985731524217751 5.290176251443571 1.2888621330734191 -0.30092217110721725 0.8678236786978796
Ni 5.31288178518581 6.868143670393901 5.591629390388081 -0.08638572378509639 -1.2924956160609482 0.9170808730617948
Ni 3.1483555167004376 7.099757719345041 10.455100050500189 0.40929134114194027 0.3289865334436011 0.11585776510228435
Ni 6.353546676728726 6.476474371549496 12.323921604090707 -0.023697343616939835 -0.650430478653254 0.22288559061776453
Ni 5.568864556333273 3.26659478055872 7.929832375877296 -0.8173732353568117 -1.1166586421915543 0.8888779282650175
P 4.902338308731551 5.152715347206477 10.713889394253457 0.6314500808960093 0.8677457742720927 0.7459101943198185
Ni 5.792037576417168 0.16306752045829495 2.714704376259331 1.4978581101932849 -0.07912312868541213 -0.3627798278439623
P 6.739276678642394 9.086892662184553 12.21238049585057 0.28190757767792746 -1.415092756769595 0.2799825927410726
Ni 0.40107673749304756 8.61929116623031 3.992052566910653 -0.38143652371320114 -0.8884773503924892 -0.42779454215245033
P 4.089785041428668 1.5070525842242624 3.4883334743323537 0.4711538829746918 -0.0451529423875545 1.8327599806800565
P 8.588047314045518 0.47505943682717844 8.290520967673935 -0.25079157299941324 0.26915387755668485 -1.081149907761983
P 3.9185553888856806 8.77211919052923 9.189320053636742 -0.5438484824259407 0.8590040235237206 -1.4585603410349268
Ni 6.718503037895565 7.286368390460614 1.3245419737824067 -0.17526618896758847 0.5507518944139934 0.14990637004656118
Ni 7.575392554517615 3.5636430181602154 5.468167066186807 -1.739681418255817 -0.2438907321145219 -0.9941257790619394
Ni 4.17753097268311 1.2376438516842243 6.62637907575224 -0.40179811808868865 0.6224612471338377 1.18601157886408
Ni 4.27326391478669 8.547463662631108 4.1461620339014935 -2.251293152135239 1.568589415270576 1.9872123182260875
Ni 4.321399090379808 3.409999614563472 2.4075695261168026 0.4501055469448248 -0.349078933318102 -0.8792720297441372
Ni 5.168717165926267 6.849334352500922 3.173115250332763 3.4757249826487304 -2.512871017116879 0.8596601690504807
Ni 4.151939181540052 5.020420056134573 3.99263537779512 -0.6394924915845116 -0.037936627144773374 1.10536481444529
Ni 2.3472824192839585 9.033105425549701 2.5255252603556144 -0.889398576655178 0.7476400325267318 0.6710260434164185
Ni 1.4997327018915265 8.287218681517748 0.3453835517495338 0.40068971551585836 1.0105929234790272 1.037519572666542
Ni 8.79982355530756 2.918131318825134 12.118780511864706 -0.41617649829754777 -0.09163180267538412 -0.7350729944949985
Ni 7.839251148428149 4.047487240354061 7.601094607179357 1.8580514082569937 0.15424973461692143 1.523893357914782
Ni 0.5081369658646898 8.06458307051651 9.019411686183183 -0.3940997210031664 2.913464316264189 0.638955645244435
Ni 5.687289133668333 1.1414012975195051 9.405255655885068 -0.7593007566941117 -1.096595552893092 -0.07544799382667006
Ni 3.4711067335310593 5.16666945200787 6.839941738930422 -0.6458359173040361 -2.332935190587763 -1.5528365233116934
Ni 6.706596647012571 5.003241496837241 3.8591790977912015 -0.4219506817771636 0.31376071763278224 -0.6667004194578711
Ni 2.140037092529143 0.4682306352079045 7.727850878430362 1.2106118939112633 -2.249272007940152 -0.3212734810700596
Ni 0.8945869106356399 1.9798335918544538 8.745230205048724 -2.193601453850725 1.8430456788767808 0.8397274346822957
Ni 7.526525390691224 4.550817174631126 13.417026503292297 0.4099878529883326 0.3811470174972404 0.45793738428441777
Ni 1.2570925010720886 1.3609977675015832 12.251220347448497 0.23773139738134544 -1.4603855671691235 1.699746272623776
Ni 1.1015403686645306 4.539892945175056 13.066956373715046 -0.06028414160203812 0.1918893993465663 -0.3204648691258352
Ni 5.36404683612425 5.33948353477731 0.8699337322524621 -0.04626751560797193 -0.11718779676761754 0.9819498058210379
Ni 7.3884390534700035 1.7074691093598047 6.80153644743554 0.02901412784416293 -1.061488938997946 1.0680575933543994
Ni 3.3577412141120413 2.3721607535414226 9.038125567635621 -0.7007940187074705 -0.9734790493458655 -2.029964107371317
Ni 3.395183802095061 4.76596612117053 9.243877267767605 1.524771389644361 0.24708507068210347 0.6846726876655757
Ni 0.18449717091291734 3.838203465354686 9.95204530673614 -2.205410273560195 -0.6434607322036402 1.8127359721496459
P 7.914201184111061 0.8244587316184941 4.37217405644963 0.43294934688051245 -0.15982311493964088 0.3185139160470514
Ni 0.19214505809955057 8.421376373031272 6.329171468560715 -0.07605143173862386 0.2645382331615444 1.2059651391678716
P 7.020804912563721 3.8439574488086463 1.8617972462532433 -0.6125712417136353 -0.1842575938329214 0.2840958435784978
Ni 1.3983384330723754 4.373518505723656 8.301139429893322 0.20130297935098235 -0.6464599240412802 -3.0629171437130993
P 6.011346810510241 4.880462052797894 6.679905946952218 -0.026081270468084113 1.4485039852401893 -1.3422937705299978
P 4.0360533988368505 7.698635282248907 1.8743142450422217 -1.611466674250076 1.8233224894162405 -3.3154694081573606
P 1.760403904001476 5.683119580440826 5.480589555102629 1.257465106819376 1.6519504932967357 0.3998019135942663
Ni 2.030498296405593 6.62790327909874 8.41654617725905 0.697849848477482 -0.33334403908134846 -1.22403742328855
