# total energy = -340865.9989282755 ev
CRYSTAL
PRIMVEC
9.32257210784610 0.00000000000000 0.00000000000000
0.00000000000000 9.32257210784610 0.00000000000000
0.00000000000000 0.00000000000000 13.64452661986045
PRIMCOORD
 96 1
Ni 2.956019784639318 5.250239503391072 6.633217893201356 1.005939740977732 1.835925780002548 -0.6228073176193467
Ni 1.9314877636091374 3.6947124246361187 9.834742950983218 -0.82430415814869 -1.2961627804998903 0.27319873705001985
Ni 0.5303713776559184 5.616085197591944 10.064939628594143 -0.8465714541873227 -0.671758807817385 0.8362685295994178
Ni 0.9982050776154759 9.152285929990022 8.22569871522881 -0.32482160343263417 -0.5715341212666674 0.04446054430622021
Ni 6.566679899846621 4.604604777404747 6.567055599499458 -0.0878024016269649 -1.1432677601386505 -0.4330475630212735
Ni 8.903466482490563 2.9443292793128166 -0.20251796125177007 0.3132056164602606 0.1373645288258086 2.0339380044174007
Ni 1.2960146411362783 6.3829133599774055 2.339545131707828 2.0048868526877146 0.5457169030932472 -0.47917726749980055
Ni 5.255599982308726 5.742247564883446 4.913025292410895 -1.3363267543132855 0.36665345186675563 1.3599055700744902
Ni 5.992167075882526 5.500457336695136 2.6585271885675597 -1.4750277425623306 0.29270929627912173 1.1177174224733717
Ni 5.7193606505480705 3.7541811116199724 1.1670098216326152 2.8952701618536656 -1.0764679289052814 -1.009214555074262
Ni 3.1963929818789603 7.852318518312726 7.4902587206135225 -0.8399066405726374 -0.21524041536768093 0.43951311614095917
Ni 5.7005943130502645 9.31939303364037 12.418606592414081 0.3155399210203921 -0.5966180608184886 1.2413700010297266
Ni 9.508743794155976 8.062943388202395 3.880721975335921 -0.2562831922416038 0.4340711191897815 -0.4570464970390322
Ni 4.069806110291448 3.9532832824796933 13.288608591720536 0.3340570059879731 -2.142433672727659 1.0189706060197612
Ni 8.214136861396334 4.403358414977965 8.132110346869789 -0.5856152819500818 -1.2623502028258193 1.511576745330958
Ni 3.870582745995328 3.6725806386352304 2.345999148324684 -1.3089373065567393 0.7535700248579215 0.012201427162198342
Ni 2.573691783088164 1.5397253191629119 2.905956640577241 0.12647693537902732 2.563965007579217 0.03505673449381705
Ni 4.688405377388735 0.3484907941085152 1.2680674347026373 0.8181715628883909 -0.34465663588069034 -0.1446428076547767
Ni 8.420631831876403 6.1503804458155855 6.153367397894223 -0.48040856880374033 -0.3345604279869529 -0.5897691562174552
Ni 6.590918587126447 8.24870495848618 10.594278997526263 -0.06886776950599108 -0.11505429536438251 -3.1726294580392778
Ni 3.2611195994881297 7.823148190428657 0.5297607491879073 -1.2248879442143035 -0.05893174133920173 2.490407031686408
Ni 4.352979235724046 3.4727140168689923 6.3125037024583195 1.7660254554669845 -0.38157973415928476 -0.5783195196196169
Ni 8.673031147035651 5.934040839271095 3.3477934161719802 -2.046786064024662 -1.2427943921810791 0.6720681115276878
Ni 1.6498528625616045 0.2654910030619647 4.960017581246059 -0.9282456314293626 2.0360658493936805 1.433463545967299
P 1.2680842153322924 6.183820511689716 4.838348693673356 -1.5249408253426897 -0.2643307451364286 -0.1461615582921483
P 1.56967874309756 6.142950355907114 11.955265439916118 -0.12187543205127399 -0.33678828887620704 1.0032210564949884
P 7.240114535628502 2.4219855684325364 6.707608288977553 0.21023627728487015 -0.28860530141307716 -0.0766777524687131
P 7.727069763080234 6.0017506799300895 10.413489154906452 -2.022805127729032 -0.17884593589904682 1.305359359397494
P 8.69144322679629 4.365173159940206 1.6978156311451644 0.7678658726553034 0.10742069007852467 -0.9440118931246839
P 0.2232261905035703 2.126161712754274 4.411603297681919 0.7495673314564316 -0.8105821805769072 1.165309313319722
P 5.2670481007624295 7.188476809150438 13.643544079873875 1.9284757236168268 0.4874091684912896 -0.4592872134440929
P 2.8813086923852658 2.3788779953625667 11.35799062408186 -0.4653370191825986 -0.047281815805099214 -0.2605522519306029
Ni 7.103660048815104 5.9216977539024445 0.8676116918377813 1.4436764819445587 0.4345133489335226 -2.3584387341755058
Ni 1.4162944654764063 3.9065305837457185 12.21769118129439 0.6864979137997725 0.538806292016343 0.6414519293037276
Ni 8.921002240480316 3.9114808694940217 5.745874045403388 -0.6758990552380036 -0.9758251809805387 -0.5871777413411952
Ni 0.42477833329295955 8.095935970619053 12.513408759651503 0.6706920571157675 0.6801706860301641 0.3571552825683333
Ni 1.0170832859776493 4.868107275852563 7.648289368134779 -0.06741381066828389 0.24874060400765546 0.24359608369223854
Ni 5.050699171645909 1.5550143372932645 3.5841308719795313 0.5037469864193648 1.5914228682253238 -1.0336665174690391
Ni 0.99892291566184 1.0292212747616243 0.2325692721927407 0.6205066945106282 -0.8049329527109298 -0.04843058469756175
Ni 7.870255146899799 6.899281302186005 8.441022161421955 0.7304645491887096 -0.3852067893889108 0.5673761332342357
Ni 2.4202142797467032 8.703478667287927 2.975994327472302 -0.053326993557914606 -3.7314273626862 -2.051509180531944
Ni 3.7528945966797354 6.88766537743575 12.170562782907577 -0.32755365765181654 -0.777208747322784 -1.6725440011773711
Ni 3.3986555046570888 0.20903816813004364 12.496885432984284 -0.5237316570714077 0.9047722308977708 0.19511844780682527
Ni 5.207560768634514 6.3816361676092 9.901218483105346 -0.26938810505467803 -0.05283437019221224 0.18122600609544917
Ni 6.113546963722278 4.039172138598558 10.140448733014026 0.5678903538664929 -0.11009977957258457 -0.10084740773638116
Ni 7.011776778880497 1.6870033121039554 13.664856411793265 -1.7909445873061671 1.6249593094198724 -1.124019967652632
Ni 7.438629384450287 7.381426082469895 12.427789325864323 0.40603169655406196 -1.3524444858107545 1.3138979929961243
Ni 8.146660085038107 9.198115694092957 0.45633617187409176 0.9121356132413776 -2.071477653234071 2.240162589439716
Ni 5.110643309803328 8.155656367047735 5.863994762061205 -0.7198746894880054 0.210705760722121 -1.9387822477491579
Ni 1.6757882579510197 3.0293791039489184 1.1918190503207216 0.09684420011425901 1.5871023864730989 -0.9697195823034331
Ni 5.568260403074438 1.200644729262188 5.81003012160428 0.10629249001135242 0.23635842829321874 1.0421079633681731
Ni 0.5025882484900177 7.868959309387531 6.253996172650831 1.2544407181707555 0.05918705188311743 0.814776678274229
Ni 9.147186483089229 8.723475584293784 10.178175317507872 -1.298905376242034 -0.41503004339793037 1.216057747517183
Ni 3.142396644677129 5.73979572843937 3.8436218676825353 0.3262714485052832 -2.479564432544949 -1.0729064368062684
Ni 2.372081840352184 5.337881003051709 0.21777901166603064 0.22511679394112843 1.1448096507044734 0.9675320877338112
Ni 9.149517126096903 2.0400584374787023 2.3125292502200545 -1.2463821095323373 -0.4146454063650021 -0.47564200065303247
P 7.076391525625297 7.586093828831944 2.3568739285984983 0.412937936755592 0.997927412196217 -2.24844796937696
P 6.604650735727673 1.8189270289104313 2.1017486933774725 0.4596679938222793 0.04908878710685094 0.07995976565409454
P 0.8724929905530573 8.578425686068078 1.5313527172221375 -0.9685026791771966 -0.8326628145260304 -0.8280445990277289
P 3.7392463512267864 0.2148116369886579 4.3406380148698025 0.7304843466830516 -1.0545423324767838 1.823299349487789
P 8.68097397840581 2.0815625281593917 9.146621535224167 -0.33598944712399553 -0.20238232845809018 0.04605719936937874
P 3.5908869399301815 3.3270115386011376 4.380465907099371 -0.7994205075331329 0.06223046669513154 0.19390874376944026
P 6.980751259162318 4.667364332315438 4.31587260227024 1.4150315645143563 -0.6556233357081032 1.4041398573025172
P 3.5442274669165137 2.015008686432204 0.7362053777790095 -0.7078349847146519 0.3433302037597829 0.03709176264597483
Ni 3.6472978232879645 4.6256924353381965 11.29734076722172 -0.011054972262580962 0.08668217197959265 -2.1857487905755257
Ni 0.2264508681689904 6.389317966962499 0.2839618150263962 -0.9152391918673657 -1.0899235401895553 0.2960725563243998
Ni 9.237512883494707 2.641727913768233 11.149870729296842 -1.0379006101550448 -0.9138963046862261 -1.187597178183645
Ni 5.345730608701561 6.412270139302089 7.455628162291071 -0.9645907457173001 -0.07692843502693848 0.5770097996692579
Ni 2.884319883151183 5.697322090267488 9.169339711005787 1.216869187674885 0.08660118223001215 -0.7673380251762913
Ni 7.525133530323179 0.3563198900998994 3.604051343894737 -0.2104728187757085 -1.3734228878346346 -2.1409756001248934
Ni 0.3956574150406531 1.9390670146700986 7.148953765026274 -0.5896277455435845 0.4221206316961246 1.0467572892147263
Ni 1.9038929503982567 7.81204500714009 10.601374407098833 1.7974188821766013 -0.27376849351056076 -0.1478993669188614
Ni 5.626451897690085 2.2980979087165263 8.28544801163079 0.5350200855010334 -0.06019029633665118 -0.2514721440062056
Ni 8.49263005566952 0.42772519831186473 5.735176393998158 -0.46751551489115606 0.16210471188496597 0.3051038132887326
Ni 7.260158065494513 2.3951645287002044 4.41006134426804 0.2858439366178561 1.641376317325315 0.5350761355499495
Ni 4.801655982417713 7.668216365850407 3.2267118506372117 -0.3315234409328419 0.38125603227127886 -0.2932425430747724
Ni 1.3305454479380014 0.6757820594192121 11.513660796364944 0.07082772144583932 1.8857763849760878 -0.8388108364052974
Ni 1.9128519421197623 3.2007093327291756 5.910017503405176 0.39720741339421267 -0.29266301642221854 -1.4366278026278936
Ni 8.184770759499619 4.703629137514873 12.252593958720139 0.10138039742171573 0.9125840136327057 -1.062260784166964
Ni 3.057980754939115 2.7200281962541064 8.074189206843032 -0.1121414925929617 0.756352215588749 0.11989079752107741
Ni 3.83227629752117 0.9807066099138467 9.80503843972179 -0.1382232772816781 0.1585481048819592 0.22611669596055253
Ni 5.239854158148869 -0.1947718361514591 7.940104517839839 0.13451420386120705 0.1884001552463852 1.5623663171789997
Ni 6.706434577158887 1.356891036496768 10.489447607298214 0.6308168181873846 0.9794350098189843 -0.0456566214968504
Ni 0.9098886237398156 3.9933237293515615 3.3931076420416173 0.789599150567337 0.4541182676486437 0.3729709094443512
Ni 3.0281671695849277 7.55075195826355 5.08359573157065 -0.6801107793265061 0.6728088463484542 1.034785975785463
Ni 6.9528301559303625 7.420655465575093 4.318738360912478 0.528503110318122 -0.1641608230830463 3.0397211652126104
Ni 5.931738163979511 5.429941401854901 12.203187123729021 -0.8352228619437229 0.1760974266196322 0.3429774484060545
Ni 7.920746197018085 0.013674348654634927 8.399966486455943 -1.4912310917950706 1.4466872437464247 -1.7045043561340516
P 4.257283033828882 8.383164414885007 10.732648340634768 1.1542407142103863 0.035803382851854464 -0.8038170939389317
P 8.089783073078788 0.22714260301366856 12.01659770904891 -0.20120502032053736 0.42031983104195997 -1.0785834325863877
P 6.947777321889722 7.7457242297136695 6.686131879790422 1.308249022240463 0.9817541448704641 0.45684543677181966
P 3.9680409140042956 5.913093019918105 1.7686718398645214 -1.0417253832177735 0.017829057761620908 0.22852222007825157
P 4.768169303683428 4.3961613893702625 8.374682738851474 -0.5095414816139547 0.9566270107855331 0.22966507543344314
P 2.8036703125135722 0.7074014269757469 7.775169573472645 1.6138387740266789 -0.2820800987000497 -0.2742356629549664
P 5.974519447028407 3.1432077084438004 12.140012714362964 0.5773162751660832 0.29188628615719403 0.675117954097605
P 1.217555874925883 7.000132886414149 8.660836290562289 0.14615127387950314 0.8326219339857659 -2.3056287894633263
