# total energy = -340870.4198359595 ev
CRYSTAL
PRIMVEC
9.26605953169279 0.00000000000000 0.00000000000000
0.00000000000000 9.26605953169279 0.00000000000000
0.00000000000000 0.00000000000000 13.56181475228474
PRIMCOORD
 96 1
Ni 5.603093585021321 6.844791902937579 8.125696772271823 -1.7347734394312382 -0.7135379486367002 0.2716858999499192
Ni 6.756050850061313 8.717610806888644 8.42655275529556 -0.4982427687716839 1.2471369854204908 -0.6624804678392526
Ni 1.558708749262484 8.817804709441747 11.527460915415011 -0.9821526658604635 1.6979164185038889 -3.398981409939088
Ni 1.4952640391190373 3.1971890056996335 4.575525565217511 -1.267256124767869 2.849173881716235 0.761021081819328
Ni 5.530012172884419 9.153847627225046 1.2214390051869413 0.10947397306312757 1.1167566012219994 -0.39269049936046563
Ni 6.636351892031073 2.3512533597472673 0.397603838008218 0.6195319893021846 0.3232591440415207 -0.9584146988135752
Ni 6.139320454599425 1.8181120880189905 2.6100664505066744 -0.6683328128549716 0.33008053783872826 -0.6262392261190312
Ni 9.01747902795805 1.3856002236454434 0.9688128624285239 -1.9452226040578626 -1.6499288348810164 -1.2864152141948233
Ni 8.235219743639359 4.3019442286531335 10.087494866831108 0.014497165174910516 0.768764730320489 0.9832050183843776
Ni 3.6048585642612077 3.410808743927621 11.497612157596244 2.748075277200996 -2.4410071410970415 -0.42485217169467476
Ni 1.0691364898161537 2.577743654772282 2.306579833159917 1.0242398248385005 0.8708421538092291 0.27020957251470884
Ni 8.065345072825892 6.632172899147373 8.716978861623303 -0.4910395661550253 -0.32288736252439876 0.22053894476245886
Ni 3.6410425270347084 3.3654421160815104 8.97496541986558 -0.146436923440722 -0.21953570030892514 -0.2962792730185671
Ni 8.334051535429925 4.152899659840903 12.754792207907371 -2.156228926739538 1.292351634283916 -1.3943529531190826
Ni 8.014715323121816 1.569596369303166 12.007291766394303 -0.14390078728242958 0.09966984248851221 1.037508774033265
Ni 2.2222605439291097 6.851797044002051 10.840731925848166 0.5629589780031465 -0.7314824489302627 0.06860963074859797
Ni 3.138025215095587 8.057116811893017 4.757037480294036 -0.40136514431632814 -0.6289311711288974 -0.5912375132328656
Ni 5.99408423628653 7.407121262434493 13.402409159864243 1.238717651008544 0.1655296784061149 -5.179623843988299
Ni 8.623300852187315 0.09032091603961587 10.176623240999033 0.5071598687556556 -0.4288839185618872 0.023110103654902136
Ni 5.492438301169555 4.089445683637847 3.886788620533375 0.363840922118625 0.35457929431104096 1.0101753763256345
Ni 4.31217395846157 2.0816480893611513 0.038671899778541866 -0.3191389512255601 0.0979906550138764 -0.9708274706556312
Ni 8.575108076160431 7.9980642140042795 1.3671255539968377 0.8222346772141711 0.8805195289979932 -0.3545420133152023
Ni 2.4077948554819413 3.706562834530592 0.08810540118708218 -0.2678140756993388 -0.22385978160557574 0.5899601891823387
Ni 8.00979504546939 5.560812555025038 1.1140611266189102 0.2542407078902783 0.1414325282475951 0.8072415462394484
P 1.2544576819979765 7.125099472172195 5.679538576796323 -0.3480216956981813 0.6046951813996682 0.3048276768092105
P 0.11198125698182732 0.5075938187800516 2.860661472998779 -0.7073385046942077 0.10088854538696174 0.5780732079367656
P 6.550798363660335 7.14502150033174 1.6868861518350418 0.21810205318619214 -0.4511594421306359 3.6671906641943166
P 4.062898422857801 2.864278016064207 2.030095440120012 0.3480584624733877 0.4449240027438854 -0.5532651477541504
P 4.466194401283883 8.778896525143171 7.400628534466403 0.5727839345133684 -1.515765843711641 -0.18848397320944313
P 7.686919198390609 3.5611783592639523 2.087733110706442 -0.5883771609659351 -0.45785690875546947 -0.24644306622273043
P 6.633294092360074 4.979237589720042 8.172186446542556 0.5481872190106107 -0.3840428509877966 0.42521135480630634
P 4.306234414252143 7.620101642549452 10.521472621834812 0.18577685869092522 -0.9397027242263687 -1.2078065632519845
Ni 3.761547632250939 0.2721710422918731 11.28423055710021 1.5682880819800733 0.48126140372233883 0.322275954192645
Ni 8.693454189487744 5.978934228825667 6.534380759244947 -0.08619726192337414 0.12984019542430542 -1.5512067010177544
Ni 3.6893001654788553 2.4967212295503893 4.1143018885392335 0.4368623087816735 0.04824829348342658 0.21239780371256323
Ni 6.697294766080066 7.77224107527112 10.858538512598955 -1.9858938565249797 -0.011487946034941507 -0.8897503035676418
Ni 2.263049738328329 5.5771949484139105 4.523448457002496 0.30896406757508726 0.10577826937909524 0.003670506873051743
Ni 8.383374770729116 4.674059916494625 3.968770082924809 1.2091211682983498 -0.7981786647062318 -0.10854091972589694
Ni 4.287804221689661 6.39638874633444 0.700219445751721 -1.7111935952287691 -1.2344635037178804 0.8232929432753563
Ni 1.3986375695154345 8.086314165721264 2.9116813238123957 -0.2750116218890425 2.6728088032575132 3.121370916974618
Ni 0.6736267812795903 2.4646143330048886 10.916447678731931 -0.22174299237288908 -0.04046684976579482 -0.5097129741948125
Ni 8.991913969496569 8.646364074554342 7.498937720495016 0.31677353631717703 -0.0642644664060248 -0.6644874709669525
Ni 6.441014089411824 0.9168543597765063 10.274661858087061 -1.2325264345961675 0.3921811638242149 0.4807212149481528
Ni 1.2285590453905668 5.964803487921802 8.236062955063787 -0.9987594211792089 1.9832078250523844 -0.5610635607526466
Ni 2.879919124684353 8.245569932222713 8.599112730183743 -0.9458000953733582 -1.2110016731505142 2.605894557933467
Ni 5.646986909389586 4.409838226741391 1.6194301644868194 0.08708814916875969 0.19312764262904158 -0.9412811244570821
Ni 0.9089550439597562 5.7862928495526615 13.137682469862316 -0.2556481297607662 -0.09855501215777865 -0.6637606201032569
Ni 1.728694612791261 4.147590207684893 6.870510777988572 0.17227136800532267 -0.9331824066093476 -0.3989773608104419
Ni 6.856476404104642 6.2544697773616 4.417191771647166 -0.9072949973196246 0.4842174010268692 1.0042392133468576
Ni 8.182996231682521 8.4663245363497 12.616041304714882 -0.7168973520272364 1.0610554510049532 -0.21281895041038185
Ni 5.4488507567683895 7.772667314013138 5.763743893493938 -1.017004997652958 0.4346694148954127 -0.20390313597799076
Ni 6.5879645287524 3.942560106714534 6.2163566209774865 1.7362058010023906 0.09563860984193207 -0.5535109452163693
Ni 4.2173080401836955 1.0184140795159888 8.969893178835562 0.4362223612048294 -0.07303681328201615 0.5207967428127998
Ni 8.802710298338537 6.791002426906805 11.029430596757502 1.6864194736078828 -0.6081075495153269 0.9025590252965358
Ni 4.781916850344445 6.430497111755505 3.125727300782401 0.014257281249962542 1.2610973042553248 -0.1847553594049463
Ni 2.181712267079727 0.011968969197063023 6.610137282790994 0.8094778917691349 -0.8287773634286953 -0.6483106040967739
P 1.446858143721145 4.088537609796156 9.043913242810866 -0.459233477388022 -1.0673801076714005 0.97576733115941
P 2.9208565760373175 2.1420072016547715 6.418183445140984 -1.1874999904841486 0.5064219621483667 -0.7234009574737089
P 3.1811123922778606 5.497340046702764 12.457448988081442 0.7695869691114682 1.0188898733804967 1.5082014011008218
P 8.928330268458984 3.4172023250578936 5.82352480366795 -0.6590516446633617 0.7341371129442905 -1.3600675495736512
P 4.748966742374518 5.719706945201732 5.230263483983968 -0.3491213565202632 0.11335119663034672 0.19429363791268472
P 2.5952657734930735 1.7185019472212606 10.285673643326504 0.12858446864033338 0.8638479818795831 -0.034592650373204935
P 5.62746332179323 0.7012414921266037 12.494255630060675 1.4792140127295363 -0.21045482105357952 0.2701704917466573
P 6.9810585755488725 5.767269629175197 11.684032304447706 -0.43522683006077945 -0.9603489397218106 0.4639010580670204
Ni 4.966802537724641 1.4014081213385527 6.752902243006144 0.5149536537684615 1.2419448996965903 -1.0704379206611179
Ni 8.59102716656885 3.653903817772127 7.891009720916607 0.6360407855904853 -0.25887126468375415 0.08026958358502949
Ni 8.83683719587882 7.111654419679404 3.4810464023704926 -0.028374951598267265 -2.008244970526671 1.5237560610059693
Ni 1.924115809946993 6.598889213031518 1.5108273128384664 -0.7221894536641111 -2.293580857159856 -2.0630428922031565
Ni 1.8837621203494013 4.555287564425295 11.150673280318616 -3.9543713173457253 0.4295629469067828 -1.2169576336236332
Ni 7.360929955283173 1.3395479073882604 6.079490434309485 -0.20396844199828745 -0.605232541960377 1.4494108133251746
Ni 6.4052934296187765 3.1438720987089233 11.2072666659871 -0.7571495146790638 0.12213099970550578 0.496225738341655
Ni 5.203096323816074 4.6967061661792435 12.7405928981624 1.073109296845694 0.11664992198627651 -0.2260367346522365
Ni 5.3563940139888775 5.108749304876309 10.115988000129063 1.188942636467946 -0.05228775366012285 0.07618255799984944
Ni 8.023564410048499 2.202505304842527 4.041013843273049 1.2355526230170009 0.20340434196470134 -1.118903472361673
Ni 3.3992910318335205 8.48580179364801 13.400089865144087 -0.43207722868820425 0.1432721525594952 0.20458756363952507
Ni 6.276467402873583 2.873191965408153 8.57063256936924 -0.2829115934624095 -0.38795195623421574 0.4765704260045728
Ni 0.587776739001361 1.6025279451538759 6.551509070432353 -0.3588190434240014 1.890897508252737 0.17881842509522106
Ni 1.2120561932267755 0.9846485583004607 8.76562474796507 0.04080494983150392 -0.2807343833054326 0.4452111949670009
Ni 1.9093457109301017 1.1656147024660106 12.968797414215096 0.1379877642321043 1.70510085206747 0.6799541991439837
Ni 3.16419256743166 6.553263135516353 6.818867321363264 0.721399353662648 -0.3859578086223224 -1.0287487684524477
Ni 3.1532586170929324 4.820954759477547 2.318527490419879 0.6659118621183048 -1.0617977284876166 0.4051253826897087
Ni 7.053389436857438 8.605343228664896 3.5139205286516257 -0.2441938651772375 0.6671986992505284 -0.3332345100866777
Ni 9.238039044833247 9.256107861070975 5.009571889062323 -0.5467389165998584 -1.5857695265942882 -0.57297908124331
Ni 1.8701502787836464 1.146637812386592 4.2121505514052755 0.41000173694540354 -3.4460732212205683 -0.3427087681257001
Ni 2.908940423380027 1.0332305088309255 1.646214636392858 -0.5203360011262975 -0.0759843259461143 0.7200544095989793
Ni 4.3381003932478075 3.925102850411006 6.4279609912404965 -1.6045717469024559 0.09426075565779894 0.0976713240012447
Ni 4.617166310494805 0.027975160565807056 3.386181410698579 -0.21973444658329255 0.31008018345740146 0.6107498722341804
Ni 3.356593029154829 5.677805823649423 9.13102068937805 0.3259608592433999 0.32430301192500277 -0.2801034345896531
P 0.4353213336470235 2.7702460431511504 13.12075708538035 1.9280190956953827 -0.545144575529545 -0.0483069146355039
P 0.8745103205748816 7.980792278892934 13.134861881317308 -0.3094168388417897 -1.6927940096756589 3.2471886215030916
P 3.2024984578556426 8.21960643319804 2.031180495700237 3.5885951258776005 -0.3942758415697145 -0.15887026410806832
P 5.721282175335278 2.0314075141606596 4.661534983721016 0.9834325610141516 -0.7372643457193625 1.6406504949028842
P 0.6479746218577824 7.75215225803861 9.331030439252203 0.5460974263611176 0.5901735907447255 0.5563548424230677
P 7.539246006400523 8.022211565345572 5.76350019612622 0.9093966170436597 -0.5082849834990344 -0.03506059114855897
P 7.965809060505034 1.3177911994261147 8.441795423352515 0.2919729323337294 0.5721786968292016 -0.25394091726167234
P 1.0528560230829807 4.684132123289707 2.759150863375225 -0.20079595780757678 1.1910884791663552 0.37550550294074686
