# total energy = -340871.3403864632 ev
CRYSTAL
PRIMVEC
9.24829362157903 0.00000000000000 0.00000000000000
0.00000000000000 9.24829362157903 0.00000000000000
0.00000000000000 0.00000000000000 13.53581254702624
PRIMCOORD
 96 1
Ni 1.988725298536223 2.7854657872376816 9.477586484478632 -0.023768563174507453 0.58760711556913 -0.7752302834401746
Ni 3.4748428362022254 3.315282027710452 0.6210192120732151 0.42458349141432045 -0.29110364235489866 -0.0614557933126361
Ni 5.1849910366459895 5.241248406266081 0.9491283207215332 0.9723914727086415 -0.9653139970365697 0.26238236316080615
Ni 9.065464027629943 0.6159983135088968 3.472260712645111 0.25467111055947755 1.3099811744402214 -0.0038463703292836984
Ni 8.520517578921357 4.994698148711906 5.059564754790875 -0.8312625917443942 -1.0112626958525424 -0.4423912090197027
Ni 5.980177812032278 6.2108764944543084 12.28628121060745 0.25852519419824505 -0.9000966797989725 -0.5634001793056232
Ni 6.451517092434715 2.9721703372772064 1.4557627886002342 -0.9096598980073752 1.0204466763446554 0.9045444311576809
Ni 6.157772792932268 0.1464106599034436 10.31236705417982 -0.2881787553986198 0.9332955351484443 -2.0726459625105593
Ni 3.141580578391929 5.92521520350816 1.8517941395140212 -0.3795333931532174 -0.3710616082367803 1.3226855093807672
Ni 4.813413098688389 2.3076989428230865 3.7994348188162643 2.9741310380166266 -1.857616377602104 0.1906015337730782
Ni 5.803775860999293 3.6487200030980595 12.756027934861837 -1.1184830969948028 -1.200895695064764 -2.0085745859519473
Ni 7.2769365394120085 5.455031959798559 8.301039851054654 1.7642110279660648 -0.887021077561937 0.4400733595198034
Ni 7.880850107748692 9.002871576933119 5.616806809764449 -0.5885964760655927 -0.45753500663967656 -0.466693533210493
Ni 3.664682557752717 8.776667565172827 6.8380892887130535 -0.25574737434279177 1.1427401697699546 -1.3565574795378637
Ni 3.3980172617432234 3.4566421945102404 11.660465833503004 -0.556247627421242 0.3828254336409278 0.09094043303531435
Ni 3.579626002040734 -0.16556665031838647 3.8781183754479898 1.5097620607197224 -0.3372107211256063 -0.26834218028866685
Ni 8.52553940231503 7.163903895733433 0.30054364491502084 0.9179499059303096 -0.5478804864034693 -1.2469117567835624
Ni 3.9254844356561547 7.095642241094948 13.502460481179206 0.37483495923628346 -0.18592546845364755 -0.42266467712505273
Ni 8.094587419813456 2.747769742757738 12.588089097249755 0.031185681574185005 0.6625228910414138 -1.9765034164490154
Ni 1.7682459804788488 5.025420979860673 5.904199381261786 -0.20428982989344818 1.73588441310723 -0.14611553554556125
Ni 5.094514980917999 7.615461076248087 5.218461535806284 0.2454349366731902 0.26056639299798995 0.7022855156513325
Ni 8.508846232470502 6.728337014754065 6.675483941987031 -1.0245139044354936 0.4584086674938815 2.136225744144734
Ni 7.203366364280027 2.8535887174730266 8.889063001426313 -1.8677961463485833 -0.05249678434713539 -0.44316048308555933
Ni 0.14088387968234095 3.9095681224692105 0.6297791957168369 -0.45959111783775686 0.06741612466112906 0.964658622840758
P 1.6720914725156557 9.116070689895462 5.029488379360742 -0.3819859684587679 -0.39535081980144815 0.0773935475888151
P 4.521194767620485 8.271793972384653 1.937773674921563 -0.9161020540882933 -0.849143328679557 -0.024548378763325465
P 4.474962548200652 8.835542201865499 8.775321013633015 -1.0659642011604802 0.15233451987207958 1.5867329189488222
P 1.0293258230061946 3.7359036663248575 11.747487651592804 -0.12856801358010114 0.9885305443623491 0.14281963840310888
P 7.016310379085882 1.3439897625021717 2.7874162523458317 0.5432920957018385 0.07450902695216845 0.49094674933090293
P 6.729261844108333 2.1982361404519843 10.94134904699328 0.5064980668019406 0.5440153470211082 -0.016179952193972134
P 1.1940194344141526 4.863261400883408 3.6223050270814707 -0.05905335451873055 0.3713086912505799 0.3013659435128552
P 3.4982317705716506 5.806615087116895 11.77414030875344 0.5013615169063237 -1.2694803861126975 -0.2549189649042255
Ni 2.896704261968978 7.114813953608913 8.265874139687986 1.6107349382903744 -0.3697621726990664 0.35528017703280745
Ni 5.770398769603779 0.38145696511988514 0.7121139786392103 1.412829414656715 1.2797390877262285 0.724774440782468
Ni 0.346372638736393 7.10269868906801 4.732485906043211 1.1083640062829299 1.2668329211875213 -1.5974670175368746
Ni 8.20392074607496 1.5076753099139781 0.8473730461888964 1.2631724416167989 -1.9764993026839572 1.2033922362343727
Ni 6.04818976274511 7.509133445387952 7.67169255064626 -0.18567941388111248 0.5613088439942333 0.024397455007757984
Ni 5.585321919227765 8.612380878680748 12.242398057747456 -1.3707026606899941 -0.9515639944403289 0.20171358452583973
Ni 6.399495441257168 7.305606249394302 0.955426408624095 -1.3835640900336945 0.30487935598275234 0.504997056776382
Ni 6.011964196938453 5.540800634113327 6.10665470003384 1.7841715302483918 -0.5861071339848358 -0.92999578135125
Ni 7.471317173091953 5.6987984809963885 2.489384443957001 0.2631945746494564 -1.1636324398379316 -0.2572751238412279
Ni 5.089326688240558 6.342932877950166 3.2172057243490912 0.19917179194059245 -0.42120043387470035 -0.4814989736544417
Ni 8.260057887878999 7.840213105922178 2.454015270132395 0.5853507154347855 1.105667433287373 0.958140362106266
Ni 2.0544344241569292 4.9582506238602235 13.532550729049653 0.4121843464190192 1.122394516234067 -1.8620206773173866
Ni 4.4762480610030835 7.241293616098538 10.411408879387036 1.0213378207003572 0.7609395778491154 -0.47439655828170557
Ni 7.853280944697977 4.673800859368166 10.727780978700345 -1.4964602014044937 0.8095650521663025 0.46608315332000383
Ni 1.5858788801108386 0.5203311906154028 8.555107121600315 0.30921989233963515 0.3460167494530106 0.8110951156575837
Ni 0.9143908053458913 3.193491250046964 4.888282659063115 -0.019493075727605138 -2.650454346821713 0.6699896317321042
Ni 9.308407450702475 3.6698431055495297 8.112364489661186 0.661705280236125 0.5728186444060457 -1.8812088202100634
Ni 1.1484900853035631 8.101218446283553 7.168173832862086 -0.7190750764048455 0.07469954569641975 -2.516191853959996
Ni 1.5725983305835571 8.380729622023823 2.9093198591905405 -0.19728743043368605 0.9828172960276558 -0.9420779093267646
Ni 9.070929769113665 2.7029525122499343 10.193888090433965 0.2689659299155948 0.1621517630728175 1.7286192469043842
Ni 8.549557220645356 3.2538733585870894 3.0555880953734267 0.31376200318436287 0.46885814496197964 -0.9178033530501161
Ni 0.41107092587288513 6.073261886539303 11.957469231649888 -0.5914604278769492 -0.41397949064622896 0.02962605039654898
Ni 8.601643609877703 0.48632983940575786 10.16270191977871 -0.22134704248605105 -0.601355575503474 -0.9832980923188162
Ni 2.7496009048791876 9.03890292857538 0.5792289480419291 -1.615634946695153 -1.320733784971035 -0.07851609122903251
P 1.5784247555154425 0.9490691316428602 10.747015579610402 0.4252627768695321 1.5382226300532607 -1.0906357357652314
P 7.420821490348947 4.664987235621997 0.1513372258736266 -0.3188545872159218 1.2769908355571298 0.48909169840003514
P 6.405654804756589 6.408142595719568 9.946588721102835 0.22495147200785776 -0.6111730758145281 0.8178728007010495
P 4.419990691382991 3.850591754547571 2.508484019781334 0.13073082555937485 2.0510237562550935 -0.6230047783421335
P 1.2654625020313177 2.085064772370269 7.063771696717536 1.722003027139447 0.8237894232958006 -0.2774989070872705
P 1.2082987996440429 5.8709092238255725 7.800743238740749 -1.0990656117001396 0.13031713506072395 0.5366295960799984
P 7.527278597318681 8.927951150943908 12.947856964353356 1.286535027602139 0.02791960922840353 0.7912575121063663
P 7.288533899514523 6.940668586200342 4.846578404161776 -0.28016359840362715 -0.3309770815110687 -1.2847586524280066
Ni 5.238760615303102 4.305506065618216 10.113688738490595 1.1524044323325957 -0.9097907671582847 1.7549982511185453
Ni 6.433686382484437 4.094552489909797 4.0879640055899955 -0.3077620768471861 0.3171782279547634 -0.7676319022676265
Ni 4.9461261110257775 5.492829735507472 8.197938024982204 -0.7253858491142217 0.28403927930894957 -1.0029354069337695
Ni 3.929091270137797 1.2699294278124296 1.6914083832382412 0.03565837263355794 0.8491926938602536 1.01336611534879
Ni 0.8410139195489529 8.628491406032088 11.800290783574708 -1.2271335457153705 -1.5620724400876647 1.496316733848094
Ni 8.53003407297677 1.295991119015688 7.363224967823875 0.31385893377354335 2.128026239053077 -0.06375821619356761
Ni 7.819848363541206 7.6285196667303445 11.04829538869142 -0.4732650157804236 -0.25642743112895194 1.5119860649542347
Ni 3.8769678877312805 1.628652237745711 9.901514388034542 1.4466085679896892 -1.2088249772141697 -0.09728514430641955
Ni 4.083019867862082 4.557725527114051 4.761966691369196 -0.945993699441403 -1.303327930789762 -1.701314131331528
Ni 3.186887968457494 3.6056599483633645 7.0364300416879715 -1.2028443341507027 -0.5003428458338222 -0.4780930332966863
Ni 3.213190115292862 9.257819285024043 11.878094827490525 0.6463102858372933 0.45691305678496147 -0.7749099239862783
Ni 5.379232945922793 3.0465543622409417 6.091805639921721 0.9886051063540263 -1.1375961636751697 1.1869032374404138
Ni 3.2055047833588985 1.6811455518939347 5.259353790534576 -1.50533050731093 -0.12737347905136773 2.453921020945232
Ni 0.791956346451833 6.368430423247322 2.1601803373532307 -0.261162374710776 -1.4830413568954264 -0.8998408550344245
Ni 0.018540054065000748 7.3859461753995195 9.303677873384752 -0.06208339959430598 0.7213283912153965 -1.356574191708412
Ni 7.685544644714478 2.1952119484635295 4.966776625677216 -0.5497229389288467 -0.24409436348489574 0.8162599476879748
Ni 1.3415852061810762 1.910558721513533 13.091797405051553 0.526941422257957 0.44240226476329614 -1.3635629643214193
Ni 6.238251443340626 8.52370824019358 3.312564879067614 0.08754400575925568 1.1347833768167233 0.34543413747666313
Ni 2.7524308827032464 6.652889436032922 4.1530442472498 0.1700468495501781 -0.37810360268522625 0.3811398184083888
Ni 2.205671768460295 7.011186824463239 10.49194671887407 -0.9606785551470874 0.02826619393454487 0.6674136434748118
Ni 3.07645409526441 4.859710056163021 9.228757447395541 -1.50656977903467 0.14808525767742237 1.123098227169311
Ni 0.7034076350981361 5.209693228698474 9.801917665214766 0.4756638550299034 -1.4251000044939521 -0.04163644459386378
Ni 5.861540702466843 0.8220937606193482 7.688747328768307 0.11947222192642004 0.8172781045398441 -0.831004452987001
Ni 2.6654599302279296 2.6470558260780064 3.23235165468393 -2.103553964943326 0.9432595883396916 -1.446210304110006
P 7.688013939090373 8.814816776036363 7.929333361816812 1.4308435918459488 -1.9708953262336186 1.1607638600408847
P 5.530063365310282 0.6317925492210773 5.27395869569717 -0.5691995595962197 0.27476736708872035 0.5697790862487736
P 1.104569939269399 0.9402277630160628 1.357276785834933 -0.7229296742642453 -0.16539186727667002 2.6739843116228528
P 1.482575441239158 7.1368988785888225 -0.007197946864264021 0.6139588660897812 0.36276234434246557 0.9204071092215503
P 4.7217347647998515 3.119791598805386 8.32149245222428 0.7480840620426858 -0.7343024348775612 1.0826460326915355
P 7.473684736238878 3.7929841340702484 6.836383903383784 -0.3732259628779508 -0.20296571176538591 -1.5433872049733355
P 4.443398122339501 1.7079656031676926 12.868090432547785 -0.3294894412219487 -0.32240939444671574 0.3292346448986653
P 3.8762280242478666 6.008033672182816 6.174117302110238 -0.6540197386664092 1.641266531220328 1.701664315582095
