# total energy = -340861.81497310445 ev
CRYSTAL
PRIMVEC
9.31876608436757 0.00000000000000 0.00000000000000

0.00000000000000 9.31876608436757 0.00000000000000

0.00000000000000 0.00000000000000 13.63895611978645

PRIMCOORD
 96 1
Ni 5.9199325963907485 6.324767755905605 7.1184163202279125 1.5148014229158426 0.4457177022897743 1.292940674018167
Ni 3.7766629669310063 5.446762924417671 8.36095264746665 -0.2668997914151855 -0.041835190868231176 1.0755677856885153
Ni 1.9898361441706935 7.411168155660711 5.162726931000715 -0.5668966224946559 -0.26859286284689227 -0.01723101916630581
Ni 1.5925025914373536 3.153899141338428 6.646045266517166 2.4915203193552444 0.4451582302418785 -0.7899974144470201
Ni 4.668617991402706 8.40231212743983 2.3215413541468726 1.4332712274508346 0.27621309839631136 1.0582112966879387
Ni 6.327619298359201 8.509869326784269 8.043206017363806 -0.840487709887088 -1.9348872835701258 2.372481071201185
Ni 5.347322370423171 4.421596137285361 3.4012014903180385 -0.20901114662851744 0.20073399422138977 -0.5751421503328997
Ni 5.123988819956283 4.446672937097862 5.816565114324533 0.6829060826834561 0.36714196146739997 0.8860039491513323
Ni 3.2565080758369227 3.1484103880535663 8.660601301755351 0.6744731214247546 -0.8654600635617096 -2.5740478457365152
Ni 8.668567914969662 0.04867284767769376 8.446306022614417 -0.0017627483273776091 -0.44588482399525786 -0.0982289962769276
Ni 3.236016108989026 2.9567792801590027 0.7113797007828412 0.030054653293535336 -0.22572511694908867 0.18289130961301406
Ni 5.996728548547873 1.3213078578277648 8.64512096736348 4.519897284745099 0.5496252370087179 3.330441713196477
Ni 8.088605182479577 5.486050842667208 12.621394701676023 1.1181426829362486 1.5419648707045122 -0.8879682719665546
Ni 1.0642962863566474 8.279891496025177 2.0584595383807485 -0.4420392249969226 0.6977068951417146 0.5963416672286505
Ni 4.976118638081602 8.582779353440904 10.311377865674123 -0.31324212612515084 2.380777763992339 -0.4436361371703973
Ni 6.78334424002793 7.238267767804471 3.0719023857716583 0.4910827606881349 -0.6568937177800945 -3.5519232243778633
Ni 0.6187670067744507 2.5479650074817757 13.44516058644204 0.6136940424641688 0.1844465699152759 0.5915851263802715
Ni 8.914024216367386 4.487675508326032 1.002174595316114 -2.4453605329697305 1.5004454113044867 -2.2129119812538796
Ni 1.7836491234901297 4.033618625804994 9.891885218821812 0.10773539310546607 1.86947327694069 0.8546336623701668
Ni 5.54447950666735 6.941390514580147 4.8715080326058775 0.963417037124173 -3.5083468824488095 3.106735169339314
Ni 7.294832678566968 8.129467972214925 12.191985955722828 0.20959427282549709 -1.5686909738454466 0.47931559284987774
Ni 5.557814661082694 3.489626330801443 8.070988986877367 -0.09935333968935793 1.356730257670302 -0.7880009528422817
Ni 4.684692863077387 4.024066890462069 10.257463212015555 0.49403592977918787 0.9034221446277796 0.7870750985939026
Ni 1.5830720000548748 5.81566492151075 12.09648537607271 1.545595525478564 -2.241917881567926 -1.8011868338594657
P 7.434809865480227 2.5220308811799583 7.397497525662592 -0.6738596562104718 0.3063549120870143 0.4684146296666578
P 6.740887941274397 0.2959174203069375 10.835386998463655 0.29543132319597504 1.6998727708993113 -1.5106573188404822
P 1.1555642824040775 2.2875334488195813 10.82196611139938 -1.1545700725253472 -0.11902459286604017 0.20625749514278027
P 7.147307291041252 3.496922924726819 3.9937315108895555 0.09334955669743923 -0.5632122316645333 0.9705058256501545
P 0.8031369320551529 5.56778574090409 8.617255992707463 0.1057949815496436 0.1166344953673088 -0.9861224491414888
P 6.085527071555424 8.670012323728836 4.298958378618525 0.669933324572872 6.721752751074502 -0.08710074757425
P 9.483242411442449 7.220478243151158 12.15981105170476 -1.3788715696540317 2.6974772525384707 0.02396422412508131
P 8.823893109794918 7.366363527827748 3.647684719749705 1.6926055478139366 1.8983061420119822 0.27890118675143577
Ni 4.099623446716159 8.842297673016652 5.217241713201804 -0.35241673944208335 0.723832902804805 0.6136814440586786
Ni 5.959900784572025 6.7318673756042005 9.546082579356094 -1.0366484829154985 -0.9387275047972929 -0.6547319342420854
Ni 3.687510330808302 6.253591019759978 4.242097131091242 -1.581312005043567 -0.06998619938115043 -1.8298852302354227
Ni 6.774975987990908 3.1682966350992285 11.293273893888049 -0.23436299512974476 -0.11902253598351113 0.5614068030246784
Ni 5.4076427439595225 2.2318258645463995 5.018508773595197 1.2661276675903808 -0.33772442753723125 -1.541260645548636
Ni 1.0286799619852691 5.45541073944034 6.092057662900129 -0.2580582818641556 0.2178860805206441 1.3791147960130894
Ni 8.461607436695475 0.13821034884397146 2.8366985909342137 -0.1455627483658848 -0.19714087755349274 0.826433802897183
Ni 0.7019463137705056 0.15780771413779887 10.995276524967903 -0.9213710157967164 -0.30667989952660085 -0.868904313356568
Ni 4.653195433361202 6.412392114373441 0.8033111929828727 0.47089368733476966 -0.6036135182997153 1.1885878242316885
Ni 5.926232082333986 3.004659100834079 1.2317312178434967 -0.3534243547709913 1.5712001134205456 0.7286241535458613
Ni 4.675224996630155 0.5475688374665907 12.301097525267464 1.2832386162390546 -1.4842407765201664 -1.4150811868053694
Ni 6.538586846094321 0.5726307272531906 6.48230988520704 0.40503847940285725 1.127841398281251 -2.7057824299700557
Ni 7.653502670385382 4.789631489122936 7.252147138165206 -0.7644745875855673 -0.2963497212451864 0.20238798488504497
Ni 9.2385968427031 1.7760263727481655 6.665848576543753 -0.5755946644892861 -1.8340113365886546 -0.4265737823714718
Ni 3.076506788145258 0.5885332017533885 3.0633095514695 -1.9885400358985754 -0.22437477356878133 0.17890558549238866
Ni 6.126352586226018 4.657584572235853 13.129036353532566 -1.5364971627217214 -0.18038911201645064 0.33658568594709776
Ni 7.915397275339127 8.2329621895013 0.9379254299548099 0.6237917930198031 -1.0603620244823544 -0.9056073252045564
Ni 8.192723757100564 5.406953155261594 3.173839437227982 -0.24147492358417766 -3.02994788787593 -0.5540218234145168
Ni 2.398585185484603 1.4431693632711227 12.356717513138475 1.5170470244169099 0.23742286500199108 -0.10078775814303932
Ni 4.001552751351329 7.858235963540583 8.106681725131489 1.7867326061073485 -0.2563505551444295 -0.4196572577572966
Ni 4.090015798776104 1.0847416593736028 8.010049847266119 -2.5385519668227507 -1.5211872718375286 -1.7431364666839528
Ni 9.19497569817604 8.910306028658285 5.511216170758497 -0.3714187344658829 -1.112299336781594 0.023084135512973145
Ni 8.044247855423649 1.107973343480836 12.358653952752388 0.5694268451156773 -0.47454208272063436 0.28139361415598635
Ni 1.1707538712908767 5.906243328860252 3.1135824313017118 0.6347014979537715 1.1247193077125017 0.5550289245227924
P 7.811520988639034 2.8473769651092957 13.47897093392614 -1.054514821672958 1.5561013101058943 0.45696293618629036
P 6.877827210410295 5.25752673943348 10.53246559348965 1.0708791219635945 -1.5406602929604758 1.7905229263877163
P 2.5862837740477373 9.234645685839295 8.941208921091661 -0.5311734580614337 -1.1998988783691333 2.0837556992704758
P 3.9646224809474115 6.320881830405118 6.438651465615227 -1.8458206705187563 0.38452236172737647 -1.276495126867634
P 1.0140681366021396 1.2382496947921569 1.8623582183456955 -0.37101995636556745 -0.34926353852508235 -0.1599807235634277
P 3.83670377748171 6.802857736426063 10.290510352548841 -1.3039969318323283 -1.7382631977520517 0.4399008384976811
P 1.989938650598764 0.1325286970990135 5.481237699930992 -0.0502691805681973 1.692434569453711 -0.4243716325138305
P 4.13705693049424 2.358738141263773 2.757810575767835 0.6468998397921762 1.770824933738157 -0.5502093916469621
Ni 1.3281664697422952 1.4584894148845569 8.513872668738728 -0.21254667058560167 1.0783191231814075 1.0260110578063104
Ni 8.016962508024541 6.086934205249845 5.379858842569343 -0.3387708665238746 1.365775655702022 0.8547413915926247
Ni 5.007103535657435 6.894004588513046 12.237212723664118 -0.15330485420514886 0.13160911439927012 -1.1048822183819165
Ni 7.908473432061279 1.6094441083675384 4.806818089603872 -1.5901699696548293 0.5182084132603333 -0.30604149461165353
Ni 6.216232086111403 1.3891671132103856 3.0649459268121517 -0.7486461051937429 -1.1388534331210387 0.008434761030914506
Ni 8.303626393506576 2.5768811389638233 2.4364491962605803 -0.8478960865360171 -0.6143185634220453 -0.5144887983169011
Ni 3.0805604514371336 4.179876661129113 4.81071892513026 -1.3119483254689213 -1.6521456400266772 0.3843904641352025
Ni 1.2131169823825265 6.480512295209333 0.5236988178754642 -0.9133360613073819 1.4038747765665884 1.5796608425933891
Ni 8.301967653125072 1.8454139057856545 10.142828409751163 0.6950614870990675 -0.30654157417652367 -1.6120711406032946
Ni 8.295332691599059 6.600752335335939 9.244430390336927 0.6854836136026453 0.19337909651821533 -0.6184282147150446
Ni 1.4232737974592722 7.132248164881088 10.071960124766365 -0.3889606000043882 -0.24988963001043416 -0.2577217244603432
Ni 2.7644492648003225 8.493431023228249 11.4333051296452 1.0109693329818397 -0.31882321975735417 0.19879589665841246
Ni 0.935343199844054 3.591890470950973 2.3031423821848502 3.940976384096058 -1.6476158704771238 2.3470328063314096
Ni 3.031348047197142 8.224724400190913 0.2929456657695141 0.31822903781678097 0.44717191823779756 -0.060053256538154645
Ni 4.580443825729765 1.107041466862014 0.6812204458912848 -0.726689912637626 0.370067362644311 2.9521766452327225
Ni 0.8559212193750896 0.0010968187803535364 13.380429640868803 -0.8240087383954583 -0.8023813899336697 0.8336784002747384
Ni 3.642677746676774 4.602333607505895 12.494170246291345 0.36179432400224143 0.11161055979015616 0.40077996123681947
Ni 1.8081574785651495 7.629683904008291 7.706119219913931 -2.119760656610175 -0.7133898530946101 -0.9832047612740616
Ni 4.073428394961072 1.600293079970706 10.307941104703907 -0.5327498014096179 0.3618156641584801 0.38941517104330353
Ni 0.7328771625024467 1.49245631764062 4.12958980314762 1.9352724348236863 0.8407746449998876 -0.031215249260539788
Ni 8.884241439629832 4.288356418326186 10.717505538059287 0.1247877206020625 0.08325232036243727 -0.458963511556087
Ni 9.234375441619838 3.541727552559783 8.252509233457712 0.5377487972861061 -0.150663817037876 1.4722352674188581
Ni 7.007674898476958 1.0313637666474766 0.9659012979284662 1.3403225057362402 -0.19727586046946027 -0.8680054556913825
Ni 3.1404987555597668 4.744789586225219 2.5269716910129523 0.08122577685071174 -0.43478382898608986 -2.0865116647490582
P 1.9358432128761447 4.545917797002409 0.3706902683245989 -0.3580358854010737 -0.44303398481002415 -0.25826242745516165
P 5.785844869708446 8.67223950884782 0.4942925192919161 0.09691824788530407 -2.2948622949754416 -1.5723015740148405
P 4.809117029222505 2.7453551128806595 12.220696142472118 -1.0404637428965307 0.04598546559117887 0.26146653621475613
P 2.90034483212314 7.291067897026927 2.345532517698446 -0.2343588813646867 -1.8269438882189115 -0.16382889366492429
P 6.630609662202997 5.198361892904469 1.6042824437758831 -0.6977490612335597 0.5825081037796678 -0.5985875258400336
P 8.017167520880681 7.791858391981889 7.108215066881668 0.6021706152056017 -1.4309934871602514 -0.7549931304576933
P 0.6103447058935372 4.15768867883496 4.489494531485972 0.7660822983923193 -0.8601445648860669 -0.4827696128367492
P 3.988077815443162 2.341433192452248 6.351798700987776 -3.030901252928135 2.2970737008044635 1.715508677664355
