# total energy = -340857.966812805 ev
CRYSTAL
PRIMVEC
9.34828402930657 0.00000000000000 0.00000000000000
0.00000000000000 9.34828402930657 0.00000000000000
0.00000000000000 0.00000000000000 13.68215861592378
PRIMCOORD
 96 1
Ni 4.012984709433191 6.350121202942629 0.9403654109526908 2.3351098296415786 3.0991177620033725 -0.1912283687237997
Ni 3.2890255344226853 6.918244479971068 7.76506254554183 -0.2902122408888808 0.17249042599466424 0.36525142931290644
Ni 9.407178412678633 3.8729567600706614 8.892801226128194 0.13816954122560718 0.6939975646109274 -1.7232692954463804
Ni 8.457579701399792 0.6786658031261077 12.182977534338619 1.5503718638212847 -1.7997130775274166 0.4808541409815912
Ni 8.794155326531545 0.4387813513601692 4.749049912511289 0.6783837693330703 -0.4320139795504366 0.13530276120077345
Ni 4.025380534311668 8.117283459147655 10.278297343084692 -1.287776099098092 -1.2954827237137303 0.9625755150594842
Ni 8.481053243081435 7.376992831601177 5.740499957423955 -1.1782260213813902 0.5985453597481885 -1.950023882101248
Ni 1.0705468125441038 1.2052462399000479 3.076460508467352 -1.441071183111228 -0.2914111462929884 0.2971480487767657
Ni 0.18091827937832738 7.105649533771096 13.333277364066548 -0.7161255068582182 1.7003679653681747 0.007527932945928972
Ni 6.448081873305799 3.867899338306516 9.630543511395734 1.559314160616237 1.054264653335365 -1.3445563413119295
Ni 3.0856536111713457 3.2182590228615435 12.62206550942127 -1.0944517670772118 0.5035338419672941 -0.24121472794425555
Ni 6.487129656501426 5.559546154565584 13.653617823989816 -0.3072964500646772 0.26233248375947726 -0.2708011833521207
Ni 8.39710565076716 5.219586450545441 11.858682750189413 0.027883099563513272 -0.3588879489887239 0.9198422378570159
Ni 6.600814140926135 7.388238817520338 4.039055204471726 2.289083226399819 2.091011609501941 -0.05294904139320558
Ni 5.2879411047772855 0.6703935064179894 9.80005127505259 -0.0020579109702932303 3.9142271410266725 -0.019901109799301212
Ni 1.7968056654732403 1.2849590594617197 5.447702347304203 1.1440686587733908 3.0433811305627008 -0.4428606924569534
Ni 5.486508009938476 2.7277078083079203 13.355798315585961 0.8049224111879686 0.3207075812642606 0.5549402214637281
Ni 3.0783899943307893 0.39770312083150733 2.210229795881019 2.078651031054059 0.41431810493257026 1.1301872728056084
Ni 7.49020055353056 8.305268106569452 1.627341838752227 0.09333824384352957 0.32103385425542774 0.8092539486837869
Ni 9.217454984391528 0.4887348429292733 8.727192631820367 1.2419857802368546 -0.25142740681119924 0.22033557050240116
Ni 0.5992231489784535 5.2781254063441025 4.113185228695972 -0.49616351764515193 0.7003584738319487 0.8878422879116515
Ni 4.088649721926703 7.763946360405714 3.4406388124216383 1.3609931467117142 -0.5777464207249663 -1.4490398031390013
Ni 8.663428919969984 7.376235620579188 7.885931186391208 0.19691024959992537 -0.31010152361364013 0.2925380608085801
Ni 7.336636288614459 0.058568870308172684 7.541482436287621 -0.5667557260414176 0.026336323901683677 0.4785769149116403
P 6.734625481280981 5.529725127897151 7.774667907580017 0.5752689057187511 -0.6881485620293181 1.9670425281464317
P 1.2201754498027086 6.38442940603766 8.062335179318694 -0.3865273079725472 -1.5862053285801263 -0.4189147231643172
P 4.403387755115676 2.5172405373320217 1.9996335185828558 -0.8270105013362596 -0.5059218825834965 -0.7085196694865024
P 4.2765315382220574 4.863575742515985 13.169460835844095 0.49071920670112906 -0.2016091977374915 -0.6032401941206965
P 5.984780907259538 6.78563906828087 1.8562719710667328 -0.23236113420836754 -0.052026529578936206 0.8566622627644215
P 0.8456270941608702 4.0183973659977745 13.134530037019871 0.8996804181971604 -0.20540388889323333 -0.05407312769531978
P 0.9892821778015665 3.379563667113526 3.4558120125424954 0.4091962103249727 -1.339592826659067 0.2955513937136071
P 5.522096927971933 3.4449736118154166 4.255301584753714 1.531687400037904 0.8770814498507217 -0.03523388350162964
Ni 3.266570955721251 5.388332329038198 11.070398966275201 -0.541789543014383 -0.1878651086785216 0.577583927005173
Ni 9.264551640302365 7.543364245901526 3.42281069958171 0.11893151893160162 -0.057907928060377686 -0.6617245635098346
Ni 4.225508602937947 4.349036830648505 6.554041870477804 -0.2928231961491667 0.7711072624107365 0.11161595910679488
Ni 5.780436762449101 2.5253548480367867 7.74897321356721 0.014627262994871585 -0.3456609087754886 0.8017722955947612
Ni 4.735560338378828 5.796730821848186 9.205849089529817 2.4332411239983776 0.29047320785975134 -0.011056514924477732
Ni 6.8642487903043365 1.0081283187932788 0.8962050511160093 0.1924324163342299 1.4142095828336934 -0.7519779977804533
Ni 2.7066087308186866 1.315995363079024 10.954798083584967 0.41202210980954196 -0.30248360205706615 -0.24840173261099796
Ni 2.179356152409179 2.754126059519517 1.7131843282783168 1.0028114797613956 -0.43446372664250976 -0.7882912303891908
Ni 1.4219301198836292 7.028040078159392 5.566996737090581 -0.6704997385993033 -1.3318178106993386 0.9380045105883393
Ni 3.3481253872746723 3.4668299003266383 4.275414418257519 -1.3840356303534744 0.907385757261218 -0.9386269746636867
Ni 4.606367050429689 6.960956790581748 12.404997414956163 0.6333948633272058 0.2550287510092124 -0.507030799376959
Ni 6.38537358274409 0.38816600126814177 3.3374346894383025 -0.39723646685993524 0.6270424387466169 0.38178542241218766
Ni 3.9072462665972494 8.029970484513433 5.91222513409829 -1.660488612674734 1.6111789678063284 -2.0337706256016004
Ni 7.43059589333058 4.951468310771976 3.439941430418671 0.8277327242142649 -0.04813542205464613 0.09546043239285495
Ni 6.351990859787044 9.011344013863118 11.62136627209928 -0.7262834212278266 -0.5854077939249659 1.2475864142530835
Ni 8.088696405996535 2.5905497822015695 3.18940741326694 -0.46373085103774325 -0.4613268695819409 1.5100345976548188
Ni 1.921465035574671 7.370205977255947 9.976250540555611 -1.9182039093771739 -0.8666198881977655 -3.848924977384752
Ni 3.704930699463004 1.2581294837443517 13.817475484662847 -0.4828205206793426 -0.2259788848311076 -0.6199279391890226
Ni 8.31991686794545 3.077978669825018 13.085097244881938 -3.0318700445993074 0.5015641198354329 -2.1920490217619406
Ni 0.988880201580017 1.8765745747402451 12.963777081904635 2.0637669148533746 -1.5653395408747106 -0.7255987364559762
Ni 1.7569445815502933 8.920562825782504 0.5596677539495684 -0.66061976048143 0.6538629013735707 -1.1727045773425286
Ni 5.719542039026476 7.039108446678334 6.701698954593973 1.1215679065677138 0.13783092693926585 0.5892721619763788
Ni 8.447006791944622 2.1873115422821687 10.12786194889772 -1.11876154746717 -0.12378087660410295 0.4126093497715797
Ni 8.601814378662258 4.99459194588843 6.489270413588282 1.7739740208900996 1.7402344625458095 0.8557418078326812
P 9.062067804052122 0.21697741610815474 0.8679180778884188 -0.17957458653495526 -0.44448228722077643 -0.4868527817671873
P 2.6386467045241684 2.66796292384461 7.194106738394102 -0.6731657154672407 1.1800476479711612 -1.5425968478615562
P 5.477327994832395 8.26947352628311 8.968627963938749 3.1151935845193126 -3.3451108851728772 -4.145687874907957
P 3.8423598258117955 2.154564502652224 8.838209115928095 1.1118180262698012 -0.3097850208144859 1.4187447516998857
P 3.252286777429913 6.122658751250989 5.3321154870403005 1.844889416953739 -2.499167551487857 -0.5526488543263901
P 1.3123214873797466 8.926087661757753 6.310731272544474 -1.4044309061803748 -0.5021323336340772 1.7792118722502714
P 7.447142356403662 3.4521717906664176 1.3128281643845834 -1.7742303598752798 1.042357360374818 0.4570356984057548
P 6.831455009253281 9.125813754162483 5.4551454512018225 -0.1720998754244649 -0.691977191746789 -0.3619822716433314
Ni 2.78902320452054 4.771270784107172 8.786217698398577 -1.8315567044005747 -1.2671933898507337 -0.36373627821996063
Ni 6.659558758977683 4.114909052306524 6.1962942512398875 -1.9464559622443316 0.908659481767319 -1.2194102089291838
Ni 2.1412151527830945 8.660428120734696 4.0611928763380325 -1.9001925604014178 0.0844270573968288 0.0508034558051125
Ni 4.693782856190355 2.8103092476942146 10.784851885398092 -1.1430564154587928 -0.674140163565368 -0.4489668053546913
Ni 8.640609758183889 5.95952184329148 9.73086088421129 0.8885891933800052 -2.1513998807820105 -1.2822531123973335
Ni 6.554222292363291 6.763549072664095 10.709709441992596 -1.7495806796473998 -1.3094499845271 -0.5081348310744153
Ni 7.209415488636179 2.0455167672016663 5.741649796383272 -1.1893216170739196 -2.463740321028499 -0.2367114407572633
Ni 1.1094543714763987 3.1883725582035556 10.777218076502344 0.9676472731554369 0.9571782553033128 1.4373816500747825
Ni 5.511645546211649 4.515735434896628 1.9563294615809166 0.1862813091311695 -0.9418567944548941 -0.09271475132691774
Ni 9.249164364472822 2.274203844126398 1.2524457269373275 0.6040392929832242 -1.8797270934582144 0.8600872292855704
Ni 2.1533492257033537 0.5590750727298885 8.382388646916342 1.0567452536653736 -0.0355357310127646 -0.3782059325910454
Ni 5.856466358027275 4.406313768077187 11.742767765149315 0.7999797224707126 1.7424569241184247 -0.15136984196596515
Ni 8.22591987009244 6.195696895878096 1.2978157547523457 -0.3518079022134909 -0.07984380890152055 1.0549434245699445
Ni 4.894004407658854 8.601206740187823 0.6623119147080017 0.7483360301524918 0.22881866827274788 0.09354264654485181
Ni 1.860364649899159 5.826467713958621 13.6880419458092 2.032305868130616 -1.3017970959675322 -0.06374124691270312
Ni -0.15613691273401675 2.978073556343654 5.510078773776028 1.5913189956576077 0.19294175187048063 -0.49825305318432905
Ni 4.578322197763451 2.05816499575414 5.705118571300229 -0.3232691713438497 1.4643334960732781 0.3114919762032635
Ni 5.116007461364799 0.32845383579960874 6.940261558970909 0.4454482506784715 -1.3205664061552354 1.327965526832784
Ni 0.20956422672004568 4.500329462498641 1.71734337992872 1.0161706746771209 0.33769177452708293 -0.238560321040544
Ni 3.031994459736609 4.84723494169579 1.9716671915040824 -1.6389116578349066 -1.6154919933593854 2.371564730034503
Ni 2.245747666954388 7.988286485167179 11.963830381462518 -0.036919241623852544 0.7791375889143808 2.942525238185887
Ni 8.38644860675399 8.058716458496326 10.019157295478113 0.208004559740874 3.56249637190802 1.077926515728679
Ni 1.680980423961675 4.603123195804627 6.441163208153039 0.41964080269706444 0.12821088735099856 0.3459581283009332
Ni 5.306890076895441 5.768685969181948 3.9774584249040217 -3.282586027165779 -2.608838471053139 1.167152537176048
P 8.010170818531067 7.477178393609203 12.030175154586617 -1.3351741287660812 0.7190218545694069 0.48908655619371255
P 0.9121186353472552 0.14893499456932668 10.807085844591885 -0.8595061599711198 -0.03921883629130665 -0.5792800837606733
P 6.840205003285147 1.828823538933863 11.663876659770764 -2.297123323095476 1.5562139244243585 -0.6270925752582619
P 1.0884674733978301 5.950482052448728 11.354208201115425 0.20462870129010566 -0.3155383783584953 0.42637580742805287
P 2.265734298621194 7.321557506164244 1.8157452893071735 -0.36358869689850287 -0.4785674018299436 1.6584386721242408
P 3.917912658894642 0.5076931633316506 4.540698158254847 -0.1760974266196322 -1.5137398144205478 -1.1403868390464296
P 4.107795008013522 9.225522553675182 12.05807323919057 0.648394936280464 0.5685758099692918 2.07193068161109
P 8.593793550799713 2.258554816338637 7.667290710519945 -1.0858236590885688 0.06618790868098277 -0.6005690750464366
