# total energy = -340889.74016286223 ev
CRYSTAL
PRIMVEC
9.08699921138616 0.00000000000000 0.00000000000000

0.00000000000000 9.08699921138616 0.00000000000000

0.00000000000000 0.00000000000000 13.29974187382183

PRIMCOORD
 96 1
Ni 6.434204312971044 2.058032681943933 11.334744871743297 -0.4788273403595496 -0.23421515669797083 0.286509595226313
Ni 4.874230061082378 0.42773414269533816 6.344229389687113 -0.8410988611085256 0.1470151645416952 -1.2211523884312712
Ni 2.6628906144337847 1.3737998108200233 4.915983914033682 0.6351162168936868 0.7281027338247525 0.3218077563069748
Ni 3.5473736884974487 4.465769443841285 4.8640080956021885 -0.4574172501148896 0.37794419428922654 -0.3835288874658556
Ni 4.680422540625915 4.687101485090258 2.4308604489428123 2.244478957426883 0.5391634182454456 -0.41558540168076813
Ni 7.092157582202601 5.694377180305843 2.756783851803463 0.7344597863910319 0.3396686957477957 -1.3287088327567116
Ni 5.280282623516598 4.272734318322875 11.72644906232827 -1.1290415892369392 1.144764913509467 0.7256774122127115
Ni 5.574628703909779 7.728429271173042 12.29832482226332 -1.1778434412309908 0.6182958029022384 0.09209151592062205
Ni 2.0100442387926494 6.40559843926526 0.3835576957383288 -0.9594737362057089 -0.22070863757110376 1.1865916197372661
Ni 3.034866929600951 1.6840299659392863 0.5514554551727779 -2.455337184566468 -0.3324261552527694 -0.163834292981563
Ni 0.38857553673589346 0.06005416078360244 4.5466500982545845 0.25073912249492303 -1.683748354533623 1.8461572279225689
Ni 8.620100161660236 2.3096698657624053 1.1569294862132178 -0.4081945085333357 0.29686728431155324 1.5725939084442788
Ni 6.921449213893566 0.9309539883366552 4.788173451884195 -1.0241662912880878 -1.6110424422284644 0.9319305364801176
Ni 0.6407397665120961 7.416027323227958 2.4448117189239076 0.05083739436684148 0.8942019115810922 -0.3584734871591246
Ni 7.828095479179723 3.771704439505921 4.159866517774974 -1.3703036254793626 -0.06342911498892302 -2.261136877698538
Ni 7.707883565820826 3.805008291834923 12.655954582981092 0.04002719112521494 0.2794092367361059 0.24112525355424277
Ni 7.816809426084873 8.951157719109123 7.1341413362354675 -0.5291379156886435 -0.4136812426795198 -1.6478135883102265
Ni 6.606675559138695 0.5939289984663616 0.19808749711320509 1.0749414649584264 -0.2247416699898968 0.6928693645437551
Ni 1.7867221447032815 6.561431389767319 9.03325148792513 -0.09887331472914586 -0.23555650121721367 0.3435448908737503
Ni 9.184866253365488 4.8498678160362525 1.3564009333154285 -0.3445378509146389 0.06506587926139762 0.45977315194157586
Ni 6.58972830549788 2.0197855020113913 6.918672226916282 0.8927284123593593 0.024635539160493058 1.6641339227368048
Ni 3.1977786525352845 4.278895303828759 0.3917123688843167 1.092400798085454 -0.2888001910327026 -0.11668206077579259
Ni 6.0272703116075155 5.627751301649298 4.806779082892007 -0.6796479807574746 -0.7450007951316717 -0.26080936224673146
Ni 5.7866374839064845 3.1696634767901464 9.057097591412651 -1.941292158655205 -0.9529760442965073 0.3735095555566406
P 0.041588469564567444 5.7090799451266685 12.603088238621021 1.003718307846381 -1.0189029860066194 -0.4563952366082786
P 4.0218967904402705 6.084718321000134 12.567205495898849 -0.20266000759950906 0.019352179274366672 -0.3208973286775635
P 2.3436461560374764 8.481505248775672 1.4710179812230386 0.3191772606626632 -0.002813301079079026 0.5009303429061761
P 6.38943266756177 7.820916749755463 5.760011667341899 -0.524880168853554 0.9172125135436526 0.7332372268378405
P 4.613333225006539 0.7800807220368265 12.639423513906898 -0.08386552846640395 -0.5398583874299412 -1.6164684983400421
P 4.010774303332304 6.234190372012341 8.108892843659522 -0.43957533683746225 0.19690536450391896 0.9671430798255085
P 4.873403144148698 1.128986963454233 3.9056549870629675 -1.1657718547784375 -0.4608820687350385 0.5561280711242422
P 0.17342447239120176 5.664117472732699 3.5271978240155715 0.14753786981438463 -1.7409425443564275 0.0004689692166185472
Ni 1.3052111403208961 1.031810593247865 2.7254364304175542 0.896638803157359 0.8412891227424607 -1.6794353289805657
Ni 1.8986376277275594 6.480929663223629 4.6728376223342325 -0.22962882287886904 0.614630181125193 0.2602198082918486
Ni 5.901806112669857 5.547113270116541 9.097223054094554 0.1104579342429517 1.289530105674721 0.2689157934039498
Ni 8.767118722869217 2.368780796021656 10.45045807686389 0.32338204277263016 0.45985748412526606 -0.2565223048356034
Ni 2.378331232255702 5.443294303442915 6.910665671858416 -0.41655882133763095 -1.1237304614366712 -0.08382696191898466
Ni 0.6069824729194614 8.802330845045173 8.427354911418577 0.4474390558562552 -0.385405021442646 2.726803255196097
Ni 1.7861133157521103 1.167961103328472 11.64340570208842 -1.3094700391317577 0.530608586696899 -0.2705790400389856
Ni 4.247745070327036 6.8240911037017735 1.5794104346298665 -0.28105088610458695 1.5694185960400906 -0.40706630846616343
Ni 5.6590741881371756 7.923890625496865 7.955799623437735 -0.7068960178401502 -0.17954604728986498 0.27762386270090894
Ni 5.287270525956162 2.908821162709934 5.204694237478854 -0.32021547211919044 -0.24262703491074988 -1.332272895958886
Ni 0.5940834774539723 7.280867296067913 6.730654033695511 -0.09811046842119234 -0.4920613225513203 -0.8319107668513543
Ni 5.04505656038194 4.755762851583555 6.757053583978243 -0.38268530851863775 0.10622949798390091 1.5825736453648098
Ni 8.289924043140656 7.014563695425701 9.145395054631114 -0.729375429889589 -0.23735447365790088 -1.004961950445495
Ni 4.940565155762243 0.23289979132122787 10.352611994811234 -0.4701177284006936 0.226303615160378 0.036529719494917734
Ni 8.121133031677848 6.949200909667855 4.802151074163177 0.8233711048114593 1.0173243286655897 -0.5203478282008392
Ni 7.115056820366062 6.1409304984918665 6.8700613243149204 1.483564062168116 -0.5573017797173693 1.8452056626425768
Ni 2.2692145450069585 5.120696742315529 2.655412922733502 -0.3160163464361783 -0.04097721374331007 -0.30578412718520886
Ni 2.08928287243764 5.4130527698683135 11.48646868117491 0.48904181899870625 -0.5968471461101592 -0.2401001547238381
Ni 1.22480937076919 3.270629125692611 4.087383159388205 0.3121810318504882 0.035088616173016986 -2.0820400021309498
Ni 3.742798694824188 2.8477110926110165 2.968701761807456 -1.3944547688042694 -2.2027993182999097 0.2893100407895856
Ni 1.289336152594084 3.5104077754621485 8.469009716077826 -0.30064449196579834 0.105625802961631 -0.9038548612898241
Ni 3.8095427044712586 2.8020761822709774 7.375598354770398 -0.4399738578274616 0.12285296547319487 -0.8070978215727326
Ni 4.122926048337633 7.077064076413114 5.887902095084971 0.07767739737782106 0.3959637707950987 0.6034988470987219
Ni 0.4159519394402814 7.326175074434189 11.101201720873666 1.086867784082367 0.12428378438245047 0.8678270211319893
P 0.2638083106423369 5.432626166298509 7.870800740954722 -0.36859900562890063 0.24395758079671534 0.5121866325462856
P 8.804293636887754 1.6937257941616723 8.053778375679752 -1.2727729408210402 0.20922994750754287 0.8410926904609386
P 1.7737822577410722 3.158631859674892 10.582511258973106 0.34191481146949504 1.3353451071263067 0.8380680447020018
P 4.163508587082878 6.3211166070407785 3.788444509563353 -1.170747453616158 -0.3298033729179417 -0.4599253612487241
P 6.999788234610706 4.140045954964601 10.555540136436214 0.9232399506846551 -0.48127040258340337 -1.0419776084378958
P 6.386452131800811 7.716988739090583 9.949656281728643 0.25372288771359525 -0.9724120415339318 1.825568862248256
P 2.3040904482098794 8.53072043682857 6.039505956126207 0.18640395075196284 -0.1368107132048676 -0.45461988987541063
P 6.660007157861453 3.875432536186835 1.4701265465945326 0.9405082508467996 1.079503887518128 -0.21937423503039638
Ni 5.2093767682033105 2.5951561218661516 0.3981332425693569 0.6000047179025345 2.162389804134611 -0.11034737680701641
Ni 1.565608191436819 1.2630111157053758 7.152574314257126 2.1383700441812463 1.083016785767393 -0.9708644945411539
Ni 7.335043985722894 0.5798223407977283 9.441354077394935 -0.4679502884357296 0.8379600583692279 -1.7998742856956294
Ni 2.858624578735745 1.7858588797725163 9.286066346849152 0.4135789127737007 -0.9924977565402132 0.5344444155032215
Ni 6.474332501752727 2.2487960576445394 2.7958452268707052 -0.4032153101511895 -0.20690284203626302 -0.7094293257849653
Ni 3.682833586633443 7.004304473248499 10.377762082694174 0.9484964112585988 0.15456675163670802 0.6072287464547993
Ni 8.082531458773728 7.349065225598379 0.1474910851710827 0.40057581564581335 0.7894947637789888 0.8396670137580056
Ni 7.84977705944084 3.6815159717391173 8.347729171604634 1.3020439218710156 0.925543144896535 -0.6952057259864156
Ni 2.6949041128662734 8.299619871363044 12.607756230146643 1.3592761640206075 0.5060373251154381 -0.896788698471662
Ni 0.037563837587346535 4.948225496147877 10.3039483876141 -0.3426390912300292 -0.7764214755347983 -0.2531654725482285
Ni 8.93600969132401 2.191257178259209 5.800030812132327 -0.5035166155761135 0.37860779601515443 0.8493736995228083
Ni 3.765016408042307 2.5027686002757137 11.455081276992209 0.46530462328276645 0.1314399358112575 0.23233413762517408
Ni 1.1004628727418908 3.405089453908772 12.809819289441005 -0.07142241760704474 -0.2237924187027501 -0.7474819096823127
Ni 3.141212082071974 8.609659199497612 8.386856881766557 0.8013413787049295 -0.38880813358692395 -1.1721049960853167
Ni 5.905686261358665 7.774736619459151 3.6722981196783975 -0.6821743467237542 1.092832229195918 -1.1858246596642545
Ni 3.22797475111353 8.435552293461141 3.8352861734066095 0.5103156407758179 -0.2257508279807015 -1.1255379469590552
Ni 3.495041659694525 4.3674390247274735 9.531326274579085 0.11570941244987815 0.18845543396435285 -0.1256194724747385
Ni 7.128914494254665 6.1444653412083685 11.462648929985278 0.6699505509640525 -0.22318898079079624 -1.2983181362799963
Ni 0.4562900379051298 0.16358325218047648 0.32761812822473235 0.6355419915771958 -0.5232382623747569 0.26136189231609186
Ni 4.739333556901198 0.7330336920100405 1.7193375016075905 0.14080337930402848 -2.284196330621163 1.7568820984048195
Ni 6.320771301068473 5.735786635984768 0.348460978453117 -1.3944830509390436 -0.1950713966189737 0.5562921075059323
Ni 7.767794152015942 8.827311006041741 11.494115391061637 -0.22967973072146247 -0.379808758301791 0.5907394905505245
Ni 0.001618394570203304 4.676987654901396 5.6807848467959605 1.8719772743094665 2.1789150554831442 2.393631737136871
Ni 7.86915962888634 9.145156066550282 2.491081810513005 -0.14029892886378417 -0.627968550105312 -0.5442081797582047
P 8.477107141128405 1.7881033685925063 3.700759510095768 1.291189495655015 -0.13560409449127614 -1.458031208004334
P 1.7398514024623573 3.102310638191905 1.7286607628598565 -0.010085409260460051 0.2852381847130571 -0.16209005659694664
P 5.017086776625141 1.2484991778692462 8.379821726930782 -0.47925182949147777 -0.580513184836826 0.3396450415987119
P 8.375796186253634 1.5663442383777872 12.44871829500163 0.31983983394732657 0.5575444918557947 -0.2642361285400933
P 6.320962128053169 7.794791626850721 1.3941456021882725 0.029754348444297144 -0.3134948655659053 0.23951805696812295
P 2.0249469175974415 3.3329841146916848 6.041913102233151 0.18744473331165135 -0.5614284002912331 1.0454115738201093
P 7.035045791783018 4.017062506827984 6.151236973065278 -0.6587976196710267 -0.05205044083833617 0.4218918035147702
P 1.97533190157661 8.68185540870741 10.22896428702789 0.5186861242277002 -0.7282803970531972 0.032242404973473505
