# total energy = -381177.45175021194 ev
CRYSTAL
PRIMVEC
9.15057577583364 0.00000000000000 0.00000000000000
0.00000000000000 9.15057577583364 0.00000000000000
0.00000000000000 0.00000000000000 13.39279260231639
PRIMCOORD
 96 1
Ni 4.963738927855643 6.948160221413142 7.832359302987618 -0.5037582992732743 1.2687774465084019 0.11089964976606062
Ni 8.045872430487309 3.634983833452798 6.869177027436568 0.7519078066641501 0.1476437992646296 -0.8585736208545213
Ni 0.67588165094554 3.412560790414095 2.716567089182845 -1.8178136437828696 -0.7604238145549613 0.09879463897241049
Ni 2.1327795770472946 8.04114158286107 7.184054741967028 0.14977730066786463 0.09644773600678873 0.3117611707042502
Ni 7.37064230053014 7.989779401572705 6.632606279339975 1.3727004078463134 -0.46010919512475595 1.6549412004939432
Ni 3.678174550659474 0.976064455992482 8.283749880790916 -0.2259701430803592 0.35030277842287416 0.11692168759042444
Ni 0.3493854504749712 0.5663812870782329 12.496024317646905 0.468521073337535 -0.18182610157329332 -0.5718477958523441
Ni 8.494250638776954 7.594520285101863 11.380646007166124 -0.6455649230308366 -0.1470118221075855 0.3579294417301965
Ni 6.53975172769103 0.1281538123897242 11.11794670527463 0.09851824538257227 -0.382869913725618 0.2403474948479538
Ni 5.614784086292208 1.9311374913764654 9.891822637576581 -1.2954657544328656 -0.27642238619364007 0.20580420965544555
Ni 5.95642997985756 6.21788022816882 10.260204683161946 1.2227068774025844 0.7700837062422285 0.4266576003345297
Ni 2.1524990676363593 1.023702352979337 3.406349379642932 -1.5133451500852904 -0.4680793578144261 1.3931000545485879
Ni 9.249035873690657 -0.32722458629464746 8.120626228384872 0.07825563847879427 0.5076815455870805 0.2591384023022118
Ni 1.4850377764309854 4.692808683140545 0.8969677948774848 0.21051986996356 -0.1493075601202977 -0.6625578580444074
Ni 5.364872713912647 1.6998017876260463 3.716138459038088 1.1425316533035743 0.09540001146856474 -0.4262518802556788
Ni 8.219788271849614 4.982927685055304 0.8550371119418595 0.6656352114181504 -0.6165263697066414 1.0559551536639105
Ni 6.196879656984642 3.5246187401837896 4.982439959371593 0.48046359041139186 0.10360311610464738 0.3354135200158675
Ni 0.400142778710927 6.427419260650955 7.430240914987514 -0.4835034056789802 0.3264455121893023 0.8205382633483547
Ni 5.079365602140295 3.368821038666656 2.213064897943043 -2.192874345876714 0.9759768760670547 0.13300805162932577
Ni 7.60890499006985 1.8236365282951028 8.798943762576261 2.6461837444708167 0.05288450670385731 0.7771732660991583
Ni 7.421693362245404 5.203465709504054 12.09028962213831 0.41576949266711616 0.30092885597543656 -1.8272933011385306
Ni 2.8221290452777468 6.404378111090274 13.217936109432433 -0.005586750059158121 -0.5542977027837228 0.11547415651062047
Ni 7.234756251691339 3.383974391991711 2.7308438173578145 1.431523905742425 0.2335695526941719 -0.05070189723024171
Ni 1.4783121033066409 1.5467309576613688 9.43382900436304 0.1912214267452642 -0.8424024104112976 1.5127347701948013
P 3.229576728553523 2.918768275027684 7.429383506046356 -0.20762532202458436 1.0672620940362976 -0.2268612874360609
Ni 7.0771650373410475 5.716071808487271 3.761352368527475 0.3664768170795753 -0.9765988259217698 -1.0481667679677433
P 8.851306101786381 0.24687795654184677 10.193602218079576 -0.42309636534583267 0.4924122781328358 0.5657959332313095
Ni 2.4649637753601663 0.9970009731469047 5.970761611486606 0.14410647553533246 0.48915057666242856 0.2735252671515031
P 3.9534513188222777 8.502412952282961 6.192961380478732 1.4683870973173614 0.7196977975905089 -0.4395252003258172
P 6.325985129245021 1.7545222301887418 1.4399931525916667 -0.04030487026663382 -0.0016429349200616865 -0.14122863976690517
P 1.6753331482593827 6.462209749383959 9.413285046905264 -0.7598214050842721 -0.4821844297572405 0.13735244464095056
Ni 5.181394520965388 5.566990629518805 12.786848828946544 -2.9911059753080678 1.414280545280945 -1.4842117230544438
Ni 7.275201796194201 0.4317772338921134 13.423997923156403 -0.5986106657684852 -0.5097484554184382 -0.631663482458396
Ni 0.7806941748923003 5.637660525490659 11.59248000402865 0.9283777861318527 -0.37520236987803124 -0.24461269788221102
Ni 7.542325401426678 2.5252843702386425 11.761992588374037 -0.7225761475795685 -0.5263405554491645 -0.5403512679059598
Ni 1.0514011455608219 4.311412688823965 8.435102232643006 0.2660955503463353 -0.9315078471204022 -1.0556610194622593
Ni 0.5351512873420752 2.041099959315581 7.501892667729766 1.0470861333090549 0.266690760728173 -1.309578539685164
Ni 4.658686186432134 5.085194518848061 3.9281325909750002 -0.5713423169708354 -2.0509743910743965 0.454088699962289
Ni 5.239509827105134 1.6321790333554242 12.621582111716389 -0.17576112632613602 -0.1581290150666696 -0.026813777758734468
Ni 4.509870374158369 4.615230102530757 6.4173838243033785 -0.3594029409519294 -0.583530374396595 0.31983134930689433
Ni 7.830120157118874 7.4144278051559755 1.1587767457553768 -1.2561605290753397 -0.14281269642457342 0.7486265648097172
Ni 3.020431170825602 8.236771740310544 9.592426782038066 -1.2685776717927701 -0.8112984899176414 -2.481691506190281
Ni 3.6452873816677807 6.127856864635074 10.468034388107172 -1.0423915560468628 -1.417455857685133 0.5903502255319059
Ni 1.9416149005293561 7.713523521812208 11.508533537803581 -1.394884143032204 0.7732942427597262 0.22276809120329377
Ni 3.4967186349373582 0.783387189314742 10.905764071478721 0.4156645916581357 1.748363262300531 0.517483876389483
Ni 8.515196306507056 5.432413113002155 9.577172772380537 -0.8252061011376691 0.9693112911214209 0.3096171277780539
Ni 2.7709224237759336 5.71284165527245 7.608244318505799 1.3335072825866194 0.8600332361191834 2.3245233123749833
Ni 2.120536106788283 4.997733316504542 3.663852984663676 0.2354883669834396 -0.007513020547593513 -0.007267223085374581
Ni 8.653003976238526 2.4696397195323296 0.8530688231132246 -0.9710452430933922 0.3520526712344453 -0.9884798936300718
Ni 5.9887772648841695 0.4689514475895967 7.921702778748386 -0.4396059329650816 -0.7172555066976034 -1.0935274554907295
Ni 7.754719413520779 7.956315746313211 4.1069668667649735 0.28197854012517887 0.125710489526648 -0.47930659398881326
Ni 8.822481788396333 4.527576738097971 4.540183486211453 0.07667826668934537 -0.8784155952811131 0.3725194237292294
Ni 1.6275854443643751 1.444153004295513 1.1674789432264678 -0.43898295466910203 1.8593788688191655 -1.6688578105750358
Ni 8.644457338553986 0.33886594867395536 1.9382850060396295 0.8529627024256471 0.06115883089750758 1.0109299951034718
Ni 0.5038755347275204 7.031833085425396 0.08321167499801471 0.7526909646870779 -0.606144255141369 -0.4041072258378395
Ni 6.940656749356049 5.645511719423568 7.675650204132819 -0.3761958441395521 -0.5134912102903222 1.2286857206938389
P 6.522146020083902 7.110454831662635 12.869736573565508 0.9604199021690621 2.064693540432702 -0.3511360729574469
Ni 1.783401447032867 8.420561052830902 1.3683285890434624 0.9111135997347662 -1.2463828808632855 0.14303098308296658
P 2.8633157864106384 0.0408252933935562 12.822165475781112 -0.8617864713648641 1.348090579717433 1.8623695760163734
Ni 1.9291426658783604 2.545717605730699 12.19357491500418 -0.18704801209386498 -0.24252239101208553 -0.665398669927312
P 5.064980897172309 8.465078603511088 9.638096390196285 1.4919648846373015 0.14602940358965819 0.1397685102816109
P 8.05010914702686 1.2211992278674069 6.3716474169426975 -2.372766720762404 1.1650887126684837 0.754988759582319
P 2.6644280240193026 2.9176793565218384 2.523778185481816 1.8911245366618785 0.8447333725373194 -0.3737460970474789
Ni 3.8193953851193534 5.395517991862892 1.7270677579778966 -0.89702858239661 -0.43222660978187494 -0.3055889804552673
Ni 4.845156617626551 4.683045018890646 8.932724263951238 -0.15558310871636433 -0.46983747815611343 -1.3095307171663642
Ni 4.37484447943343 7.798468315843897 1.2451087670600602 -0.26841982760413774 -0.0734528177735122 -0.2465690502776334
Ni 3.9050996769324313 1.1179990353553533 1.6461217655180962 1.346802457033629 -0.9860304036483147 0.0021633261999059517
Ni 2.8289553747345644 3.649880970658829 9.841920888166646 0.8134970402308571 -0.5301475879000804 0.6331164128548387
Ni 8.073973848398685 1.5264532819558616 4.164528563076116 -0.07129411955929657 0.38151057148424616 0.3086815033376619
Ni 0.2410710012157119 6.137803540398561 2.6652863480180287 -0.08346983568988205 0.07242411939868172 -0.9270492971284163
Ni 6.074014877337599 5.738426664871998 1.4740644060762724 0.5767508895809164 0.4588874069025129 1.437766287107711
Ni 5.846604770553634 6.453104926582975 5.570330589641777 -0.055416271986775525 0.1823349228889118 1.3301702477935864
Ni 4.046695684995166 -0.10640014882713289 3.841882924851431 0.44335100182981063 -0.9230525172641975 1.274213529922309
Ni 3.3955864725288443 3.284827904505623 4.628696089700533 0.3245850619417958 -1.5121742697056408 0.1530256324018332
Ni 3.228066883566425 6.629143701502898 5.39854134206736 0.48482983779988753 -0.3998044846974276 0.022767118493186595
Ni 6.262891909935693 8.842100622652925 2.2609709067973043 -0.2789299831068422 0.8194545433658725 0.5243307241079873
Ni 6.222858141338403 9.313455926473495 5.320742232583698 -0.5158026320323181 0.14625874599164487 -0.7869455149945737
Ni 5.275636299887329 7.012113594836332 3.5087644527616946 -0.11621514844170308 3.7668553644765064 -1.9552586481376262
Ni 0.49616068437223476 3.5249024080298503 10.524217092663433 -0.7378744684995356 -1.4014137166206058 -1.4619485407808692
Ni 7.2877838377533495 7.960387752490535 9.21517874367695 -0.010431993966601388 -0.5225918870400097 -0.6720591126666232
Ni 2.942395061431845 7.13932489793108 3.103284143256985 -1.545663402602022 -0.057013441270566324 -0.3096652074071699
Ni 0.36849185249351774 -0.002563076247794484 5.73364182884925 1.2168468190773816 -1.151379076391875 -1.7787485594606076
Ni 1.0895315944168007 2.708808316064298 5.11599352646972 -0.9265934405379204 -0.9239632020039249 -0.323175840299095
Ni 4.686412430740658 1.6813084741780184 5.951194020453818 -0.3157651496573207 0.6533147421795845 0.9467241498495245
Ni 0.6721665172197114 6.690617268916976 4.952814970609599 1.1445908498254482 0.753257121603193 0.35521898477756886
Ni 6.035070027246157 3.7690489177314017 0.0961707202751534 1.443658741332746 -2.8756176777300606 0.9088921666034152
Ni 4.364586684096845 7.862943272080813 12.088093483975257 1.8881713675708258 0.23580872643733586 -0.6201295136768675
Ni 5.181632435933052 3.829506771245069 11.100964151871269 -0.10230162368440444 0.20358354785504296 0.8934760891586613
P -0.021089331768268285 3.772205866340788 12.477810096757098 0.21652648116895615 0.15671310855574946 2.4575491046161226
Ni 1.637156946525007 4.715300798160462 6.064081927437632 -0.3108078056520454 -0.7911027316960569 -0.8393798215348899
P 8.044682855648988 6.054313687899893 5.934158393711516 -0.7799839960750761 -1.089435030588911 -0.9432048238423563
Ni 3.530722174161936 3.057225635632391 0.3772800653759948 0.5686066632072272 0.2682596478771896 1.3108774610022456
P 6.9585186730821995 3.869403281207168 9.564583410360846 -0.4777281937580999 0.01566830266487624 -0.14151197533527887
P 3.242405835656015 4.423406584563903 12.273382575849464 -0.5390376913008588 1.170005690354127 -1.736714108097377
P 0.6683516422189777 8.20891738794251 3.340939234571584 0.6364251655130976 0.6987080827127192 0.09463048029239186
Ni 5.921328371551456 2.9767554731079184 7.613802378173455 -0.6984733409940939 0.1774482842205718 -0.13955176628511448
