# total energy = -381162.67611571436 ev
CRYSTAL
PRIMVEC
9.35776916263039 0.00000000000000 0.00000000000000

0.00000000000000 9.35776916263039 0.00000000000000

0.00000000000000 0.00000000000000 13.69604106731999

PRIMCOORD
 96 1
Ni 6.667709999597187 0.0628420990247384 3.560929691292063 -0.7649453565743988 0.2658158143223874 1.048172424394698
Ni 4.866723098219459 4.576014640427407 13.320975346665954 -0.33929999955446727 1.0435169279005576 0.6767763156366345
Ni 0.1358495427253123 8.296120921492488 8.383552430629253 1.0044706126313734 -1.4371438230323637 -0.30241006850665336
Ni 7.542698850346816 7.569911243164021 7.256025462631373 -0.6334655686641413 -1.4349329314239738 -1.6915578232757127
Ni 7.995802034737827 4.949539355589563 6.400365084152699 0.555101943852573 -1.5845248555539098 0.046237176590668755
Ni 2.5868897893970306 0.4963660229303855 12.4605350196828 -1.6150376794307861 -0.15797552020794084 0.3031988829565359
Ni 2.364895430799179 7.419541249979817 6.706718796260804 0.5277785734472717 1.3810202405659182 0.6551008875457298
Ni 8.11953045902568 7.882198716718271 4.721190135931821 -0.15216405573248631 -1.5759839079624343 -0.300245970975799
Ni 5.386491030351105 3.0756460744185605 11.678326578941432 1.2962990489674384 -0.25799091896132986 0.8287177138353534
Ni 7.399141313136108 5.444237824049513 12.244110405309433 0.3509172720784215 1.035313823264475 -0.9554628152741029
Ni 0.8353437257807955 6.254321187667047 12.224922299576393 -1.6626632517285496 -0.8941880276240213 -1.4102385140010874
Ni 0.993083897982479 8.149503393755223 10.627703629736658 -0.8711722834551382 0.37179540107901127 0.40472043394180623
Ni 7.174423843702697 3.9048941493461493 0.23916680084642492 0.05328611301765016 -0.7673555086777881 0.43475040464499315
Ni 5.975908838596387 5.592305806011904 5.7515432212846855 -2.23498747299668 1.231647888645956 0.20281581645108296
Ni 9.00511230450333 1.5604454442366509 3.44543048923373 -0.5280361979840326 0.5270110991536279 0.7115060058083359
Ni 2.4854234980225627 4.44093524210679 12.90119143526839 1.5614003537213046 -0.8354236651006192 -1.470261688632255
Ni 1.3495026110573412 8.067688417688915 13.49453108458303 -0.6466702402798733 1.7962202338828097 -0.22350368381773764
Ni 5.634200538695063 7.909036798767702 11.797879566614762 0.9699509815879489 0.057551573162223466 0.3496690014936171
Ni 6.629998189743906 4.500927900411845 3.8452870311319014 -1.0021118825912096 -1.2087229044186667 2.9633149212377288
Ni 3.1511351985094795 0.4788950678445115 5.313625824742285 1.112904831576077 -0.14331431865134026 0.2795575893885121
Ni 4.742339630087999 5.795565910682642 11.130142844874186 1.4914614626383216 -0.5746369285617071 2.490713764293549
Ni 7.022762478369671 0.3424513067753573 7.9532634875340955 -0.2922776080583418 -0.2619437329614908 -0.43426343770624565
Ni 4.635539410272743 6.533557020426812 2.4772579086235624 1.1700972216266687 -0.16480616997652908 -0.5137706892039539
Ni 4.4925433392136975 1.5520328097309193 7.991228892932542 -0.31242914330555227 -0.36867408184121025 -0.8423602443194526
P 4.242269802110484 6.926527179974852 13.210544312403288 -0.8220014781574424 -0.08079151752677052 -0.04987271646072701
Ni 0.5602814580817173 5.0845064606798465 2.561351501488697 -0.7760442947010378 0.20680514011613418 -1.2913399051899503
P 8.967147834881803 0.8681576792377456 8.547535170660494 1.4419684981145167 1.5808638617625548 1.549986455457408
Ni 6.540388191938696 4.647620290302665 10.110006571927725 -0.2643376871149641 -0.22901947142964432 -0.8934053838217259
P 9.41391580952823 2.2982400408277384 1.3066664867932294 -2.6337660875327544 0.2918832008334005 0.8713026383854156
P 7.205220262121343 2.494631542909815 4.7362140343733685 0.38355691249031365 -0.3978216499394439 0.16327790625746075
P 5.0924231334182775 2.108183748490245 9.87910548861068 0.09044292457360553 -0.5677034346666674 0.4929997752051896
Ni 8.766133594817711 6.230355940760287 9.778220314703182 0.37082352408404523 3.0486668044416723 2.1513548864766885
Ni 4.807039246297817 0.6850336223194357 12.850105501682528 0.2734285936726388 0.36242141606327904 0.1984552254895421
Ni 1.6766876531690162 6.121075912108526 8.80821173977708 -0.968713252526106 0.4654203229250242 -1.970259235311516
Ni 4.70139003209347 1.3782028891764495 2.3614031113358434 -0.42235331653222097 0.041295002094045005 0.31523678795767646
Ni 5.059296630470236 8.003325681170095 5.2509390646861736 1.2817918564901989 0.36604718574132444 -0.7805627513966815
Ni 2.2517600012393424 6.699114673013465 2.6774524081062276 1.1552609279447847 0.14239952014655477 1.050783379654984
Ni 3.7840198446625744 8.662468227682568 3.2656836512176652 0.055770570002400724 0.06861554428586893 0.892100034746741
Ni 3.274217936722924 7.9761975082756384 11.119377667192992 -0.18956357942686708 -0.8809514743290892 1.1743361994086807
Ni 3.5783173622321076 6.35425280489364 4.924151727765258 -1.1548989166196755 0.815302725981028 -0.2301458717246036
Ni 2.6082255031601758 0.7959652972340007 9.824020044471148 0.11826534610251245 -0.5759039681995889 -0.48598246334709205
Ni 5.13413071071755 3.7883431340303697 1.9001474384227044 0.5816987205044949 1.0805822081839715 0.058067079346061284
Ni 2.8156778884299882 3.251880941655981 7.1323775151585895 -0.029481554398884707 -1.8640029978547379 -0.9395039779520014
Ni 0.06825369694983797 1.1177855302665478 13.262712004108018 0.3422737374708106 0.3002272019227216 -0.6064270764891104
Ni 4.9185744973254195 3.0582593392554362 5.663272320251187 -2.1261691312396804 1.3226986220068897 -1.0805634391308938
Ni 2.6151221790564207 5.606192735496338 10.668585851792988 -1.3520400512834843 -1.2571974549802865 1.590177425853997
Ni 9.053987933005482 2.351569967466408 7.108929752888277 0.06686745124651064 1.3809004271586025 -1.2833368323798156
Ni 6.707227858904977 7.585941101793963 9.383226069678402 -0.5534728928895823 -0.7282891388039457 0.22045409835813645
Ni 0.24362297053678014 3.8725724145488223 13.121231891658459 -1.1332738821507322 0.7847410511440873 0.6536302165374743
Ni 3.323757966837876 8.500213867621525 1.0581297516524897 0.8199332827745041 -0.7630918483054276 -1.6573246131244552
Ni 6.678321709863593 3.020238723018743 6.9443041341133815 0.9130699521301887 0.47830283531464723 0.7704197494254087
Ni 1.4229330259255002 0.59392076678161 1.6377995717280056 -0.10683473566806763 -1.8430194536245357 1.1261668387923056
Ni 7.341684610282725 5.446680201809242 2.147251499099787 1.4251113173478618 0.7686449169131729 -2.778193179632299
Ni 7.213951060779682 2.187275613720993 9.103142423029627 0.012988184729551827 1.8844152429625032 2.137141571090784
Ni 1.7935942637141813 5.964024471719547 0.5523367120357039 -1.0389200525584945 1.1766159965817928 0.7134042512723133
Ni 8.512042087883199 4.419534023959285 8.873651555530174 0.3167840778401383 -2.896133281184909 -2.0938362234349297
P 3.2897237602779814 2.4164380235217258 4.1114145008042025 0.5410084418739843 -0.5909366941629951 0.14727458885066894
Ni 3.3748794599466767 5.361412208910215 7.034629065485041 0.7223691737750849 0.41239363421634784 0.10228516862417224
P 1.0439153002462538 4.07040501308683 11.008877385438286 -0.07421694963304637 -0.7773159623246098 -0.39095577605754606
Ni 7.948975757689239 8.836204570545094 13.088553625854825 -0.045912960482030606 -2.7661316204820747 1.3270928944198435
P 8.59980860515712 6.028855096698089 0.4063461548344614 0.7665926623698346 -0.23508958888312417 -0.3783753682893742
P 7.829252458616571 7.840519212726583 11.144181370219567 0.9441774721682706 -0.18761056946555432 0.4443663304682024
P 6.457833952106034 5.401341810062558 7.898958481345375 0.06738758541603879 0.2646624174442345 1.0078474995234064
Ni 0.803697621919302 8.887971749728305 5.604296851457559 -0.22368520370092443 -0.8881559624973285 -0.15051109351009562
Ni 0.6935810087015658 1.589267373355286 10.980390464456807 -0.4058092961306108 0.5558334227019589 -0.3738332574446465
Ni 4.097299241751427 4.020069572590357 9.324415297622593 -0.46295952008935753 -0.946257494625751 -0.2837235478407436
Ni 4.130369598084303 6.322707764939446 9.118687549215302 0.7464565537415918 2.3928902309851567 -2.380601129205158
Ni 0.18397280658423865 7.559177881898087 1.912076722591677 -0.7179736158105505 0.20419007109079026 -0.22796351936130418
Ni 6.803940403528709 1.344047031617028 0.45890500129151535 -0.635328590014809 0.957736441799628 -0.9242097707970921
Ni 2.9995861264067862 4.653431464972364 1.846568595123465 0.13607717747295275 -0.8027639700840692 -0.5595031582440622
Ni 0.73918516109337 6.227062006003871 4.681060278518718 1.0867852516708898 1.1923565472455013 -1.9281165405051957
Ni 1.9248556922034978 2.566461779245738 0.4375777095206448 3.199078396259426 -0.16657586028244215 -1.9954269928263957
Ni 3.1241848232297165 2.47063822269547 11.348498902809268 -0.4133009765219656 1.0807138486658292 0.005494190345351828
Ni 1.2728999124322935 2.888762065837956 8.789859282833097 -0.08554420172040751 0.2808860783919485 1.766585184625196
Ni 7.940319821184454 3.007250139376968 11.703499913851184 -0.26436056993309953 -0.3171301483256474 -0.8282628856861219
Ni 1.7274254777408473 0.8246431167070426 7.311207291793607 0.5034052868092297 -0.10039540780062711 1.1597482742921768
Ni 8.19291408504787 0.23770979618286273 1.873837134555836 0.594141574253538 -0.8835639722512718 -1.444604393075467
Ni 5.927257796554899 8.638259678776754 1.4715297929056614 -0.6875484665514738 0.27336971541024535 0.2059186237461228
Ni 1.593169563109335 3.0042462954655784 2.6327625097647127 -0.0700569047180858 -1.035517968855481 1.5170467673065937
Ni 9.134230803847137 4.020069572590357 4.454308430062453 -2.101946254136574 -1.2379051824095777 0.2891909987132181
Ni 8.058096704264695 0.5536514786075117 5.7662938728657585 -0.040401029524865906 1.0596243749853815 -0.3198082093784428
Ni 4.837320987410774 8.912947635708058 9.779740016420346 0.5409505920528555 1.7452859089267876 -0.1319058197040825
Ni 0.14218755980065373 6.444152893543876 6.682065753318257 0.7951702168972111 1.8529125443685315 2.6779229845556265
Ni 6.249773311838587 6.748869931819888 0.23926037853836854 0.645787580564604 -0.6867858773538366 0.1795031098670715
Ni 1.2513489699776776 1.8079116505815553 5.00234243982259 0.38277709690149564 0.9895592427371795 0.8684134897630786
Ni 1.9732260011691554 4.20250864080364 4.5809153041544945 1.0891419248285241 0.5494858832173762 1.023794766881282
Ni 4.122724300652509 4.553986451743879 3.8635983138914294 1.4320039307026369 -1.206768094685141 0.16902946402925728
Ni 5.248258063811989 8.46516902198864 7.464821623557496 -1.8138325476479344 -0.8866063586220214 -0.3857554628035292
P 6.595879763261263 6.872308265262719 3.470714245819977 -0.9161902429267254 1.5621423740936515 1.2115760575967456
Ni 5.7985323235172554 1.0256957236248307 5.918607474711631 -0.5519112048294172 -1.7960842225255778 -0.6778487227652068
P 1.5752962239481032 8.382811295309057 3.726171987056867 -0.05089575840860267 0.8852182200252433 -0.6770156853409501
Ni 6.908691271890398 0.6440278777097411 11.59090442757386 -0.4913964352738117 1.3775711056750535 -1.551262236846038
P 1.1361080423491088 4.576267300195655 6.653619070744316 -0.028945479389756598 -0.7295559213315113 0.4368751642974799
P 4.433832695288269 2.446205087328991 0.4493029943211804 -0.6357088561723633 -0.3100824974502466 -1.47717358526074
P 3.1710766046626646 8.628892551813198 8.403698771927795 -0.19762475916844674 -0.4163431057823991 -0.7569379128888899
Ni 6.94181777483844 2.6394149478849847 2.497897404358647 1.6056667797388475 -1.194454824535427 0.06411277131950893
