# total energy = -340866.65325851814 ev
CRYSTAL
PRIMVEC
9.31604130199811 0.00000000000000 0.00000000000000
0.00000000000000 9.31604130199811 0.00000000000000
0.00000000000000 0.00000000000000 13.63496812536125
PRIMCOORD
 96 1
Ni 5.639978076927784 8.27217900976706 8.990652622050472 0.11041216860668081 -0.06355175660971635 -0.8781080913430231
Ni 4.662725328321934 4.111280886489465 7.490601327481439 0.7034373698675885 -0.08251029999009016 0.08064342198468046
Ni 1.0392696365702843 8.942160763070081 13.138996447863613 0.090879755000708 -0.6421273581041973 -0.3494103485155918
Ni 0.13941083395411918 0.9805506272808402 3.916167577468958 0.9691025175447244 0.005716590768803058 0.647267250433924
Ni 4.4272903286768726 9.319115748454623 10.863715421656243 -0.025625670987904255 3.422890355346202 0.11851422888852492
Ni 6.752816492866423 8.620384691222167 0.9075668953158454 0.7400254534042675 0.06549936725439043 0.4506213102389788
Ni 0.08619946837273794 7.664586786086663 10.921745975482178 -0.9193884381490489 1.8708243916519458 1.5962087196497412
Ni 3.899760165258809 8.440109973030825 5.207971807774544 -0.5075563328631258 -1.0527009083926708 0.39325871315910976
Ni 0.6251771835304284 4.301542401120326 0.07242942749843567 0.8610732473479235 -2.739519417211185 1.5941268974200482
Ni 3.943955465920259 3.613440947187768 3.1445506067067828 0.8935887034771256 -0.658126304635615 -0.7777795322245895
Ni 8.971850987186446 2.5820899458540425 1.9495959433650336 -0.5180212369501918 1.687355869379223 1.3544700008812156
Ni 8.73105926370489 0.8891239280478282 11.169262017685792 0.9340051596209592 0.07616327472613979 0.13432959865422672
Ni 6.640940151036036 6.105742885500693 7.291790481607532 2.0441931064865053 0.5949679268095753 0.44244777328925095
Ni 4.014244998696533 5.753671046841853 12.906943171266633 0.41299732923861776 0.36558747249608653 0.35633664332177983
Ni 5.821678149461708 5.39554378123741 9.4601727269338 -0.5660247614126639 -0.6251115402724912 -0.39567375035850566
Ni 6.573138001328187 0.904568993175699 2.8922218974876324 -0.17063331818126745 0.2229858636410547 -0.0812021227016279
Ni 3.52431437858994 1.5157758409405473 1.7609563515514495 0.7246453714037714 0.5775970396312956 0.28498030306598016
Ni 7.975714622551768 7.799781179678352 8.611191621514596 0.8081015802468985 0.010531238548627024 -0.5401224397246053
Ni 0.23295879582638326 5.819293242849286 4.546253383241907 1.2804607963836012 0.9148874649549017 0.6834892088804359
Ni 0.7641660008066463 2.1375750278394747 9.876625864878296 0.8008243298591949 -0.21133670943790056 -2.5348308092174214
Ni 3.558439038438779 2.938652116494083 5.5692162208497535 -1.2563502764886427 0.9548465218463428 -0.7908664473155347
Ni 1.6715866342716519 6.232627370114722 13.452096490304696 1.709225929979437 1.3579006238293194 0.5134235902771803
Ni 9.074346075271876 3.464784873693931 5.2614747654534595 0.23411899743973874 -1.010040650519983 -0.5763837360494847
Ni 4.5781543039954915 7.913725682711699 13.538773871604063 -0.8942168239794277 2.071611093488142 -0.03439467542978593
P 8.316616527506334 7.283970596410394 6.172359103131349 -0.0896970475465165 -0.24616512997099543 -0.16613054521490742
P 5.623665688340474 7.462177153398777 3.8117095994490073 0.012602776365675068 -0.9819971141192056 1.0813851637012408
P 2.52185242180747 7.91081907777781 1.1470208352444975 -0.16170850488781183 -0.35292581786801797 0.3209796039787246
P 5.239658459574668 0.7844516810744179 0.08984297218570025 -1.5587994257633475 -1.309711979939235 0.3506935861033896
P 2.576062467032803 3.0973508826761678 7.618565541300077 0.46816548977032924 0.6782359309012964 0.16728497053432478
P 6.751540195187119 3.36935134503122 8.506365659857181 -1.4745734286337315 -0.05962208253800699 -2.4886008317156043
P 2.011119081132365 5.510028614675134 11.483070079277436 0.7297716368867431 -0.2015847722574593 -1.221993653385644
P 6.75913276897276 2.4308999090845056 4.545448477260215 0.6308124473120104 0.7336809992434784 0.3436251092923824
Ni 4.280907369298 6.355058786913369 1.8887975936228842 -0.2086319089122278 -0.9761283140432544 -0.3121926018147139
Ni 9.14196190415063 5.36370155154499 11.974406490039556 -1.6056703792832734 0.8384804496490721 -1.2836659335844602
Ni 6.362092398211725 6.478449755981859 13.199385823385898 1.0466637010596556 0.5196790842685889 1.2212187228928322
Ni 2.6829081464776126 7.7233523755833815 11.793852290604569 0.029173022019530405 0.2929563792929213 -1.0113735103987935
Ni 7.9381150792402995 8.110452530112173 3.6627749763156716 -2.509112064295079 0.0835672804996948 1.6292623076706005
Ni 1.637862564205368 5.697895906652118 2.378647164168821 -1.6437175638639823 -1.0408473514881944 -1.303148467789104
Ni 3.0770884925120328 4.339999020245635 0.9486525013396921 -1.2064796169104448 -0.14207556114823272 1.1570403884427105
Ni 5.618430073042891 2.0307107163117557 6.258027557141165 0.8343232329475889 0.17934010192664596 1.921572825849407
Ni 6.068413507391412 2.0931095619758358 10.817315945586593 -1.0567023162425802 0.7070117174824081 1.671671882985063
Ni 7.728206033181319 0.6744562480137493 5.438416204012283 -0.4583382192672622 -0.010388799433491785 0.40593450885456545
Ni 6.633273048918756 3.398808668111217 2.6800760698753607 -0.3290927200041623 1.0919485410393839 -0.41481458495301465
Ni 4.279146637463048 2.993523600662705 13.27590499308298 0.4139103279711904 -0.19856166916041934 -1.6590338825060782
Ni 1.2729811685462131 6.624953823899643 9.493033199957226 -0.32750429247111984 1.588862563697315 -1.0738927119789377
Ni 1.358604905557046 3.1929800482094284 3.5036690991220136 1.3023766226200861 -0.2034143692670303 0.032619071586601885
Ni 0.5756521755527014 7.925771324312723 2.8613252460028726 2.373028201953907 -0.17690166768848245 -0.4804054834799469
Ni 3.1319413445977453 1.29274049247179 8.8094984695458 -0.16217670277348198 -0.02894470805880821 2.215764877321642
Ni 4.055226265056087 4.509010644318155 11.078261993151411 -0.7282400307335652 -1.356778080189102 -1.4629507567931386
Ni 4.596944759609771 6.688778023906303 7.0228950558693555 -3.1003974000467442 0.09884117593962978 0.15375402592742551
Ni 7.027826036611368 6.832040109397826 10.846930709767175 -0.06430791804945053 1.4431015832776952 1.3867329746799795
Ni 1.8137866910373306 5.187628368049753 6.3837149304282566 1.3125412218579138 -1.5451090727604486 -0.3320492315293249
Ni 6.138367662675313 8.323948252131242 6.181726382814125 1.6323255199769566 -0.7738696556472221 -0.7006832041612191
Ni 4.65959513839313 8.671138485067779 2.3724436121640866 -0.660389646748495 0.5424202346198465 -0.289060900893257
Ni 7.149549434259453 4.26976538371809 6.2140278933502655 -1.1007831086118784 -1.8396885894790898 0.467901180365349
Ni 7.7746930800406435 3.625020786716053 10.302677320333647 1.857286247956195 -0.06771565817941885 -1.8070304371244363
P 8.18312696950087 5.626954250974009 9.602617795589738 0.2861128740085266 1.3585156317054992 -0.09498040743264287
P 8.441628487787954 0.46197783772154244 1.9929826116282097 0.17174891984294938 -0.8948724552855557 -0.07771802080776938
P 5.468758551030484 4.416306715801693 0.8425670108775924 -0.7735058445499001 1.1578819105073994 0.38872303007228537
P 2.682051070663773 1.1894535408627047 4.088090464496095 -0.764050098453639 0.3694816653441701 -0.29398867721217753
P 7.020773793230104 0.3506250574209132 10.02305167804786 -0.5101829718526955 -1.2826151237224428 -0.9487699766349595
P 2.658751650985382 4.7847002590892975 4.313081250066209 -0.27992705691278885 1.072683779272501 0.2174777893386319
P 2.214041096100264 7.0073866416595925 7.396670476305384 0.1460528006284259 1.4593036469588545 0.026802722015140938
P 4.853666913978994 7.386046462630358 10.942375417679632 0.17227599599101298 -3.3643291099725414 0.7331138138860986
Ni 4.7945100507411755 0.9891865977094162 4.478568615656387 0.08761111155176525 0.8381433780246275 -2.0097608929505646
Ni 9.02089062940438 1.6211495858355025 13.609661494241733 -1.7316523773037533 -0.5586153563224703 -1.4941397808014332
Ni 8.90140308170544 3.141639343752166 7.651412040261321 0.15057639953039229 1.0767834032631713 0.7992731833219913
Ni 1.054603840804843 9.092801153393784 7.882607309440315 -0.5984697693152466 -1.0090754583932364 0.9148571259375986
Ni 0.7749763353107667 4.510585055324012 9.774431684931857 0.5596630808606943 -2.103512570182429 1.0936932916446325
Ni 1.2787850623725379 0.5935958029987427 1.7243321977802943 0.6290916079661617 -0.5792433169854669 0.3752882447236182
Ni 2.6093486831507127 0.939895422372204 6.650346558092922 -0.21287834289340757 0.25780888485751086 -2.303571392713665
Ni 6.301212067304772 4.645537231837876 11.908276569772838 -0.7947932931737667 -0.6117875694700754 0.20167450375778814
Ni 1.3461959383392863 2.3210451482498047 12.07610971460133 0.9230327197698556 0.6961374937720656 -0.11276318533736063
Ni 9.288819981643696 5.400639655913172 7.813463649762979 -0.9648702246309317 1.7152528528998074 -2.0750106060879943
Ni 9.136912609682142 6.974976133438432 0.8385182592613475 -1.3997836372163506 -0.9202129909328732 0.8833032623907175
Ni 2.7398105276833755 6.960974123131906 3.7819858375834037 0.9141963524251481 0.19746432233118252 0.7411526250301752
Ni 1.3218438059765056 8.242013667536499 5.331913354893008 -0.5701236140723859 0.02477540717246701 0.7755102765744386
Ni 6.7524717993325964 6.412799611850062 2.149975610619925 0.059188080324381935 -0.23008570791062952 -0.9493770140913393
Ni 3.0566118333944385 5.444890852823351 8.898098681801432 1.2776801483146705 -1.9924244585546462 -0.8655359111049674
Ni 5.504718471045913 1.5850592412397058 8.59623378535481 0.1990892595291152 -0.7541914604920043 0.16230448660059787
Ni 4.992066025831125 5.1225465024466965 4.781333441707543 -0.5661528023500959 0.6941685429711528 0.7204277337779978
Ni 7.660879001587663 4.303461505660009 0.5146339672322191 0.2996790427287355 2.1812894692525915 1.220980381629781
Ni 6.502559671266814 2.395154258022536 0.2008687594312669 0.9102836476343034 -0.5767712012958905 -0.10296908206507428
Ni 3.240044689638949 7.81140759941391 9.309138268056559 0.2717800023256222 1.0570674128914825 -0.6413184890496568
Ni 8.126559965787477 1.1558412632938782 8.343592057142779 -0.15912583176230016 -1.2272600439909058 -0.17006716126515228
Ni 7.283504794337655 5.612216273392557 4.316775992107173 -0.8174981909704501 0.4509419268031912 0.31945005470807564
Ni 3.1582591617074836 0.9683186648507213 12.851380436822067 0.1063289996762427 -1.1294534799633775 0.16284338982320343
Ni 6.926681774536881 0.14604385546991866 12.250787355086644 -2.4741707723332036 0.21102663439664948 0.5085094408050146
P 3.7254756617228866 2.2755549178261405 10.94709306107233 -0.18891103344453272 0.07681942025289995 0.07840450535183272
P 1.4994541363117826 0.11075748525166912 10.482931543233788 0.43646764444641606 -0.5754979910104218 0.0814792876224145
P 8.328811225770632 8.091056531803332 12.883817961563446 -0.09118340228405586 -1.0845591905538483 -0.6257394036644771
P 1.7303242756440054 2.3585794792710915 0.6403120244778551 0.9701720964598195 1.430888329040955 -0.3977594292429408
P 0.20459331280488574 1.413644078471854 6.422574934148558 0.6360397571492208 -0.48594543946156954 0.05256954656659978
P 7.972351531586595 3.3138277379607635 12.269984921712497 1.4176905994037585 -1.556132934674778 2.5524408089897013
P 8.646041069388616 5.2766617762330315 2.6108923512197686 0.2619365338726392 -0.40240618398633277 -0.7967105648011374
P 4.602515752399727 0.030937642067160792 7.183623787484436 -0.6453522927993983 0.6125221336432547 0.7381403205664125
