# total energy = -381163.3202474025 ev
CRYSTAL
PRIMVEC
9.29296379062840 0.00000000000000 0.00000000000000
0.00000000000000 9.29296379062840 0.00000000000000
0.00000000000000 0.00000000000000 13.60119185476494
PRIMCOORD
 96 1
Ni 7.311685101806277 6.969824853254365 11.768852461593873 -1.027915473917875 1.3342408183185344 -1.9797905718407196
Ni 8.526693615599731 8.602245408916039 10.345827464758568 0.3113233118358832 0.08116509881610537 -1.2435652089088323
Ni 3.9880009455531784 8.95775702086053 0.26853411999565974 -1.6840486593828612 0.9460577199101191 -1.7413199823005043
Ni 5.628794461335148 7.161705963758072 10.152350752420617 0.40136720119885716 0.30293663043408475 -0.6150382151968892
Ni 7.246113951297068 4.8463455199272065 1.3139720700743105 1.2627155565850383 -1.8401138499419665 0.4585202533710814
Ni 8.744660074669106 2.5755727150055225 7.428413087128149 -2.1213948497794886 -0.8710905223746094 -1.4340908951386528
Ni 8.581921697725047 2.399935704712997 10.007689048091427 0.012058473826430846 -0.409308824643437 -0.3252121540028335
Ni 3.946758773506711 3.887023604080237 11.628610490708871 -0.13048502809715593 -1.8019977597965353 0.5453759748140609
Ni 4.397123663972672 3.5140412207415697 0.3886419561452247 -0.8009767962766593 1.3563127105169093 -0.06799333732083773
Ni 0.5119484303340852 7.941320551296212 12.222874133200053 1.9381173604716493 0.5178330321987856 0.012460851471172088
Ni 1.5751294356376841 0.944629740541547 7.315659702298452 0.77899617824051 0.7042207850008323 0.0042999129269345295
Ni 6.2314152659086615 1.2809606758064722 6.444285463790501 -0.16853632644292266 0.7420589388945285 0.861404148324781
Ni 6.230179301762158 5.1860776798358925 12.900036585956604 -0.15941353820604803 -2.2511077755973106 -1.3703038825896787
Ni 7.676192302426068 6.583823028041633 5.882011918877678 1.0444381541632466 -0.5628733602678757 -0.7565787297772584
Ni 2.3928637594837583 4.3994747837400805 4.431281809937341 1.692480849310614 0.31920708545933413 1.0251337974076797
Ni 5.036423795510451 5.25520803536849 3.1455064497376117 -0.8872229091600978 -0.06279173851524024 -0.8913037640976909
Ni 5.9294218308041 2.431875620288415 11.378729207065547 -0.33520448932885494 0.812019427244066 -0.5889628582660759
Ni 1.7583216252618405 2.97020770331676 10.762812959601796 1.4209322462695075 -1.2166616996497692 -1.5560578584624687
Ni 0.7241012114331428 1.8567898665877456 3.68003399350597 -0.011882610370198889 -0.8472291423759796 -0.8692537262761868
Ni 3.4753174418056463 5.555491565187664 7.870737705567387 0.7685672695977022 0.4060702631014813 -1.5842168373951877
Ni 1.3833691336595746 3.401791514533982 7.95813895665216 2.6641758101728636 -1.2185992829921142 0.20213601677523899
Ni 1.8181404313598821 4.879168267035841 12.300577247568356 0.08817289759250621 0.9103201572991935 -0.1728084714557153
Ni 7.598800502335266 9.126089761836129 4.922135213109308 0.9222346493485923 -0.541611365565306 -0.5845624152055352
Ni 5.916746228579814 1.9676084564151726 0.3001404181811576 -0.3084051097478237 -0.6996203101143434 1.241782663087113
P 8.054118542350746 7.1434452904657535 3.728167827289629 1.2599847879174364 -0.5167030323594005 -0.7369730397311888
Ni 2.0713365150863456 7.28635248328472 7.460525851824808 -1.2165647690605887 -0.48021187941190197 -0.8934172108962677
P 0.16470198013320217 4.493631089998486 0.5235590589404071 0.1801713395786897 -0.37413407651451697 -0.011919377145405278
Ni 1.9726545355997671 2.6144173024670443 0.5927154347708259 0.6990878346496412 0.7496331516973606 1.1173309856682305
P 4.833957999571655 5.647175943153063 0.9305917898670555 -0.29052025904760287 0.015476241258728183 0.9974926386516433
P 8.045661945558884 8.59736660307458 13.178942582523032 -1.5548340133576963 0.047969071680110935 0.21333368526327132
P 6.437300872418232 8.34597335426858 6.627983190629468 -0.5101554610488698 -0.19778211068191745 0.5968494601030042
Ni 8.682545906584702 8.736733176797173 2.3599973354466375 0.6846102098587564 0.44860582247084674 -0.4159715813755933
Ni 6.1430020110979155 3.2126332423379838 2.4876445528898707 -3.3701351751313573 0.21537359851143556 0.7875862339023662
Ni 4.379086021804535 7.887049644412174 2.045102479104557 0.8411253434710868 -2.865632798603207 1.6734420875116083
Ni 4.216245422261894 9.04698805645994 10.439241263232722 -1.2837942316322084 -0.5441212764713532 3.1488022737126933
Ni 0.4717331307552014 3.0191723280379943 12.460378118747682 -1.946480387724364 -0.654527531540763 0.7422024064509283
Ni 3.8150124298603014 1.6835690268071803 12.334553251448279 -0.5406199481863141 -0.37172392441112756 -0.09138266277905552
Ni 3.6112827908844793 3.2348713040115293 2.6159850254107666 -0.672924545990712 0.08027061202629401 0.41798989735720266
Ni 3.977267572701968 1.577517727259122 9.111057464066329 -0.6833750519000747 1.0103833785713825 -0.8300217773587576
Ni 1.800288648461896 7.793896978212581 0.9871422606994951 -0.16912150952243132 0.3261783745708447 0.4469109512669271
Ni 7.505164602033281 3.1337545680859753 13.057511428369994 1.188295232691934 1.5992961003258135 0.05879238754786003
Ni 0.5415474484019542 5.193716495839091 6.547273802566473 0.3585773597268405 0.056496906645463994 0.36600373409789866
Ni 2.2894330756448262 7.475612978079301 10.133431208015613 -1.2407238828052953 -3.4734788669270307 2.507060838193005
Ni 3.7019728217545724 5.996675007708174 11.211897279696416 -1.0829923602873606 2.222836439456443 0.17847749681603456
Ni 5.262391496159819 0.36843998277618123 4.64031866037232 -0.7854830715164343 -0.6484016211486833 -1.5592051458421985
Ni 8.316393851424076 4.529994456203494 3.5754816489716776 -1.4460318695506127 -0.030895404027275822 0.9412006489281339
Ni 6.288585577407053 0.5600952742666554 9.942743314026275 1.791550596321282 -0.6656776346203116 1.6032355445895357
Ni 1.776108357415274 0.6806872738149632 13.072091158816972 -0.6196713430935263 -0.7284953412774808 1.7840702287838373
Ni 4.049092887651753 3.9675471328730803 9.217513936823316 0.16378672757307922 -1.4577674128199862 1.2847877058937294
Ni 9.277323449957851 5.939895000677099 11.165803251402663 1.529425600586921 -0.3155106104443534 -1.3534562149047207
Ni 4.083987965622569 2.4832099507040724 5.183795327998439 0.6744448392899804 -0.33580458480669906 -2.073012601821359
Ni 5.03234418453064 8.818102365269203 8.41766856772926 0.6841085876319896 -1.056612070521619 -2.47490687916828
Ni 7.8703594819526295 1.1336579112484393 11.819231475360954 -0.031240188961204264 -0.716438924333579 -0.7286979442065903
Ni 2.593991368677469 6.064067579064862 2.7688765782222347 0.2843578389906328 1.1387405616922581 1.0392841207661327
Ni 7.644596226500427 6.996133232944214 8.433092099262725 -0.8193061907134664 0.01932132603643124 0.24998758904087914
Ni 8.578027946015387 1.2183725665831835 0.345187129487612 1.5119377282148025 -0.12729608884621305 1.5555701201927725
P 6.60752937794937 1.1655885338603504 2.939135750532946 0.09251189128749229 -0.3714218197896765 1.0874771355315915
Ni 0.10849441965419092 6.181168212223387 2.1638135828389387 -0.12900664377941654 0.8257720009434683 -1.3115611173328314
P 1.468362577899545 0.7969952171862947 1.7621977203408359 -0.029478469075091166 -0.4232213209594711 0.23958310587810352
Ni 8.826596133915094 4.528321722772137 8.8898198818423 -0.21707026948756808 1.3649603588895782 0.8250901443850951
P 3.266300106594033 6.285899910953374 5.7824108653002035 -0.22690679596201566 -1.4459583360002 1.1684080068497038
P 7.810401281401974 4.6019591656058925 7.086411585530922 -1.540194923288283 0.2817111453964052 -1.4766231120739086
P 2.7293526751283115 7.328468193900896 12.66099554424483 -0.053976711326771565 0.5078633225805835 -0.08427561942062906
Ni 0.6773064936909198 5.916105014097794 4.342901080498872 0.008636592629075448 -1.2394995234798911 0.9866225287063588
Ni 7.654121514095657 4.424454269648351 10.880422847160531 -1.7421383644367416 -0.5292872967823143 0.7616450885565721
Ni 8.48194799631092 6.4434714001872395 13.480630279128196 2.124491743537257 -1.6347860657023072 1.139131883593406
Ni 3.951702630092723 0.7877013243824028 2.513255031020303 0.03918284084704864 1.001218424242663 -0.41630505345561214
Ni 1.0691182796885668 3.979470005053255 2.573400020137459 -0.22221658957519796 -0.4282239163803851 -0.5296043138021008
Ni 0.8422092018358849 8.024037219476837 4.434858671591393 -0.1447903889762345 2.851896937074353 0.30398949717863133
Ni 5.321819997790543 7.148528541504379 12.956140994540682 -2.137302007928048 1.9450624243309145 0.3544638517790992
Ni 1.7837564663819805 0.3630091749023742 10.952835477403994 0.42210340530494406 0.3542730759245318 -0.8858861926265452
Ni 7.709052221388732 2.2242243507124106 4.703522893076159 0.5896359730737006 0.09772377450573494 -0.2436472486451481
Ni 6.169403320422839 4.015526703462514 4.816617329666583 0.05626807846410955 -0.140484562512029 0.6037217617428055
Ni 1.7950938818611806 4.878341193283671 9.4432530305704 0.4625196043384615 2.8388478171998783 1.8483843174808745
Ni 8.160216306716341 2.692756984835615 2.2081400894735586 2.7397611009083462 -1.23339495324405 -0.8260995594862158
Ni 9.007511547479904 8.189154595078826 6.827947320792034 2.3118488022311086 0.30318782721294235 -0.5266879114862542
Ni 3.361664498108419 7.655153033044994 4.318691051969026 0.9613079612009702 0.32481106190967285 -1.1214046415169718
Ni 6.889161930008908 6.97313314826305 1.3411958066696519 -1.3355024586397775 1.2531160858220611 1.7074215297808464
Ni 3.6727464515233557 8.96875059668995 6.474371433146165 0.057121941823972594 -0.3479221940058395 0.11590353073855524
Ni 6.143922014485162 2.3255919966526686 8.644196634078133 1.6727527747540676 0.10988894911335914 1.3077196320995546
Ni 5.995801469138466 7.124534109727908 3.976770399154315 -0.4447504532804986 0.9370665721551023 0.5512900263056505
Ni 2.7260350871561196 0.4758127417350119 4.454989089141429 -1.2222183678019403 1.5136207723441804 0.2820145355694369
Ni 5.2639712999561015 3.459714556076485 7.079379600044766 -0.06718061161155527 1.5779736846989536 -2.222164867310715
Ni 5.6955272322827994 0.2224103542186813 12.544092851209015 1.265058345785602 -1.050729386488597 -2.1519986907082744
Ni 2.4705250555162785 4.950696207153385 0.945181742573895 0.6885630238589173 0.03598130319061545 -1.3990508728153839
Ni 6.5289852503836325 9.20045205582347 1.2326567807906246 -0.6853018366091423 0.29156464115171726 -0.18516030815284887
Ni 2.475794165825054 8.986927633310701 8.809518454877287 1.789400639857815 2.265783118221298 -1.0006486677821218
Ni 5.576010428612315 5.891887551197142 6.105629429055988 -2.326539571474064 -0.16039030029702056 1.0077780797380513
P 0.4065411331570995 0.822303674002732 5.694560764078015 -2.0015945550896883 -0.696640144440097 -2.715877095201897
Ni 6.128653675442273 4.919230232716851 8.599216832108931 1.0936986909612711 0.9778095584004193 -0.08179836152473009
P 3.3131459356355477 2.825609191139422 7.011794664343473 -1.6072166407244708 -0.31728184341216326 2.4778042553207325
Ni 1.5657621284220826 2.7152087846698345 5.716186419456413 -0.40933170746157244 0.24099721261681073 -0.4910485650160898
P 0.3676036160605025 6.724416272947221 9.062908761541058 0.8495629327154789 -0.00484678656934004 0.09002923407495461
P 5.477189054673122 5.075825960782425 10.651242569026607 1.8379896045101118 -1.1608024265883041 0.1260208216782152
P 0.6692364841809711 0.8994064629284492 9.262248404555917 -1.3713189541177544 0.4748051065740339 0.009538021397422282
Ni 7.8203354593915355 0.38814664119027276 8.000588284658258 -0.4059638194306041 0.330152014506612 1.5643039005213446
