# total energy = -340856.85485103243 ev
CRYSTAL
PRIMVEC
9.37568691229265 0.00000000000000 0.00000000000000

0.00000000000000 9.37568691229265 0.00000000000000

0.00000000000000 0.00000000000000 13.72226550509675

PRIMCOORD
 96 1
Ni 5.894756688077466 7.299665823159181 7.058499724450243 1.8394425349065546 0.9441610171080385 -0.19030200025478838
Ni 6.889526412603345 3.0328283517608927 3.8985501882805647 1.8851456933706243 1.513374460661329 2.5001689961691778
Ni 0.5364186583074502 1.0769944960557611 9.728139291469462 -2.197920135830737 1.6414447086694053 -0.31628168428242304
Ni 1.33782609741965 4.039533325335523 10.143800043867252 -0.42358873160121885 -1.5064183410584702 1.2206394533505946
Ni 7.729391043033821 5.6225148761147326 6.601644080245385 2.540807595626147 0.7570417854566059 2.7757768568813224
Ni 2.009153385430381 8.841572490919871 1.946914765037358 -2.494115590886246 0.07107171913584534 0.49264599141019677
Ni 7.784051295943651 0.019902707526069853 9.73471164777989 -1.1102229138685396 0.14554320798185902 2.0384919423366696
Ni 7.620295553692692 6.428702040258396 10.988556907568457 0.4578224559731083 0.4940284735800201 -1.9659737205622851
Ni 9.108329526218412 0.9006331431637614 2.3090590982911836 0.6686220619606162 1.4789144792112465 1.5739385953976313
Ni 5.475194712483145 9.691928514661857 5.750589567851295 -0.189289499829874 -2.0351600497499596 1.7974191392869172
Ni 7.952335494825047 2.112370319269887 8.421916758459496 1.3929167348931883 0.9634556036715923 -0.1552717481235326
Ni 0.3519107713239666 6.418370033619179 8.322211019253734 -1.4483471479473509 -1.6944569992003788 -1.6290337365995622
Ni 3.379034955354098 -0.2855009079601744 3.9228660314918247 -0.811205415983203 1.1917749637104182 -0.14688121006699217
Ni 3.733060881576256 8.150087476707403 6.135554322302808 0.9216636073364708 0.005408315499764879 -0.35659503918948915
Ni 0.553017373873756 3.7447242357134476 8.048684738226054 -0.6275718288875256 -1.0423067096425405 -0.8469352652846446
Ni 2.601640524775801 1.0412918814621706 9.996409562586123 4.461463823198556 -1.6031087892036842 -0.9779214013879353
Ni 0.38640485991411333 2.0905812235987984 4.678236036665235 0.09205269226288663 1.2618627216664398 -0.36796651425122434
Ni 3.9975771277760908 2.1313654603325483 1.1046752731897205 -1.3257376659435298 0.763642321492259 0.46423787258114885
Ni 6.124179739313065 4.775552850923925 5.63020387669987 -2.087375041190618 -1.3336582063421871 -3.0803574506767335
Ni 0.7968189780874879 6.9685634506873715 13.075671939829217 -0.37101172883545136 1.280590637093246 0.14744505299026217
Ni 4.698184685055672 3.217435621022394 12.584607227907014 0.23396858790480354 0.24130240256205537 0.4163253651705862
Ni 3.0109079964773278 6.702181442853051 2.751739641917248 0.3389374740087259 0.4674044432345886 0.9620240134313883
Ni 2.2365044099261735 0.8614587118201692 6.195588718774888 -0.8639649670734217 -0.15778911522874758 0.17703125128781122
Ni 8.276743627060558 6.142359195641052 1.6044349968698233 1.8621104088177156 2.520433659955485 -0.8930109765967846
P 9.074867700723525 2.5220690725552646 11.115198994391703 -1.4194883147341293 0.7407412485243694 -1.2654902911166979
P 7.791645602094073 2.4528014999141283 1.8878545024035855 -0.0651520112173007 0.700255372595181 -0.9407355363662573
P 5.365752322737613 0.7969493001313038 0.3743571026260976 2.9957984956877306 0.4138810173951517 -2.068649182646341
P 6.803842012716049 3.789174365909932 7.650725282139372 -0.2858740185248431 0.13001503043927287 0.023740795260365564
P 4.119882959544312 7.0872690187990965 8.166380544890371 -0.5369620397187527 -0.5259284076124103 -0.030971765791166013
P 3.826180200941682 4.911922212600337 10.42956628375836 0.16298197228359673 -0.7200649511219405 0.6509997208931626
P 7.850581168095993 7.55081234025963 8.705693477652925 -2.485230886802107 -2.2595638767844637 -0.1873344329860322
P 8.504704071185705 5.754496416459789 12.690735312437518 1.9030336293946388 -1.9124664926727641 1.1786901055020025
Ni 9.119045936008453 -0.010653592689783857 5.457304027302606 0.19005723123383397 -1.428171444330424 -0.25972615648488173
Ni 7.034465151837147 4.464214425816426 2.0570912710440963 -3.286585892353791 -0.7170634452914554 -0.9060174161587816
Ni 5.474529038734157 7.805746634748684 13.716213223302258 -0.8901686220519831 1.3208589976949896 0.28856493509344494
Ni 4.8653813042908345 5.126569181745731 7.488446210528772 -0.840753819064281 -1.3125545915943524 1.0110348961124522
Ni 3.0912763820593288 2.484397563774528 4.522556510856219 0.467057601418131 -1.6688837787169646 1.423914211715967
Ni 9.332727209433484 2.5526713136354853 13.182952296243528 -0.025355448045653105 -0.772455806018831 0.35090364523166667
Ni 6.475149191701844 0.5132157090962586 7.916141594253331 -1.3051300169955071 -1.0382986169244117 -0.45118463894161653
Ni 9.625173626030984 0.02574001000662906 11.911804206824586 -0.8299590424416222 0.5925055813120119 1.2747820008312691
Ni 1.0125929047628586 2.750470173950869 1.3933451632225404 1.333392097164994 -2.8975237337745323 2.9692495415546087
Ni 8.195653313609936 4.402391148340024 9.562566541154366 -0.6738408871573943 -0.2212727376046899 0.3889649708797624
Ni 2.6323365227220763 8.509935704311552 8.459817971562067 -0.4558933572711955 1.8563040865485836 0.24222260038347962
Ni 9.217987556755869 4.11166985807793 2.7732699686380253 -0.6464588956000157 -1.7114651037226007 1.1782648450391255
Ni -4.031545240347672e-05 6.909693514491689 5.702081640491967 0.6041315955867144 0.7601715893348392 -0.6702377431871683
Ni 1.338623030781114 4.763786364234074 6.063141206805541 -0.38187001170619395 -1.0610320539661855 -1.2385024496739445
Ni 5.79265546094401 1.7598726299644185 2.5232363455376445 -0.3372562296515611 -1.8002470956540157 -2.8973044186748744
Ni 7.305769395139334 3.551463207715107 12.8359168819544 -0.47905616854090405 0.9869788836045129 -0.004584791157205007
Ni 6.64271146271462 2.182228560167167 10.358525768780133 0.20633925622330915 0.4520194761380861 1.045707250683657
Ni 7.323958227153927 0.5204199866838938 4.0558217056751875 0.19595559899613996 -0.04730624128513144 -0.33360783426569646
Ni 8.865864894914617 8.141489972090195 2.973696833908919 -0.024572032912409295 -0.6038767992634309 0.6275728573287901
Ni 0.5268854601670188 4.617844426533488 0.617044875271101 -0.36592711522369237 3.4337486382169446 -2.628281153158783
Ni 4.089327596897119 8.981035829176085 11.796441070987706 -0.8744221578510037 -0.20342722478283676 1.1049979180241745
Ni 2.4766813736982343 3.2105069886209594 13.57433939601978 -0.11688697769774709 0.699895418152601 -2.225600375354825
Ni 7.2191380509048875 1.7905029981044553 6.115190330995751 2.2560142117599917 0.8492909100010146 -0.41203599376661293
Ni 5.551597182631036 8.35969032645906 3.779180821557173 0.7461652477534181 -1.4529766762995622 -0.7219287438035566
P 2.5175406159248275 3.112334174175191 7.209650793628822 0.3435497759697567 0.49116272199645084 -0.5516831479790112
P 2.6558413690419638 7.590021461643662 13.988339714319745 1.7820236306674535 -0.1499703905152772 0.3333548377146259
P 5.844409251006147 7.5993783968759105 11.427559369339198 -1.1685471035307293 0.6012627586793516 0.003460961965406942
P 0.12060695735531249 1.1753454485470334 7.1316807086804985 0.047119836305938204 0.7046684140612122 0.7081381177773676
P 1.9630812614511521 7.730834898771062 4.846278342832211 -1.0692832382313842 -0.13134377655302543 -0.4939099457242849
P 4.644077597655564 1.69341776330492 11.042855258975315 -0.8331266415363263 -0.33633886004361424 0.2054177728503043
P 1.850826165723983 1.47008890836287 2.959027634646017 0.4750552749116271 0.02912828482452403 0.9397166081834396
P 8.45261275640577 4.6036121342664 4.822059069192988 1.384034859022526 -1.3401535842585437 0.4580803376201853
Ni 2.1408724065504843 5.405908388468798 11.923660700105849 1.3986901470418558 -1.3891644669396075 1.1043422867180464
Ni 2.1062198688567055 0.7401551409500712 -0.22988808529122964 0.021806554352130185 -0.60298694045931 0.5143957243824624
Ni 4.058481587965157 3.01237060358778 9.333815726648377 -0.2474468248968964 0.3266936236443664 -0.968659773580351
Ni 4.221806048632264 8.963718936015802 1.5069109799371525 -0.76362432377013 -0.9334603428610826 1.7211532775446423
Ni 7.404476623721615 6.2286811422175195 3.871915737771775 -0.530218807457648 0.44402488796838374 0.23692021433395974
Ni 0.4508411412474563 6.110613120794965 3.431883825611753 2.251791431927896 0.5926472490961987 0.7257175214220276
Ni 2.4045260895826166 5.199108869012173 8.49482303507221 1.772188903965219 -0.604954348598326 0.22199727447554024
Ni 2.9734802555483326 4.84600176007735 1.3471399044935137 -1.4954379307875665 0.2095168826203424 0.5987441060225559
Ni 6.7329524462921695 5.952707806985813 -0.07250030938269876 -2.029801099430891 -1.4549232585029719 0.290858359113312
Ni 5.089375832981872 2.6744146042073793 6.460483742713584 -1.305307680223952 0.590792198165331 1.0009361171155535
Ni 4.57720082509882 4.28188544840005 3.5224229560233566 0.5883308811090319 0.5332786773298945 0.043810569427047134
Ni 6.94283656664199 8.803282186823175 1.6312072699717133 -0.048620075000548525 0.0984583386789143 -0.17872946492584058
Ni 0.7193748691577302 6.2706279640903455 10.455446929064072 -0.6813338531003298 1.4213464509887908 0.9782584730123797
Ni 7.497886589371809 8.158216196994337 12.73231366982675 1.7453198474885165 0.14861927580402146 0.43526616793914713
Ni 3.3245153377433496 6.978923584386404 10.23029169037128 -0.25242756594093946 0.4567137962899618 0.7681114130072062
Ni 2.0784397094447282 6.775330549748847 6.895507163088969 0.26625033075664467 0.29589077933089686 -0.787489817533818
Ni 5.704383371553607 6.279628623231587 9.557461479797691 0.04233192799899161 1.3271615428742498 -0.8706467499689715
Ni 6.035410738532573 4.6016432400792535 11.055644633073822 -0.4948232015671736 -0.8248934549932568 0.4190810735388525
Ni 2.2081617093178685 4.1109666815825205 3.491260048884129 -1.8347297028119174 1.9663786693101877 -1.161317932772142
Ni 9.561325200247802 8.650899152424639 8.48997955537183 1.85792413865051 0.7288884629508415 -1.8589176129120308
Ni 7.349703862572519 1.1491216531115627 12.709466059137906 -0.6022863148478594 0.0922421825658734 0.11109171117220867
Ni 4.392902953495299 6.174949082281629 12.594638275006197 -0.7070073466070339 -0.8563071934178479 -0.4917453339727983
Ni 1.7656480529133816 2.1280652186474263 11.648954020134543 0.006538572449466158 1.1178845441788556 0.6828742010042561
Ni 5.162056155547397 9.407376426186154 9.760852937173231 0.08874316827367941 -0.6974168747051215 -0.37855148885592227
P 3.8315805964264262 1.0802947377408831 7.6676446461875845 0.9120597656981195 -0.6717570080451721 0.9998621673250844
P 5.126991087642977 1.7590756966029546 4.431839242399112 -0.7057315652184039 1.5471806105774968 -0.13654974623399707
P 4.8366448248451 4.740947191663174 0.6336614046419571 2.1956575650488057 -0.805500909399258 -0.8342011055474278
P 9.29688395954081 8.971707021003652 0.7667511511437787 -0.27076364524596597 -1.8847266035553347 -2.0998829438496416
P 1.713481732640604 8.376510308229255 10.875650201622205 0.8907962283336529 -0.08057657330248703 -1.2747274934442498
P 4.208314435607008 5.899491409813224 5.469790566723757 -0.11181367693989776 -0.11871091828036329 -0.40537375125508895
P 5.870192389171162 6.630157418349909 2.3986653478855433 -0.2927308935456765 0.4770993019248493 -1.5737511619771736
P 7.316748324154328 7.8002618580844905 5.332623334117222 -0.10383837204390504 1.7315035104307148 0.40751779418128525
