# total energy = -340873.9838831524 ev
CRYSTAL
PRIMVEC
9.26267016583707 0.00000000000000 0.00000000000000
0.00000000000000 9.26267016583707 0.00000000000000
0.00000000000000 0.00000000000000 13.55685407275140
PRIMCOORD
 96 1
Ni 4.6878651909438425 0.8935114421760976 10.785033615769636 -0.6180633751764582 0.48342627258414167 -0.13052873685089778
Ni 6.305266352993186 7.599863457559383 12.155332671583992 -2.5155634763473773 -0.06475323311698526 1.3345472938153597
Ni 1.1490527672567945 4.083818677295394 4.635413468237678 1.615279620238263 0.30623484156938224 -0.13957824864767573
Ni 1.318587420459493 3.330291191490187 7.633172945970148 -0.06663039553504009 -0.7706462636139179 -0.29076194274476375
Ni 0.4880213800920744 1.2460051365444875 9.157831622350912 -0.12546726316759038 -0.7073680723805624 -1.6051340471638291
Ni 8.643349572215449 7.398224389342723 7.7582078788583395 0.38802548978462853 0.7627488631437122 -0.11616604037132253
Ni 8.149260216856309 1.11198356100005 5.602139834705427 0.4790867646685233 -0.021368181263130944 0.3012751835712618
Ni 2.52398501071973 2.0921778499808688 9.98437951637296 1.0701255316270215 0.5606262161049119 0.8510300041793085
Ni 3.805651427646143 2.8605163454823606 12.73551206285319 2.0749311590003106 0.07405111347914342 -0.3172427626441117
Ni 3.842470541806703 8.148787820674627 11.524532787512914 -0.8185623705689064 0.03000451678189026 -0.35176265079785224
Ni 5.332769342972726 4.620136546228871 0.48774535251924805 -0.05100888694769925 -0.6626493893169492 0.6400437361022913
Ni 2.7527729653777997 0.13023870102288465 5.4567149858419794 0.1864350611002144 -0.7058426368749715 -0.9250803463275037
Ni 4.955621199255616 0.2454783601438336 13.315989712103766 0.20945106237941347 -0.6323959897490463 0.5474017469948379
Ni 2.739425457577707 7.0104797508835555 9.763049863783337 1.3139090487397176 -0.4428154410413148 -0.6232346349647524
Ni 1.709907449627082 6.6170663582441955 12.127622467326699 0.2085318929992538 1.4228130082319883 -0.5463779337160138
Ni 2.91639803497435 4.43296576891002 6.204023514855388 0.913032156913718 -0.4552804062775449 -0.4982643660382387
Ni 5.063281215328116 5.9703837735313305 8.286640436625808 -1.0876344870450625 0.6384861618071842 -0.5566998844673122
Ni 7.973612201302424 4.272369592478376 10.788476550293781 0.7034291423374724 -0.23251565750836087 1.1125649317381547
Ni 3.5798645781422933 7.946537416222847 1.7192256958775283 -0.8777985305224044 0.39280517056145897 -0.5165374533158137
Ni 2.935016002134784 1.0584268017355576 1.3142200714464856 -0.532349994868038 -0.47320999417277215 -0.3082202474305272
Ni 5.494328837108193 4.810882714256143 5.371808719187194 -0.5966293736723983 1.90215688321664 2.2880542709146727
Ni 7.5652395962431145 6.302756169361108 5.250935504032923 1.140153897100017 -0.5193535826083701 -0.20479479455432473
Ni 7.639378008756602 1.8895847267306136 9.870257861548659 -1.0420323729352312 -0.012965816132048637 0.5882660893093675
Ni 6.27160580938074 2.029488097870512 11.981804881245539 0.9143925275963543 0.6667914365097807 1.0227591265279161
P 3.1975478644373614 4.459234701679668 3.860070541508962 -0.5897331607731973 0.6506662488131438 -0.27979593065156333
P 7.239369594914145 4.412550843725146 3.663753803605926 1.4172730522503658 0.2923593691388707 0.5711487129027906
P 5.45126668321324 6.707155088892146 1.1426652298668267 0.7532360385572706 0.965070513567196 1.1342082210395434
P 5.120543042684236 6.69375200507068 10.378992424806983 -0.017339005499079817 -0.21509129138432634 0.4611018980553285
P 2.4308951749175605 4.952907236878498 13.31985317185631 1.037409015230607 -0.6973361420658571 1.3377922831152187
P 0.5659232155196355 3.1544949732126364 10.27719382645544 -0.2833630791775314 -0.7428369547111335 -0.2842349402595234
P 5.173080908223531 2.2146766637603412 1.0149394912770893 -1.2788412585023072 1.324898457871686 -1.490091835984305
P 7.715767250135756 4.907418263383527 13.231286297926998 0.7004397206918453 -1.6440867742779426 1.0468963858957518
Ni 5.8662991481672515 9.061364616983223 8.971045245846568 -0.31439243767951014 0.0065501424136919445 0.6571806528928941
Ni 6.3827578521296 7.8900907038468855 7.160757312680014 0.7667782960180795 -0.9183054894975152 -1.1525748964721891
Ni 1.9875652524137335 7.485080448080728 3.600442526323199 -1.070426607807208 0.6545799820452534 -0.2820495025724304
Ni 6.678422285841566 6.537472232965784 3.000579034550199 0.7059287688308745 -0.9644462497196358 -0.08633764415598034
Ni 3.914969461689647 8.080633093129117 7.298766467758066 0.932141366939343 0.5102233381723277 1.260999859445512
Ni 0.3473380921188886 8.183133801884024 5.6728251237575185 0.1881996091998049 0.12338338405536817 -0.43548136927374675
Ni 0.20537470312004502 8.347657350492794 12.824851443479607 0.6408564618115736 0.537134560740875 0.9240328788995956
Ni 1.076035137841023 8.488653716719723 10.47315765662275 -0.2172376483033678 -2.013449654656061 -0.952569809997024
Ni 6.309971789469555 4.150537690955397 9.137075830901608 -1.4250488395410426 -0.6257013513376901 0.48909118417940284
Ni 8.92460129105098 2.792945166161283 3.4393193039555205 -1.488362511998024 -0.966534242596916 -0.5883059414083674
Ni 2.632524980463992 1.3936798880065766 7.583175830874688 0.2584963978428387 0.034114168074889636 -0.8176378018721079
Ni 8.547582824717077 3.938376229358511 8.583589602698547 0.3916160353493643 0.36289707014811695 -1.085877909365272
Ni 5.4634193065537815 0.8291988702416074 6.283236018120363 -0.42440685662714 -0.13900746374587025 0.039783193435208905
Ni 8.30708685488946 6.5497082203383865 12.002140147466443 0.9511019672022459 -0.5945125844397117 -1.3591692061290979
Ni 5.621801704800677 1.8040624925055952 3.0148546619072443 -0.23189242210206515 -0.4216025544091255 1.073893740420202
Ni 0.01834008705356184 5.171747083710545 2.65752307487821 -1.135804876102702 -0.19598465246186247 1.3070696572203813
Ni 3.556624538537552 5.075896972180112 11.38104661552841 0.2555730535484566 -0.6524868469616505 -1.048274240079885
Ni 0.8995664497048418 1.069458641978382 11.580345933245209 -0.26081681844589916 1.8057127467542773 1.2111641668703077
Ni 7.161609478341088 6.519530440732071 9.33539886317626 -2.2429306391031565 -0.6769259538406214 0.42087467510416543
Ni 7.05223586827621 3.292934842456341 1.7233336901241216 0.6874587350511451 0.989871888881592 -0.48750429930825717
Ni 7.062748998986206 2.4802003685469085 7.539224460637743 -1.1035637566808092 1.4104992238616418 -1.457593606246283
Ni 1.2986263661158433 5.178240215541123 9.402423544953825 0.8547552755496957 -1.2276230837572792 -0.4969466756680796
Ni 8.876453931200265 8.152520676776943 2.8701347022482286 0.06879217907304926 -0.9187155804517404 0.4206106228095014
Ni 4.968598200246546 1.9901217493969572 8.627744751680533 -0.4020634559349334 0.2074890535570362 0.30300810710196846
P 3.127383137452144 0.7624307644293904 12.468957422870126 -2.318119722841485 0.2907920246517508 -0.4272862350574641
P 1.325469584439693 8.04570356369529 1.3664902458161596 0.04751604330309236 0.5426675747439621 0.032745569862137155
P 9.136392245838703 6.604932260244111 9.809034390135563 1.0023659075835447 1.7714067743835558 0.901913164182421
P 5.012429155770513 7.972361740821499 5.434766162467171 -0.43049214358927157 -0.025390929269278852 -0.6635783288891217
P 7.726400795558731 0.7143593584745543 3.133640071191882 -0.17553924012331704 0.4897031067317889 -0.032704175101240456
P 1.2342600706940248 2.6268377009433417 1.92763577603164 -0.25367377964321475 -0.30610911462479534 -0.26941947251324566
P 4.843691092207514 3.228531496353606 10.756780619036922 0.037918372312328245 0.498335071375174 -1.269185223469782
P 7.721741672433508 0.6450245667418616 7.969153151854148 0.7417403792128452 -2.612295319253488 0.49141160478246343
Ni 3.354318558064399 2.4517917589543456 5.065274541961412 0.33847081878495255 -0.9287446825529683 -0.8742992591198943
Ni 6.8987719479209515 1.0192271813261264 0.8719007062646505 1.1019521892193151 -0.8727622536500775 -0.06011547723465776
Ni 8.633873860571109 3.434616646280221 5.892744071671252 -0.7154696184417743 -0.5218195276503593 0.7138577938699642
Ni 1.6935310486620836 8.242590882084436 7.905774257078749 -0.7683014175308251 0.21782977336141196 -0.15476832612455282
Ni 4.313616263008432 6.721864209215911 3.6653256787437996 0.07470623056463907 -0.43326327857650543 0.7856069986888083
Ni 1.1579634560171614 0.7981976392519275 3.4611866158323132 0.8112336981179771 0.21573792382938975 0.8003738725853377
Ni 0.8408753923323752 4.503297223959361 11.98919371328727 -1.4143756760979125 -0.2738024320722897 -0.5839540921975749
Ni 7.4960474496319485 8.50954103808628 10.611695710170881 2.083874227126211 1.9330409743900066 -0.7844978247850295
Ni 6.398726695604519 2.812044792173629 5.028169211290774 0.7548416924814936 -1.1636514660013249 0.17899094611734334
Ni 5.188040120643482 4.423165863807662 3.1875284340505745 -0.4562725949874852 -0.7412107319616202 -2.7917287522248886
Ni 3.2659619467492846 3.3559302626842573 1.628164384855525 0.263445771428314 1.719419582682987 0.41286157499170184
Ni 7.424224704675727 7.744027657004654 0.9220978950370584 -0.31157219462189567 0.21155808142008725 -0.893647581739519
Ni 5.678285467857557 8.610383728870183 2.477541982191165 0.2182756026495789 0.9083674044481969 0.427699925556115
Ni 6.117197096662115 5.144218427789744 11.841694952559534 -1.7339517148608914 0.06477200217006264 -0.948948668304669
Ni 9.247785118013518 0.9055640286781657 1.2609662014984842 0.4835607412794769 -0.5981116146448796 0.04646909009581675
Ni 2.0912608456281907 5.872310621145919 1.7630825868781368 1.6658984708363955 -0.5569436250470021 0.22800748522536216
Ni 7.075735262647364 8.521276841266513 4.767959500414626 -0.6337741010434956 0.10591222385379824 -0.9637584796239917
Ni 0.3095371349140472 5.335937176191069 6.804185264609764 0.571709470502267 1.4353551065630572 -0.008449673429249963
Ni 3.4892386126210564 3.90516029391706 8.676997148089574 0.7031815451030407 0.3489642621171086 0.1200617758813029
Ni 8.509967120916818 2.6516431318167957 13.21103254320411 -0.48940203055160225 0.5861724400051325 -0.41271167967739886
Ni 4.076380753101449 6.583257611908084 13.154215324018985 -0.4274628698446445 -0.5488035124383709 0.28868089184601897
Ni 2.811516819970572 6.8104245992760655 5.686435691392116 -0.5732287353602709 -0.15141432205065536 0.32289121917914065
Ni 1.6176605168157576 2.6847386525452688 13.174876636231952 -0.12001343914187074 -0.8189022704068284 1.71595862071758
Ni 0.11696066324951046 6.332276299381158 0.6310962895184065 -0.5518458988091205 -0.5017587523447423 -0.9096508991463108
P 2.8959367964383307 5.8001729454019095 7.761000573932406 -0.7957410017990165 1.9977211881772108 1.0651301352949591
P 3.3266972754413073 0.13622053345681912 9.132575099437302 0.4897897529083242 -1.1960774477405145 0.646057803506855
P 4.777527838761256 3.020723489764384 6.690361867766839 -0.012596862828404113 -0.07050401955783342 0.06609432052591198
P 1.0273968564681677 1.517206858181476 5.959253748984078 0.2378517250092936 0.3224937266304059 -0.20792177021908062
P 8.013117489829416 0.5323163953945178 12.411300079495224 -0.9191025314775139 1.3989976509799453 0.09082833293748228
P 3.739367759486907 0.6172411873897612 3.3605949434116176 -0.34981144060875236 -0.8788506259360026 0.16175581318597948
P 6.973892203478722 5.50743551548233 7.122730346321583 0.3614482535167323 -0.37976324977583625 1.7635016606038663
P 0.5148016122583663 6.1600462091418 4.77246023187893 0.45209095280596984 0.7211481568837903 -0.9142423751717351
