# total energy = -340858.97084905894 ev
CRYSTAL
PRIMVEC
9.36446928639149 0.00000000000000 0.00000000000000
0.00000000000000 9.36446928639149 0.00000000000000
0.00000000000000 0.00000000000000 13.70584737569125
PRIMCOORD
 96 1
Ni 0.4692263899912105 1.2605511864928693 4.871044725421428 -1.0811961876188863 1.6840548300304483 -1.4827395093842917
Ni 5.639526772430389 6.545445513841281 6.53112443123595 0.2536933200272405 0.61420003556631 0.36914716482288684
Ni 8.086537465841568 8.743080394933129 4.233996748116813 -0.1933937518062347 -0.048838361658941704 -0.8903162033734409
Ni 3.5307419742257293 5.863534237938865 8.31916117937539 1.6314927396630161 0.17991345793161273 -0.9834474734124871
Ni 1.0683360936026483 7.836056646167611 11.490667135506142 -0.5564281188631642 0.06604109869047335 -2.0958571105197
Ni 3.3576023049064614 3.4650221300328243 8.444611353320365 1.0402552264301506 -1.4515371156395582 0.09166625545774534
Ni 4.804806089639995 3.131984150711582 3.2097307825786037 0.11800463624195805 0.8935673633208868 0.90896158638877
Ni 3.997176815976144 5.893940669129284 13.798909507008375 -0.24266791545101435 0.40307492791858324 0.9842218896846661
Ni 4.069273863630914 1.0641220825044997 1.5885623187974751 -0.4945696907954709 0.4256178462161057 1.3122478589872109
Ni 0.7315907209619461 2.4048424890223705 11.470765765759953 1.2253306881786767 0.8168474447603288 -0.044301650130852736
Ni 1.147952809950337 3.868396636816721 5.029950401698061 -0.09459962705445643 -1.2498620976611376 -1.3320962611717058
Ni 7.186003294167198 7.705132003582685 8.297766176806634 -1.722338298991679 1.8687451405254139 0.9750967874549463
Ni 8.471922827470923 0.6936842864637328 2.122076725655131 0.9280376291836148 0.7039497907276329 0.2282244863321747
Ni 2.551546262052586 3.276318713057727 2.764277033862416 -0.12580150657855757 1.8773480517030763 -1.1840631968884576
Ni 4.808926456047074 5.620310881822831 4.412802857692725 0.7306740940963545 1.7088502918075732 -1.9807601348428403
Ni 2.8995205695994883 2.01563642399736 4.450206420199892 -0.07846955426181325 -1.1515022322333008 1.7653356284888113
Ni 2.290137106930764 0.17566152084978223 0.6202078525095021 -0.1617020771299086 1.106758352358707 0.758461548622268
Ni 8.112860988501335 8.7177495059987 11.11500302925676 -0.09422527443417321 -0.2705417590431469 -0.24800012629720514
Ni 1.675753017758903 1.0076449693202008 9.697599794562423 -0.2128482609864205 -0.7306452977409482 -1.0569455426016376
Ni 6.076154509013232 3.9477605124985207 5.352105931470062 -1.3307502886667726 -1.4319121423197791 0.7901853620881102
Ni 0.11746602758434926 4.105991946999449 2.9402466457458183 0.3886127297466662 -0.5302440042686287 -0.5209327541700319
Ni 3.2373063347579776 2.4971574254791467 13.594172246028277 0.6458927386839006 -2.010843584491782 -1.3790975696219088
Ni 4.904256751556304 7.987845325922924 3.646454036746338 0.1417657432172978 -0.9164969755338667 -0.05160872531522724
Ni 7.646238857368781 4.743038051410243 13.327579857255733 0.15298989406789135 0.8948562573356394 -0.3827346736993344
P 2.4225881579801296 3.994966801266893 10.23851494135534 -1.416438215053896 0.11961183282807787 0.06712661844516826
P 2.5277043237061716 4.196162420030724 0.6282893893488405 -1.11873763620777 1.8160149000112338 1.886222728484887
P 2.295905619900674 0.5755299704000193 12.211115074677673 0.11518079363991775 0.3693050305569898 -1.3809870733351377
P 7.757507479298119 6.516490575362446 5.261483154580919 -2.6656449385192222 1.7726146786487278 0.45018807935630206
P 3.3854147781542423 1.292334194642017 7.792719756034249 1.1671157704008417 -0.18438409210845663 0.963846668462424
P 5.9303497250172885 1.9151275770719611 1.957085080905861 1.256200638284656 0.1669846656850866 -1.9713920633643789
P 3.5532728868971644 7.182678907634214 5.858838893128617 1.5551998813375474 -1.0781291186577882 -0.08919722509196251
P 3.8620662557003906 3.922326614403917 5.21492395062784 -0.3945890019347592 -2.1020156739219282 0.5095826192645353
Ni 0.12878860718161936 4.8216059472179476 11.456388496339981 -0.2827704398988549 0.10866998910459348 -0.898507995155614
Ni 0.15729498759022897 6.285927981479072 6.290065203930544 2.19208296032367 -0.40263526927800336 0.5221398871042556
Ni 7.081364716365613 3.828148148594848 10.828483050224527 1.2608126831353705 0.6354748857846864 0.009498169298422352
Ni 0.16440168319552903 9.044073160970227 -0.004002374096330527 -1.6816266802049298 -0.1743706737365126 -1.1131897098063475
Ni 7.600165669362355 6.300911132050268 9.799584481819085 1.6207396149115698 -1.951011185715182 2.801282457351595
Ni 0.7985775778250279 5.114676372390527 8.922698403980617 0.2110340905958172 -2.0185674354986007 0.716435067678837
Ni 2.5305042999691634 4.649814761450087 12.23256439116725 0.31969610928061065 -0.003638110973219541 -0.2114907185172616
Ni 6.15377659344113 9.235464180579031 1.7979602760521252 0.389096097140988 -2.5608609147325962 -1.1656906079185407
Ni 5.704544281440269 0.9517952755660704 7.965385583216704 1.7825273097767491 3.518898946933043 -1.2245164198074976
Ni 7.633887122616652 5.398447879739858 7.580101357853704 0.35104531301585346 -0.6060097864460336 -0.21553480667964814
Ni 4.913977070489366 1.7688264762133465 5.97515964614118 -0.4803268077232114 1.1538203388435162 -0.4264092317691495
Ni 2.7628180495755457 7.87553724792271 12.808004462663844 1.278401085641095 -0.31888981132923144 1.557180402102686
Ni 0.3265858601065212 7.232497883283438 8.766835243716848 -0.2958015620512003 2.279993091173093 0.009869950815544292
Ni 5.401481967730525 3.818633847982139 0.7087311154248557 0.40675443365269953 0.010073067965285877 0.15274538215725308
Ni 6.493491439235661 6.985294627796931 11.99241070802449 -0.7309654000845281 0.9480554670664383 -0.6172241671046144
Ni 8.150515518780571 8.277272972612883 6.555752984987353 -1.2166627280910336 -0.054870683895950664 -3.8651859193283045
Ni 3.4811664747732873 9.263613774714665 5.408313347944079 0.683571484181597 0.7931513866949695 -0.5862580577404032
Ni 2.119965974318414 5.678389319224427 2.3663142537754522 1.0658130202945968 -0.6514954295826587 0.10239135518473333
Ni 9.199757459874052 5.811936013159311 1.3626426286973508 -2.3560995445193678 -0.9969141404403541 1.7468493967591658
Ni 6.657201088164183 3.054680458233322 7.436367994424228 0.39750077626491537 0.6954710638326603 0.3561001018309416
Ni 6.753711306780895 0.26242145423228824 13.071527178463114 1.5298274640110299 0.26957656691640025 0.5638449801525257
Ni 7.414412060155962 2.625965698045891 3.27380622599632 0.7809332473622228 -0.2778496055584698 1.712847071671792
Ni 3.5200758439128594 8.651243046400808 10.232470176546773 -0.7068949893988857 -0.03404243429668976 -0.6497784468915518
Ni 9.11703173978284 6.493060673656739 3.631583259804427 2.903953805670592 0.45106611108588124 0.28470802324120004
P 7.389334011887424 4.424702288586986 2.106396858582375 0.20491537929258902 1.8439622771537791 -0.7344890969670705
P 8.550144237921668 3.601958761784442 8.853716915197744 -1.0646261990753472 -0.2310257032263957 0.8852007365237464
P 8.600806015790523 6.80639580997686 12.119861132570719 0.28880430479776065 -0.6653215368324735 -0.11761048612733292
P 4.58033040067617 6.110409737006627 2.187700115816234 0.09479220268123675 0.21014937399801872 1.5934674094591783
P 0.17295987151241363 9.104043221131436 7.65955419599202 3.45315866731244 0.9296869918615795 1.578910594690926
P 5.194929872637491 7.907058050936862 13.680478002659095 0.34542231040212124 0.4341929894796264 0.3785239780520964
P 5.6710943977900765 5.120501072175078 12.519729582120956 -0.6122161723670618 -1.5612928816091627 -0.1550999984323587
P 8.690367798329842 1.1899899117716466 12.310825132388244 -1.7356260172395204 -0.7394451554207652 0.316903377026822
Ni 3.3509535318404935 2.132954492969819 10.924506316447674 0.3805394658202285 -0.1631236400677836 0.18355311156672904
Ni 4.102967223477889 6.528299170906369 11.444231542545277 -0.8464716953846648 -0.046214036662217184 0.42029103468655354
Ni 2.0179869057432165 4.752018577283853 7.026028195518546 -0.19955720030446922 -0.26058053406537707 -0.9828221811236623
Ni 1.1420063720673939 8.55216696324878 4.8869015809603065 -0.45186623838967344 -1.74744152181721 0.4918237526192175
Ni 7.43512626582064 1.4921438719780127 10.263116338146332 0.2720234857949961 -0.35470887791036976 -0.13844207816070353
Ni 2.550712824302063 5.560603026796619 4.931405283944399 -1.436324926675494 1.8358108516912384 -1.0640050205515805
Ni 4.702489900176946 9.33357572341304 12.109897337440874 -0.981744117568135 -0.1574582142518901 -0.06155323812244883
Ni 8.117945895226434 1.2365032298261007 7.7108134269899 0.4240756985399664 0.7628779325224088 -0.05258548740619977
Ni 5.420416924264873 2.179505268900701 12.32749107805797 0.6170431614420598 1.105091506179245 0.35759545542954546
Ni 6.916381499638541 6.760697200734715 3.057609664169991 -1.033222230842769 -0.8695131505851604 -0.6966915665033228
Ni 0.9155547801219919 6.087757086236802 13.325372651887214 1.8739868485403273 0.48387133054136017 -1.8043675455802923
Ni 4.241832935865548 8.744307140386145 7.800915539396693 0.014125897878420833 -2.7425234941448315 -0.02619105657307102
Ni 2.6974446907395992 8.235142226100503 3.272792053992032 -0.41858022264303396 0.46497757896065084 -0.5274697839576012
Ni 5.360306397067058 6.935391371925744 9.620654761250961 -0.19586381061328204 -0.02032045672490694 -0.9628863614316837
Ni 4.8508324553008855 4.482705810235726 10.56800285043812 -1.2601287696944685 -0.6738650555271104 -0.5319327048249614
Ni 8.034602120174162 4.57976853252975 4.733396394017679 1.8561241093272938 -0.9566923168058297 -0.48377028618712165
Ni 2.1928683663163855 8.260697862293497 7.048478573755661 -3.060569983637161 -0.6637117691431924 1.5448072252493137
Ni 8.009055848450274 2.7845155244964572 0.8488404293099236 -0.4911277549934574 -1.260939438521222 -0.53255774000347
Ni 1.718014866838781 1.6436422531910104 6.774211066103021 -0.9742809764218704 -0.602349306875311 -0.4285638162183071
Ni 1.3293800344292974 7.655200654304177 1.5284761392193396 0.759611345955995 -0.20689384317519852 -0.4092748860817081
Ni 5.913559231908442 0.6523654394229299 3.9721596367568015 0.08878661991710517 2.1621452922239732 -0.8486422206734222
Ni 0.10515175070864817 3.2467269906796163 6.906650879789459 -1.4583158291242884 0.6779322836179486 1.03321220354044
Ni 7.422193933983878 7.241234932960267 0.463674196257672 -0.3771636073694601 0.2578682773405366 -0.4137344645149584
Ni 1.0365156275770724 2.5666136928457437 1.297806790388146 -0.7771352137723713 -1.2336618337521916 -1.1257541767349193
P 2.3357608004200534 6.855053591456817 9.62286196661948 -1.0959790023550158 1.512358874912621 1.453940068654096
P 7.992639934105708 2.4045709194182674 5.472895409140484 -0.37439118683064554 -0.02490421944084743 0.5053739804998264
P 1.723390072106197 0.9665443144095907 2.763126140609166 0.10200646104148885 -0.270837693017011 0.2485194891357849
P 5.949256588144316 9.041020344041344 5.731757428665203 0.07935272819771495 -1.0388159228804625 2.05184548082544
P 8.708806438001519 7.955050955110222 1.9837710085200706 -1.2574231978378474 0.5313212964932075 1.0698936181218737
P 5.644976893450662 4.824181176222372 8.458275986641295 -0.2912206275487372 0.9509839535671428 -0.17888501666709836
P 5.717588986906317 9.089088163967562 9.460748959673701 0.8085548657342333 -2.985911575591322 3.792158876238301
P 5.459139004022306 2.355997418160274 10.160706503992213 -0.05817635123041593 0.16982342068546238 -0.17683430478565673
