# total energy = -340860.6389773674 ev
CRYSTAL
PRIMVEC
9.34383712508017 0.00000000000000 0.00000000000000

0.00000000000000 9.34383712508017 0.00000000000000

0.00000000000000 0.00000000000000 13.67565012209009

PRIMCOORD
 96 1
Ni 9.308050121046103 4.306910859185186 7.632434778958905 1.8528171564412474 0.1965559515843002 -1.6209558446874341
Ni 4.879753475175402 4.235215597755122 1.3825402877524122 1.4255286073909383 1.321987197762162 -1.9659878616296724
Ni 2.7286620363480645 7.39466589592668 5.171132623091634 0.19805259073448472 1.5009845716374086 1.2641206644626808
Ni 2.9027003446233635 2.738856162533416 1.5258196189520397 -0.08057348797869349 -1.5491205079126869 -1.1668671447251453
Ni 6.6361238630641735 8.437811860484524 0.8266642110173388 -0.29685931389175324 -0.5897136203891715 1.6135886056890858
Ni 3.7688179730605254 8.578371200728554 11.184274840733334 -2.515254943968023 0.8674956059344995 -0.7005320232953355
Ni 5.474199042348507 9.006702033416625 3.1940299702034074 1.3818841312281105 -1.1132197917133344 -0.20663416175590865
Ni 7.168292756520169 1.6088966082522929 3.630419862318485 -0.18252672718474372 0.3764177303423711 -0.172098075652252
Ni 1.6422260748912916 0.37131567359513257 1.4143906249916482 1.2275276958299954 -0.30321096714139395 -0.7874224546309923
Ni 8.632406610196828 7.643146553714989 11.80966252418764 -1.0029300076171308 3.796240502506843 2.2674198824937726
Ni 0.5784806872461654 2.65873276011418 9.046920711088125 -0.8563100216313253 -1.4698207444400946 1.0685535591542112
Ni 2.0972896252844846 1.6623433559885064 10.917859622174939 0.2062307556699029 0.23452780284238317 0.0033812577674070796
Ni 6.198916385210124 4.6985484439082015 11.533044769990578 0.9244756228639692 0.9541101579009503 3.2374271712409532
Ni 3.5539564408587374 1.3046519311475997 12.858242864354464 -0.565647066358271 -0.8044115329898212 1.6452363145013538
Ni 8.269155602330914 5.689976270577944 3.752612022138552 3.915462041875037 -1.9778501602848968 -2.015908914829831
Ni 3.6528702995187996 6.864991806954175 8.428056894638964 -0.680226478968764 0.3935842148193286 -0.36906411819077733
Ni 5.158601603268377 3.1415194749362794 12.84824589313017 -1.4223067580195312 -0.6290592120663295 -0.1693315686507084
Ni 2.060886036266952 5.3900391023380045 12.183951406721524 0.2357321075631295 -0.7095974759317135 1.2310691333243506
Ni 2.6185636047788687 2.2925290997509498 7.94992901695345 -1.1100966727033206 0.04210978468585651 0.014691283463587602
Ni 7.24161384559116 7.518256828148165 4.286072233870273 -2.313820581245499 1.860527637711628 2.1170838811089605
Ni 5.582410018840305 1.9406028223494216 1.6025670930570985 -0.0006959976257600917 -0.40903191683296647 -0.33349007774090955
Ni 2.8807423276338358 8.529643090685836 3.0260380588616926 0.3248200607707374 1.0500025356249014 0.3554097606321363
Ni 0.16526818285131137 1.7266382985012483 12.948323993882527 0.09378150202853526 -0.5429162004196585 1.4851350061996615
Ni 0.5439533407016103 3.7903181420362295 13.512266605114222 1.0678691314926771 1.8557093903873783 0.8826000656761057
P 9.009794843469193 2.8787520903492525 3.6282315356891455 0.35968370541714184 -0.15671285144543332 2.37488222444351
P 9.064428258506542 1.146993369162787 7.581383791033805 0.21584770993437666 -0.7360824095961195 0.6105161589568195
P 6.574482570264209 5.041766265210053 13.727480399971544 -0.3346429603984301 0.06063458296292139 0.9438506849564712
P 0.01275059999315329 3.269997233917562 11.212966026677181 0.3134748109612472 -0.4311107510098769 0.30180997302880924
P 7.46043716468808 0.30259922740603107 10.09957683296169 -1.9162773817784224 -0.3608263036620173 -0.27396415446113465
P 3.585790893575045 0.6991768987598396 9.555026421074704 -0.36265615778190446 -0.3500235566195585 -1.0724454380094497
P 2.445160677420713 4.113222461663513 6.630857676521493 0.86476535148753 -0.2562451399148168 0.3406115192770392
P 8.036727656537503 8.90174271220668 2.9809904862198997 0.24109234343377836 0.5530959691661379 -0.467525285083169
Ni 1.3385326841705907 8.976343906948975 6.707851827923796 0.3955012293363834 0.4445064555904925 -1.2913699870969373
Ni 6.503161062314818 6.353678357719722 2.4949035281634586 -1.7192524609775035 -0.3375637335896509 -1.5472639143199225
Ni 3.871712306289753 3.9020517450833694 3.2046286845315874 0.07273162333677151 0.8103381828869012 3.6328780069553757
Ni 4.3643287376535485 5.92802920625548 13.329464712100846 0.8085129567527043 -0.3329856273006652 -0.7346827010351153
Ni 0.7371427773265847 4.941534925530619 9.850953214467022 1.0238045370732949 0.925787142586541 0.3615238439496742
Ni 2.0260989310533293 2.2457445078077294 3.56697894650908 0.022171908111348913 1.860989407839395 0.9935567939323469
Ni 1.448584396554703 7.465893965505903 11.543424838532566 -1.2499986232390021 0.7509904370562034 2.787260174930574
Ni 4.1826938898835735 1.4393433417450676 3.677696874472492 0.2879293583919751 0.6144993119742836 -0.7061825367128934
Ni 5.048690048439517 1.3690216243564763 11.044988131090992 0.5601130239139193 0.36990821135862745 -0.6712492151708181
Ni 1.622632048667019 6.130622280454182 7.25924005973969 -0.35379639339842944 0.017724670973272696 -0.13298465459055805
Ni 4.83694001396433 2.024295570509083 8.46692351909413 -0.028388321334705948 -1.3678127407367089 0.9483372599729151
Ni 8.091566635989222 0.618385411993901 5.697809209149144 1.0790040650635742 -1.304373855555773 -0.7088158605706825
Ni 7.262104880169048 2.552278424981543 10.753587492349622 0.6147142561985671 -0.6164669772236158 0.5578193427837361
Ni 8.205383914691113 6.3261514138681685 8.095464884792639 -3.021112034751855 -5.024894341521482 -0.0613002415713783
Ni 4.4185790553732085 7.415362494918938 1.5051697391448664 0.8862780287483253 -0.2885153128024322 0.6751171827666567
Ni 0.301844245375072 2.1586973221590293 1.7527533885795599 -0.9937455129043853 0.3999428100475047 -0.8821179838333647
Ni 0.7133430900610412 0.5463332159897945 3.81970450945413 -1.9968562690737546 -1.5998092925168061 -0.05983162744565179
Ni 7.368456433094499 3.030187656880863 13.311931936322484 1.359629690705284 -0.5017155578116327 0.6037063351238378
Ni 1.5596919625217158 0.20216419207963057 8.980648612662623 -0.6581972670828664 -0.49091923852707714 0.15575665817975112
Ni 8.982725747631463 8.923411070248687 0.21422895443574927 0.41593018661469666 -0.5247678116454059 0.3015425783000355
Ni 0.7641371224681792 2.0915151340080897 6.017094660699813 1.2759878482139122 0.8974648986030802 -1.0436120587175253
Ni 2.9411502339475804 8.08275539768236 -0.07941981149186943 -0.4907251202384 0.39417479721547594 -0.7156889335414318
Ni 8.893024912269986 5.390300729774476 11.98421848103367 0.11790899120435823 -1.6898251568553222 1.4928951097610546
Ni 0.1466599314323133 7.68475465995089 4.695834993638517 1.2398705336660647 -0.36483568193172655 1.1504624781148767
P 5.7803872375526995 8.269875077781208 5.937680455510153 0.027107911960385575 0.4743423080050025 1.057503729097953
P 1.5110292593381145 -0.029134083818446403 12.342410735538678 0.11300204082104409 3.105553233216071 1.5589968864861343
P 5.086252273247136 7.955922154016039 12.61932936128768 1.5069968392697595 -0.8947341299354785 1.5682292037176797
P 4.079108112715102 0.38147242443241647 1.4382818818599565 -1.2638861798543717 -0.2912057151504017 0.34024436574560757
P 0.7821660559921345 4.422737062845693 2.363726334668017 -1.1433623767349856 0.30690821348732306 0.21107317136386874
P 7.549474587621362 1.1338746219911708 0.9612369548846932 0.4303548466804588 0.8471106145202444 -1.1675798545214537
P 5.330901957858547 3.4362147506097824 10.057113765638748 -1.598365618091744 -0.7662519912009642 0.2704545986459794
P 6.1763697064885354 3.614560567749835 4.722462125985349 -1.2038491212661333 -1.7395392362509976 -0.31924128113137923
Ni 6.39039029335881 5.227045209416588 9.47894890008375 -0.9716983032963589 1.5360809011199092 -2.518187801344102
Ni 6.93209924440898 5.480207129550323 5.41978333871365 -2.9847784904281434 -0.6396184756394145 2.5591555020057153
Ni -0.1853938734018411 7.5303290655738975 9.44222948937505 2.5920041731046197 2.4004767850831623 2.3535652081332885
Ni 7.835648283935525 3.014499354529621 6.255967050883725 -0.5096916340385739 0.06475528999951427 -2.1376475641929247
Ni 6.026447841553651 1.313949048979336 6.2397610999617505 -1.2315748693161759 -0.724156604692811 -0.6607920243932361
Ni 6.717349838251393 0.1400267415340724 12.498053831878963 0.6275450894146484 0.8911980917577619 -1.5192694859895255
Ni 3.7874028648869817 2.0459452408770558 5.860398513927733 -1.452564785573124 -0.12237371184393118 -0.09958936695956397
Ni 3.8053523757962937 4.379325596065545 8.532320099991155 -0.5425775861333172 1.0612377422190884 0.9014166841619766
Ni 9.232215539817588 0.8149713333744896 11.036618856275027 -0.4813711898273258 -1.2863925884870038 -2.308672718495972
Ni 8.654159062771987 8.069318960052172 7.158682620148369 -0.08296409969805711 3.1001734569613966 -1.7086217207365348
Ni 1.2846654637686206 4.419606877445059 4.778586817410585 -0.8821953740385193 0.1395959892594886 0.09580033223077694
Ni 2.080452030980174 6.426261283666384 3.3027651359518497 -0.1352536531303929 -1.7733160755911266 0.8189421225058283
Ni 5.829292880498738 6.961784614611419 7.949149740946247 0.5245058162332709 0.11685586734949552 -1.5135937757609867
Ni 0.4260705585137008 7.591437759663903 2.347575512384443 -0.7513959000247382 0.8279805785590127 -1.4804663970793985
Ni 2.4921975529633875 5.200162990319194 1.5243152611923316 1.3886042235607634 0.16994554808562345 -2.6821910158033613
Ni 4.219078791227073 6.170053272665165 10.762873397576938 0.16337457973632508 -0.5654519196283294 0.22525563351183783
Ni 6.092966617276396 9.243988774458781 8.293994324272727 0.34548967330494695 0.17966406092496798 -0.057348456012481876
Ni 5.137213560336875 3.5227106498744893 6.938464266184838 2.2326035461455356 2.240491690644361 -2.635324176048494
Ni 4.11040996672145 5.877441672646413 6.202290444756898 0.1853569975446872 -0.6975693411225857 0.24799318431866968
Ni 3.2100658632916748 3.819685821780096 10.926639091435943 1.1012011699859034 -0.5306031873802604 0.13919952515201833
Ni 8.525073954384611 5.617262530913045 1.1741091841856 0.16274954455781648 0.03199969283504812 -0.41683290093462405
Ni 5.978803616604883 7.905913938302016 10.503733290519842 0.9792977129101714 0.1521522286579444 -0.12213562769119608
Ni 3.641153127899707 9.139786304047199 7.342223610669776 0.8572728997652269 0.21800769370017292 -0.0964672763908145
Ni 7.102867209728392 2.208471941947632 8.289782122545544 1.4885556018454364 -1.285809462290024 1.2605769129754807
P 2.9921956155704708 3.4102482275400376 13.237222353070795 -0.5807641245053675 1.6599805626900637 -1.372853645594726
P 7.683259646028199 6.411983900704683 10.635689760022485 -1.733017633082396 -1.1605018646287497 -2.117787849154521
P 8.844679899544957 5.961573581145865 6.031344946534166 2.2601521451877655 0.5739435020391084 -0.28021939134222706
P 4.441050983398662 6.263902771662111 3.3737969849537195 -0.5858556800956619 -0.6545475861454211 0.461828748919024
P 7.221590002864113 4.284420243485699 7.843778356523861 -0.7848184413492418 0.4677865091643556 -0.7442423196990925
P 0.996837908302481 6.827532364353742 0.22755046287063027 -0.4618351766769272 -0.6249127939981237 -0.009181666499268057
P 2.6034172449746023 0.3646955650687152 4.942257204132019 0.24062157444494683 -0.13788903387071094 0.5981162426305698
P 2.29011838980061 6.802014345460805 10.007129843900968 1.298787105496615 -2.3882370484838606 -4.241021809025277
