# total energy = -340889.4778519246 ev
CRYSTAL
PRIMVEC
9.10494519739878 0.00000000000000 0.00000000000000

0.00000000000000 9.10494519739878 0.00000000000000

0.00000000000000 0.00000000000000 13.32600763835935

PRIMCOORD
 96 1
Ni 6.290023962173758 2.1989535391214536 11.24268625003412 0.9941383774674297 -0.6604873486686237 1.2411604561220817
Ni 4.581945336740464 0.22203956852037646 6.003633372054253 0.0006687439322504611 -0.22097988895461942 -0.0702602789781435
Ni 2.816651235306644 1.6004217527041036 4.765899829741649 -0.0844126592191256 -0.9778964616872706 0.8737264173355598
Ni 3.6672534311884406 4.556223866386949 4.990443258207943 -0.21754592357240599 -0.23069223114637688 0.0763648492139846
Ni 5.2412799475899465 4.20407189864787 2.9453942507585613 0.12379167523738034 0.8569831364389499 -0.31184910243236613
Ni 7.182345017227167 6.004884391532685 2.6288344245270663 0.336012329942131 0.2810524287664837 -0.17059475163384813
Ni 5.086996650195145 4.837639514417548 11.480755074680998 0.8088335733169166 -0.9743223711827673 -0.9783718586617924
Ni 5.272610064222316 8.118078451270154 12.599740099951262 1.2092183559978467 -0.7007240847014835 -0.11999981229511592
Ni 2.0720306022265866 6.473916541547188 0.2770197804600933 0.12452032587328876 -0.5024277533873088 0.5312595900173367
Ni 2.9015093251100987 1.6465200905447572 0.4260568083973024 -1.3984212096511852 1.7544084400533464 0.17980829981231614
Ni 0.6865975484351562 -0.3118898998087275 4.6016174814646424 0.22451284180854233 0.5335861812679843 0.10913613010773461
Ni 8.913905296480538 2.032642609040992 1.52119051907002 -0.36840668711243646 2.1473887027400886 -0.1295990259477768
Ni 7.050377940659433 0.5110969971059147 4.682732528272583 -1.456145818056163 -0.269573995813239 0.3572578695844686
Ni 1.0838435785529446 7.196275583471725 2.500198847429192 -0.7939692546105745 1.2789975815745134 -0.09723552201540674
Ni 7.761255646613782 3.798637791259669 3.7102934179169718 0.31457472889364535 0.7462110133896891 -0.19732548276047307
Ni 7.5686223197927855 3.971759220393026 12.682894654496966 -0.26424101363609975 -0.28217214419322373 -0.6925220085066655
Ni 8.242761571631583 8.993154740005137 6.961506390986305 -1.6047944044362232 0.3059265663003441 -0.15754126088399964
Ni 6.928845131357233 0.6039046146140257 0.2515987733000884 0.32493396064078234 0.02221073176908433 0.07462524081505857
Ni 1.9528468688009193 6.485607291258308 9.231098826901981 -0.1026374097572684 0.003531153081710048 0.13860148655670324
Ni 0.06652255104313311 5.0257841032264094 1.3763098986430335 -0.06532633201163587 -0.4842562246846047 0.6719243868609718
Ni 6.544379712897932 1.760322801323017 6.7916263223647535 -0.5037115051957389 0.37896260825141187 0.983777603058396
Ni 3.7716325236247927 4.330311964648396 0.6607850286290623 -1.15079697863616 -0.3176597955768723 0.36436259895004997
Ni 6.03924645493593 5.864595394999249 4.918083526759981 -0.6079322002797273 -0.24173511922409982 -0.2149282834439008
Ni 5.494989247200811 2.766701505621907 9.142040625851065 -0.46723140799183405 0.16329127599389942 -0.5843094186544647
P 9.408686231684328 5.585865705819725 12.540399529727544 -0.1562657366056857 -0.04582888540865656 -0.3701493808351561
P 4.141438980218903 6.175438226103321 12.727256679276941 -0.9726812360349185 1.057775751812417 1.0144122972251175
P 2.2833290668262403 8.448815587762697 1.2619554281821463 0.8144532334965393 1.0100861590459378 -0.00047899651894756215
P 6.398755218443378 7.9553184498402665 5.96906553688818 -0.06671549904967865 -0.9152713306568818 0.15175859276395154
P 4.777009683945316 1.1979012277984247 12.58684112400442 -0.15337401688018745 -0.18093958520328193 0.03309061190638172
P 4.20059380955936 5.976012610119944 8.270587194834194 -1.8144727523350943 0.21299044299123962 -0.01271719045635229
P 4.804087791142254 0.9669451863870051 3.724099246411497 -0.1896995907840991 -0.08067941742893847 0.6645584334142038
P 0.2378184386522849 5.683133836009673 3.6453824421844834 -1.203840636625701 -1.9267325156734754 0.6868177590330365
Ni 1.6941935839150244 0.9325284933122133 2.616534553978194 -0.7491749811140194 -0.30017835096265716 0.005880884260809226
Ni 1.8346191546273294 6.342969218848339 4.9140454835381115 0.7039212514825425 0.7450177644125362 -0.21041188363078603
Ni 6.110984318622777 5.738291594381918 9.082233882430145 0.4865409069537234 -0.19374599293933084 1.7771624459204103
Ni 8.923456384056054 2.6745958793931783 10.02620820242604 -0.8501455446918262 -0.4618143507413208 1.443705021189649
Ni 2.4050257651430837 5.163960752460017 7.049151504533198 1.2240137691394661 -0.35916459968887826 1.2459776750050673
Ni 0.11955703618124072 0.37083349441920016 9.318277767251669 1.0708474973947106 -0.6353918391525767 0.19281628203620987
Ni 1.8301577314509674 1.4118856512491538 11.506860773724396 -1.5567985932832349 -0.06642779260593076 -0.17584957227488426
Ni 4.095167648418351 7.072430118074022 1.5590625388701775 0.48851679973317164 -0.29737070631053303 -0.3011877660637781
Ni 5.363122325030915 7.844738889683296 8.051893693696089 1.186895267020614 -1.3427984780805584 0.11669157385748936
Ni 5.116269049199235 2.7357629016356255 5.001889995386151 0.7061845935954225 -0.4357063408003593 0.03648112564516943
Ni 0.7465882117502852 7.4605101998007015 6.959387670224796 -0.7569988480338125 -1.7240511679177277 0.9484223634875536
Ni 5.1935609294933895 4.316527077527963 7.1585446903230645 -0.37398392408989783 0.08424502329300974 -0.6055762984530408
Ni 8.114654991853191 7.291768249336386 9.056194649487129 0.13878043533672874 0.10493211932871606 0.6235297976076681
Ni 4.308687719660927 0.5466008206444974 10.433437805019096 0.6049684896657129 -0.7332955908796016 0.8711123767514805
Ni 8.096818404093002 7.182572640858615 4.712729680919199 0.19270109661458426 0.13475125957267758 0.14863495953330533
Ni 7.2794583633477306 6.1291213695764775 7.024818538331509 0.4756183465039486 0.38273930168502474 -0.5586392675818702
Ni 2.5137479164674454 5.187642715075766 2.748249423562284 -0.3485814248563932 -0.046789706660029094 -0.2946149979422668
Ni 2.5476456276625377 5.279766551195011 11.461193099794441 -1.5493974157231574 -0.35704446802208184 0.5939058040936481
Ni 1.092475066657416 3.201881469167606 3.8712315198007574 0.49607867124082955 0.5870946947090857 -0.271413620125139
Ni 3.509765193062866 2.4573245707043543 2.6705988084249683 0.6338494343661212 1.5499188354442661 -0.36650329944213655
Ni 0.9974285431103921 3.3839439545442027 8.044004258630135 0.6979552637070947 0.7455355845892192 0.2858925304676044
Ni 3.695779224681383 2.3670854582534915 7.404023119420805 0.13022560378818218 0.3356066098632801 -1.190122258598344
Ni 3.905675527711323 6.852472850534124 6.329440180689652 0.5844788543527933 0.3736728206073822 -1.3623146937366153
Ni 0.9744658711700152 7.489682444406953 11.678593698705926 0.0527783201432962 0.28671322659668685 -1.1561690415813506
P 9.33475407619033 5.5689942422568715 8.193629466031002 -0.33120513836147475 0.41620452332200575 0.395438494419248
P 8.50617674288735 1.930976790291488 7.912303956958458 -0.9192935644423975 -1.6718253778437915 0.3236080427405072
P 1.9119565596477741 3.3295874313546507 10.540338967291882 -0.677769275677523 0.28276555480284854 -0.64868675648927
P 4.231414049257288 6.15850302792366 3.6471287706849456 -0.3098025043159826 0.004231778693160454 0.11294136278643775
P 6.916079998105683 4.190396270870532 10.462368768576015 0.4946033722468836 -0.003768208793180607 -0.6807892934507696
P 6.226762802521998 7.948271222210667 10.409757663392398 -0.09420239161603777 -1.4099528644398684 0.16816583047738135
P 2.3039426628900843 8.376886520225433 6.000248153407372 1.2919461713153815 1.1208593105364633 -2.1126484710454263
P 7.145761347181 3.920607637934248 1.4746961161106487 0.38345355414322996 0.12601645080284105 1.9540129486559832
Ni 5.65873258271855 2.6414994033807795 0.6672240459154362 -1.7416071745236201 0.5335198468064231 -1.1992267920027735
Ni 1.207233796687753 1.1898615611357155 6.941663983785804 1.3147636834305292 -0.4696081357541267 -0.5810214919318122
Ni 6.754276015927872 0.5594934231296576 9.204993127858582 0.833273451526836 0.35748181266981666 0.4848401222125327
Ni 2.5478732512939852 1.5258158312610237 9.252513658148516 -0.88480401530596 1.2205497218502657 -0.26740732717922333
Ni 6.493473963961117 2.0276713089301888 2.686403172403599 0.5599813834320614 -0.9945839496452806 0.6879973811634345
Ni 3.948960437467291 7.002340249478852 10.561687332438037 1.0819909156060399 0.7834745257268377 -0.47955573388514183
Ni 8.51193106829033 7.237329781639513 0.21070664315789145 -0.847683970525211 0.7904964655706256 1.6523163612765865
Ni 7.504022733188116 3.847458507732429 7.966660480148009 0.5408559754565202 0.36462202325902365 0.7914997100241594
Ni 2.961966161622431 8.764238206331482 12.510522562358334 0.21645577583202077 -1.3010342496595786 -0.364936726285965
Ni 0.0002048612683023316 5.075915931816304 10.425188724615454 -0.14754532601355236 -0.12233437396556351 -0.22079631218890364
Ni 8.612677287568788 2.4985972875583307 5.6225622771870905 0.2427902999614915 0.314434089550723 1.1534500999882908
Ni 3.6406760959806848 3.0609915462471493 11.852884202810394 0.3927671182346719 -0.9527438736810431 -0.2267273329613579
Ni 0.6985869403507344 3.4393930711647003 12.881545439638899 2.0865659150257616 -0.9174559970130263 -0.572193352117221
Ni 2.7326125905763985 8.597890856469988 8.063820261489388 1.4734179748730494 -0.36838097608082365 -0.19121139944293522
Ni 5.461018696443656 7.933238957589904 3.511909407671097 1.5338229583236682 0.44356928848820376 0.23230868370387733
Ni 3.100151915801297 8.286929661077565 3.7783364948181712 -0.12188700201549975 -0.05241887992134844 0.13443758498700073
Ni 3.494805768004167 4.325021991453567 9.446487232911474 0.6134274190663436 -0.5005166524075252 -0.620238528450906
Ni 7.173331121421865 6.20939056696996 11.769676839582194 -0.03882648594889442 0.3672908283404384 -1.1943995458174592
Ni 0.6263036904429398 9.43299643552287 13.362387614147398 -0.251858837921663 -0.7644514476571157 0.3564263748221087
Ni 4.5024318498033855 0.49618582825708235 1.5640602433222286 1.213790034528929 -1.3715133295167476 0.3102215941312722
Ni 5.902217028804815 5.400689329164934 0.5659779651423207 0.11335865282951445 1.4006822377712198 -0.1355632139510117
Ni 7.946586807337958 8.66793520033887 11.522305492365339 -0.09384783649009643 0.7164245261558758 -0.3715295490121343
Ni 9.436638413626023 4.958097940179319 6.174272793110312 -1.9681049079726751 -0.8055037376127354 -1.9112182220879599
Ni 8.25703812579594 9.040372986112509 2.357770188760153 0.8595961485817647 -1.0567735358001478 0.03882957127268797
P 8.659158033110272 1.4416315074066521 3.7754975728867635 1.473508991924959 1.4864483256944465 -1.181060919727024
P 1.7392357481057636 3.4965174977126483 1.647440600510329 0.6030075092846002 -1.4909994354002385 -0.9004900585826491
P 4.831739509890441 0.6747547461382298 8.304048779151433 -1.2948378910408798 3.592553596304716 -1.1295951477475643
P 8.468901097001583 1.6755557609721412 12.170936329569656 -0.12944578819936417 0.21007069824128335 -0.06885594243144916
P 6.6882287430272 7.9102671807042695 1.5985078932108971 -1.6097728314874213 -0.9430634131684855 -1.2554460195068184
P 2.088774596555831 3.2044490637303285 6.006658034868921 -0.6531923576691073 0.3028340434179494 0.2578194263804721
P 6.947082336708769 4.0546142222397465 5.787791539770916 -0.43048211628694244 -0.11100095123061528 0.21089036592910132
P 2.145325411552532 8.557601473703864 10.140425188213534 -0.09951737607104796 0.3559298948016644 1.2062240492562128
