# total energy = -340868.62468899286 ev
CRYSTAL
PRIMVEC
9.22718598819976 0.00000000000000 0.00000000000000
0.00000000000000 9.22718598819976 0.00000000000000
0.00000000000000 0.00000000000000 13.50491939198337
PRIMCOORD
 96 1
Ni 1.8929848324640925 6.222232738343279 8.032428492352182 0.1592209625792677 -1.3409351996195744 2.467944074697201
Ni 0.298192192828242 9.15377423258255 2.9780640419319733 1.3049112161164818 0.821066625047999 0.5891034976089983
Ni 1.5227163238041213 6.417304671696062 1.3152938023621896 0.17206079465641336 0.22206103783394013 -0.23795688312859023
Ni 6.692551621788938 2.075950698149364 4.496489724375277 0.6234590922707327 0.2523458048604106 0.16122873703791588
Ni 3.4675763943983564 7.913972650206445 7.3982246405761645 0.7109406202231692 -1.476746267915334 -2.0826717221776776
Ni 1.2785373080378526 6.992139887816947 3.761309088367064 -0.8149700252319578 -0.02937253962484619 0.2837927105157822
Ni 9.08668336519652 3.7616929392931078 4.46588776292764 -0.5845107360319933 0.14841281622017022 0.39918407750460927
Ni 1.661936101980498 0.26334757138554243 12.221425020691251 -0.8730491887628771 0.8335729850451257 -0.3248144043437825
Ni 7.230505776578237 3.0984797383251026 0.4216261016710991 0.15731268981296134 0.44875108979945943 -1.3713318096335607
Ni 3.1314853816533703 7.626010638188393 12.743011993446531 0.162330711852843 -0.2882800568631745 0.00018434809666419865
Ni 1.3609453037227164 5.656347892372916 12.512321277768958 1.4460241562411291 3.2935846922691274 0.26515169837582725
Ni 1.3294621460386096 4.115315604910251 10.993976794560009 -0.18679887219753635 -2.067785806204781 -3.0312522085096503
Ni 7.295843478677052 5.718677531926298 8.131594902745684 0.09526965653828755 -0.7454805629815677 1.5599155416456618
Ni 6.312354661291892 5.782760336766895 5.775243871277601 -0.43086701043018705 -1.1106265770648613 0.9487833463713982
Ni 2.125805182606347 4.114651247538254 1.1724348221369818 1.4167950841726824 0.8517923362666298 -0.30524548107291943
Ni 1.414509116840019 7.202418223239896 6.2104662311103445 -0.005048103946868726 1.0223492926840072 -2.056931637099096
Ni 8.620378307540014 7.543704141546473 1.7746000396484167 0.9126596040656475 -1.6415226130951923 1.1950952863329032
Ni 8.19621380707674 4.5684257869840295 11.365307352296606 -1.595590369339452 -2.0129405762301267 0.6046298753793716
Ni 8.771944060212679 1.9021935638148364 10.472659255627816 -0.34495822628150913 -0.4364306205608935 0.8912803670589231
Ni 6.0590130501034904 5.378729555549437 10.245709241042018 0.004655753604456497 1.044109310068918 0.07914164062817337
Ni 5.476039456175635 1.5135075924533772 0.9503558388939264 1.2689270847123888 -2.1886207128066824 -0.2684982462505569
Ni 8.948866119249915 4.565177817609818 2.005318436883157 -0.010891707211839305 -0.12763907400792857 0.40484024734912216
Ni 3.3167119078405776 7.166459880480528 2.693636964764092 0.6148548955414895 -1.4440315512911324 0.887671309551426
Ni 1.5835511592705083 4.153082476071168 7.034307203848775 0.3110104085811547 -0.6488392229067341 -0.011962828788831011
P 8.870610357140038 7.4565164636575165 7.98254171274517 -1.0375164873427487 -1.0225261845815035 -0.5584338364392833
P 7.371460265670384 3.7000645658546123 5.956357840788429 -0.7336357478278397 0.463340300467544 0.27081481019887554
P 2.647639443938983 0.28529904621862834 10.23797132309539 -1.8694925602143995 -0.7850935493874995 -0.24209893032142177
P 7.616774225280483 6.641857463431235 11.539224116944126 -1.2702941402632446 0.757995664729443 0.2576088530315628
P 7.786831258140412 6.954815921570695 3.805605116145002 0.7290838667910992 -0.24684878630158133 0.06663810884452394
P 6.6900787360153915 0.24275157013504595 5.773866252449278 -0.1768744139949728 0.25561264853714044 0.7676475859969102
P 0.035303212573092366 4.1097885206626605 8.72659521054384 2.302435993557641 -0.523116392084912 -0.4052235988304699
P 8.871237805769146 1.807494956748018 12.878169041749429 -1.072755770161017 -0.957326865066035 -1.2430116503982076
Ni 7.284235679038539 -0.021013070045139373 3.389653733693048 -0.07019034497215654 -0.1722006626683873 2.695708847784138
Ni 4.221335968858194 4.833467469668165 3.3075705349456057 -1.7006114488375486 0.6256807825123999 -0.5774078064386249
Ni 6.583191016609562 5.069618833856129 3.6783216254188473 1.854539281338677 -0.10794493801311086 -1.0616992552365394
Ni 1.6050228204460404 2.1562087595609576 8.967387849150064 -1.2193436173573067 0.06036333157940571 -0.9640377014273075
Ni 3.517615422569783 2.29022440499002 1.6644006832868943 -1.1968842599125258 0.6762808640574547 2.533941721744249
Ni 7.805580899527899 0.9208002403071851 1.208980936626853 0.36798965417967594 -0.704188131990684 -0.2902914308662484
Ni 2.378187166479641 0.8243770722288898 3.1806653588340614 0.12274420780947247 -0.1280260250337021 -0.03869895923209465
Ni 7.17646214980338 7.633032526522978 0.2427930924707958 -0.22784216329209148 1.486651699954504 -1.0899317677196714
Ni 6.340562168044622 2.245472554237407 7.589899124146037 -0.5643144635897765 -0.11293313525632163 -1.4208844237507077
Ni 2.1871198317302882 2.7220936055313203 5.207888211903121 1.0796113596302697 0.39779439624593427 -0.5468294194311356
Ni 3.5991376084253166 1.5081558247345082 13.102607416381648 -0.8851331165106046 -0.9209552684155364 -1.5320129016981228
Ni 5.47306830237309 6.677557444990382 12.719824075726672 -0.8699695213962889 -0.25718462100995065 -1.1283463629421278
Ni 4.6809789984232815 3.6673172837265655 0.07324816841844724 -0.4682043134280646 1.6444156183722711 0.2618025793979362
Ni 5.806806382758918 3.253994726486864 2.4929272209350524 -0.02622242403163871 -0.7335082211110401 -0.7707372806658275
Ni 5.597792171779909 6.845279999862598 1.6810926622583329 -1.3603745392911089 -2.991168710225203 -0.24621552359295662
Ni 7.514693869635914 9.01791315000905 11.981942642457575 -0.015371597360063848 1.5606999852201702 1.9691996836987504
Ni 8.713452929919727 8.333754237451679 5.2538728146682185 -0.15441685632240504 -0.7577604087901852 0.27099761563364294
Ni 4.026992983177465 7.265532173579664 9.587465802303985 -0.6011293184252808 0.03738538262699368 1.3309053261873982
Ni 0.4143154024234093 3.7587494670477293 13.131507884782113 -0.8632964802514873 -2.133701949281616 1.1586514416835723
Ni 5.028954626378447 3.050950504670111 9.931760705874568 1.0111871054196004 -0.18760902680365754 0.013880100416201902
Ni 5.095824041307145 4.554963323015356 7.74281573680843 1.0627330958176924 -1.3351607590296426 -0.14767182428908762
Ni 1.0511333159145224 1.2884196239463164 0.9740327974570615 1.0858378001559557 -0.20914612954448494 -0.5061018598047864
Ni 7.971393426955623 0.454064273077452 7.996627011750091 0.5235930746110143 -0.4069907180332217 -1.5488271450419842
Ni 0.21890852222891144 7.729392027019791 11.30229397828121 1.5650351222604144 0.07148129586943819 0.7278286542277594
P 5.936485250898552 8.817720128580454 1.992380999782077 -1.8345517824731565 1.5548216720625223 -1.7053890727318501
P 3.6375503825867863 2.8079156599333936 7.215650930284085 -0.691367583187248 1.271017134472198 0.5152601292652869
P 5.155579296044036 9.228477528189387 12.697365105678868 -0.2842997320591878 -2.433629103465415 0.1553743351396679
P 6.78992611271519 4.9628141591218 1.4247282250273428 0.5378655253696285 0.42531162782959653 0.21066565151280495
P 4.289192692659167 2.377965714022309 3.837152864129163 -1.2743744809802053 1.3772749145908731 -0.6431964227986601
P 0.8548886072564499 0.779651980314871 7.026231570904716 1.4377292632221883 -0.8194566002484015 0.9055191363661244
P 3.460582187620937 7.782974294508538 4.807022355388373 -0.11305192022237304 -1.2184799838054305 0.799032785176411
P 2.192840686878045 5.861034553248219 10.138791071923306 0.630935603153436 1.220572347558085 0.7450730431305039
Ni 3.492665112376986 8.918204181095085 1.463703857517866 0.7025760503085579 1.2557180422212824 -1.7575842666781665
Ni 5.589893700801716 7.209809199003368 3.9536460838717904 -1.0682365421344246 1.0872886736698695 0.8503224365893227
Ni 5.458886117918087 9.073746850814013 8.150461729391843 1.5971782826518623 -0.5440060910497276 0.10299299332447424
Ni 3.5811445962670496 5.414106585608308 6.1021030847075375 -1.064692019316276 1.0967649885914208 -0.6967301330507419
Ni 2.981073027195979 2.369264477886285 10.772550173347513 0.20104484059358926 -0.6283053646194405 0.5486230209964487
Ni 8.383479541308551 5.612961665107187 13.439312036977158 -0.9187464336896758 1.3925950898877113 0.8178494036622819
Ni 4.65052928554006 1.490458082519351 5.917098933696234 -0.04422323148443351 -1.1673800798058218 0.29645025137879266
Ni 3.182899260497403 4.163020155093965 9.004728424330617 -0.6422980793541068 0.09879361053114598 0.2750938971902036
Ni 1.3537480988594093 8.411530185904004 8.726176296312053 0.5575159526107044 1.6778528149847942 0.42009640217724425
Ni 2.333546041955694 0.2658748975548498 5.368245627131887 -0.5220612113475201 -0.33698137872361966 1.745115959007827
Ni 3.923094871945625 5.232201846281088 11.5067850228192 -0.9913466736549056 -0.7972597524363882 0.08815258587753205
Ni 9.081654548977928 5.906533806044329 9.821006795651142 1.0285505363987124 1.589969680718565 -1.1768491956385214
Ni 4.679770237093675 0.4535235599941318 10.490999209969239 0.8192910212048148 -0.4576391363177086 0.26806321559566737
Ni 6.088936813400547 1.7013361850142417 11.940185013471813 1.100588218992253 1.8132198537645998 -0.4059748751741976
Ni 7.369734781940336 3.554182759586815 9.185330285033862 -1.1221723729209319 -0.4701583518306419 0.8077755643660476
Ni 5.076207044461772 3.7979096432526966 5.187077217225298 0.574934662307784 -0.15428521584054722 1.4548726077706944
Ni 8.934850024137912 2.503759936972901 7.2902250452908115 -0.9954570962788533 1.6199664841909716 -0.23704105618254015
Ni -0.00021960702018808108 1.3903154358764416 5.153801217355371 -0.2126235465701241 0.1494497421251168 -0.9178784292624258
Ni 1.2533470910162787 2.6970510234813014 2.7823508191714987 -0.35416046160606746 1.536748359500579 0.8332973627862358
Ni 4.509131891533247 0.34964113497801946 3.8269429831275623 1.834714533303266 -2.5358551367168776 -0.8486324504814095
Ni 7.757414990058077 8.51081470427475 9.93166566586163 -0.4471320661387977 -1.13117406219891 -1.9527567076513785
Ni 3.423553491317796 0.7670614853969451 8.131663183920027 -1.4671691657498602 1.775612584934787 0.4060535509309329
Ni 6.9444814735618445 7.567334964180998 6.882201660811362 0.7193098181234708 2.727230058320871 -0.2154872412711644
Ni 8.782795230621971 5.374402005445731 6.485332098432895 0.8170353924014186 0.2865661594958613 -1.2622080208210005
P 3.7670170254548103 5.922487610157993 0.6614941762679611 -0.7429922493420753 -0.010662364809852604 0.008356085274179158
P 6.575144910659814 1.3540710503596858 9.664457439969922 0.8903210884694474 -0.2073345302570429 -0.2090844230686141
P 1.6840259845994165 4.978214332092133 4.5973853093731165 0.2795925563915056 -0.08898510908115642 0.901175514685448
P 8.49074557532899 1.9328924107125567 3.059876884137756 -0.183862929497664 0.6870242186168878 -0.13749385531482128
P 0.982353873541331 8.387050462183039 0.5086467674984846 0.8600000688884029 -0.43492523965996066 -0.388474404396589
P 5.342263717575349 6.625359255359963 8.020341801774688 -0.8385614393986526 1.0782687295594462 -0.05093663894886711
P 5.8725408538437875 3.9061722133311316 11.830147132860429 0.6741627892731873 0.3224883273137672 -0.5349187840364787
P 2.475700065191727 3.285062660813472 12.63506683855694 0.7153680598669034 0.6688550039070287 0.9309730576628547
