# total energy = -381173.84817766753 ev
CRYSTAL
PRIMVEC
9.18205467977005 0.00000000000000 0.00000000000000

0.00000000000000 9.18205467977005 0.00000000000000

0.00000000000000 0.00000000000000 13.43886516015361

PRIMCOORD
 96 1
Ni 3.2586837179617874 3.9820551806248914 7.125044089347124 -0.33698163583393576 0.43348902143406637 0.9256858411219864
Ni 6.888607095320282 2.3459140100320353 9.307557005992253 0.7684824231933797 -2.1825230845493766 -0.05889471745367922
Ni 4.541627966926345 7.608673018239554 7.176945654352686 1.0504403944932683 0.15279834688237556 1.1125340785002196
Ni 2.796771266980839 2.4773367610138326 12.181283074620437 1.4870556202611422 -0.22117812100835454 -0.938455739193145
Ni 0.22367669241017177 3.955463949796743 0.8246825829895736 1.7593871242148602 -1.3269550832903985 0.7170554748716553
Ni 5.280471192001546 7.523059538874342 10.64367545276375 -0.7524891330889169 -0.04152974381267041 1.5304345014674094
Ni 6.889745670120934 0.5940247742815287 6.639404290443863 -0.6006441512587463 -1.3055010271816807 0.0035452941490971197
Ni 4.364478582821558 8.184341946682496 4.121336852347646 -0.5122074584818921 0.28720507863144085 1.703499054797989
Ni 5.433278948714959 1.659087125647947 13.022381335260066 -0.2646976415575441 -0.4330226233206091 -0.34226422438911375
Ni 6.070541101051275 7.358526298125175 5.333643553397514 1.2893640124105021 0.013691124333847388 0.06669030223869805
Ni 7.549779318470306 2.9384503732233553 11.622817644133166 0.8319027964315544 0.2297964588049849 1.0526759686920064
Ni 1.9279285094246572 5.52529232030642 9.378822606458272 0.2966520829769536 -0.24046088049736652 -0.05956423271687807
Ni 5.10769246600249 4.083645435418618 5.804622365331402 -1.9001717344658116 0.21540702285253224 -1.2215354828023026
Ni 7.960593634244541 7.116028229695826 10.540357135248385 0.08810064959367407 0.7556215080703115 1.0103409553692213
Ni 3.1019827699945295 2.479659820889358 5.1734791343431095 0.21109296885821066 -0.03142350861660395 -0.23455788474937023
Ni 6.622345868954727 5.257497690781923 4.374511814149568 -0.05740656294392693 1.0064637318020022 0.3312318778343521
Ni 8.225009267586454 5.083488569433775 6.158131476824396 0.19702672057313164 -1.0983266766515858 -0.267246633231643
Ni 4.393778519828679 8.007109924084112 1.958069522655486 -0.7767978850376106 0.5268522049782604 0.32360778563019105
Ni 4.606875648647624 7.927428052148107 13.252979460611627 0.02365800573857216 -0.2577939724591754 -1.8618227023739677
Ni 1.759777539066964 0.8726634105767591 10.433370586822855 1.206877880790128 -1.1995957453064179 0.06564823412742887
Ni 3.374625524476645 0.24986850385260717 6.255643981061913 -0.507330590005565 -0.615951471039778 -0.4696024793271719
Ni 0.18283307605320728 6.161535264555056 1.2466723777144082 0.49877318735385706 0.4166382684253147 2.8026335720628506
Ni 0.6205783586848166 1.8049624309541594 12.270127719085243 -0.8452349947640863 0.15479300871490115 0.4086755619348123
Ni 4.820890982950966 4.117940410260861 12.728030366715828 2.105316199050071 -0.38205024603780013 -0.14450422519438338
P 6.126716912586708 5.923417036286282 12.7314571095836 -0.6531550766732687 1.1434860467970434 -1.0648282877838242
Ni 6.419927469919324 7.236111142945315 8.828165595410317 1.7504443131992757 -0.6881069101581053 -1.869211024418239
P 5.550487878798284 6.466195844278109 2.89697594969861 0.2915283885971431 -0.025768110103039494 2.5364642310557866
Ni 4.050029932634829 0.33374932946876146 11.46468245919928 0.07821295816631692 0.46849664785750283 -0.7195453311730446
P 7.411212928819897 3.288222388394851 0.45741967154579205 -1.1452868474512081 -0.7391798175745206 -1.075553130400496
P 5.419533412613529 1.2406241581886828 4.9566568458739635 -0.573792835393857 0.15515656270190697 0.4675178288840013
P 6.220254505282269 0.483571081946914 10.863575566016594 -0.024366087549190292 0.893833215387764 -0.7773128770008162
Ni 8.87307869847413 8.56347817324502 5.006070992222293 -1.1431412618631152 0.5172257376320899 1.90194836675026
Ni 6.792911719736386 8.309328077218668 12.423357850321478 -0.8067934029584364 -1.2392642675406333 0.975493765783049
Ni 1.5623541778666825 3.2066490131609875 2.935907862237059 0.8309658864395819 -0.07605143173862386 0.9155274125317459
Ni 3.8967998013985943 6.194746756925709 5.527915633375343 -0.2776032938756187 -0.6415030942566372 -0.9723058549733705
Ni 2.107125491759651 1.6612816367556569 7.791262769839396 0.2603715033783645 0.9911358431956802 0.51212724006326
Ni 1.0341105626928668 1.069195194251691 5.498149247982148 1.8724791536465493 1.4305540856299879 0.8626015110669918
Ni 1.0450096617926639 4.034310254741946 11.784621978182704 -0.2565680704718743 1.2855824338808828 -0.49695181787440224
Ni 1.962544856186439 6.82307476989884 3.2632123074108352 0.17098504509373133 -0.9259807466545859 -0.41084403034104083
Ni 6.157127878229948 5.733807603758222 7.099524404319267 -0.09839174710703699 -0.2319083629416651 0.0064616964649437105
Ni 6.252924256417128 0.37983130811421306 1.518726562481025 -0.9613383002182734 0.2171738849449679 0.26006734187438435
Ni 1.2409455301082217 1.850468694760894 1.0907491497924353 -0.16564666359995342 -1.6963099932487173 -0.3342716931019404
Ni 9.336037903707291 2.4551620985656357 9.980117731765258 -0.9443335381301607 0.6876957907626157 -1.2228804268659712
Ni 9.087626591958424 4.838548074415928 3.61525596295073 -0.15409264021376687 0.148138479512861 0.1612873581899932
Ni 5.440459315602945 3.807586956534544 8.387559184489325 -1.1113688545475247 1.3259639230217228 0.26738033059602984
Ni 1.2947982817681285 8.668355603672888 1.8172572023902407 -1.777908065837183 0.73783101685611 -0.11010646444080392
Ni 4.757608260966299 2.0162966052430615 7.102131189689471 0.20575921535012304 -0.9214471204502904 -1.3473444455800279
Ni 2.9847003834724517 7.3080249964833195 11.558983080652375 -0.37762614882817547 -0.5343192027792668 -0.31256258355962296
Ni 0.9988882003113831 7.913811064814494 9.70796713542278 -0.25254840778951987 -0.1734345350754884 0.12183917949669984
Ni 0.646640703153952 6.5797319524238445 5.5129185831986804 0.4113587651939302 0.17620181340798038 -0.3197588441977461
Ni 0.8983740823453703 4.123670012483499 7.497515980503891 -0.3678950375833406 -0.6183271703608061 0.02677958208668936
Ni 1.9739948785768742 4.677338737520278 5.230877077378274 0.5377143445037449 0.2566308053890096 -0.31328043556225404
Ni 0.30344487566171024 0.9574771329650611 3.3044553431535126 -0.21152080042424865 -0.14717611559959168 -0.7810628309615516
Ni 3.8943941030294726 4.688981583062438 10.508077621444395 -1.013429621596874 0.3143255889973167 -0.4571452274004256
Ni 4.125258507971507 4.588162620875606 3.618884711025069 -0.27020597297028304 0.046322537215623454 -0.8320956291686509
Ni 3.364791543738749 8.473999048790494 9.065213196084283 -0.6233526485998555 0.10136908456780606 0.30750548075168976
P 3.9629289603848936 5.7172707229842255 8.369752425530406 0.5438585097282698 0.08288542394132177 0.07090125499625208
Ni 6.26413554538162 3.1197316820079313 3.798777693117236 0.5109262777766234 -0.5914411446032395 0.6526760801543212
P 7.709969447278275 7.464680034176357 6.712968159237328 0.7925237804132996 0.20167064710304622 0.8395865382290573
Ni 8.198004844290327 5.220273640444453 12.89320726950956 -1.2888647041765802 0.49165534536215333 -1.9821788695672378
P 2.2786279121353945 2.89111688050267 9.79697338405284 0.6783567727498769 1.0023155139615834 -0.1471840860193917
P 0.48121313026298157 3.246159395154607 5.000064091943366 -0.3847627598729567 -1.1262740537941311 0.3602992275139537
P 8.273619065930452 8.7260097260382 1.7349575266182184 0.2363345170338188 0.04452070812019429 0.49765295770648493
Ni 8.145942593324998 9.404168750649577 8.780605305934985 0.021176634077615143 -1.199366402904431 0.961177349160377
Ni 6.82651804046533 -0.05289506333968015 3.8478833224228075 -0.28403208022009796 0.6075807304775794 -0.5320154943467548
Ni 8.787694770480018 1.9581282878064874 7.421156176010436 0.4816028462221577 0.5179415327521919 -0.07952730610236626
Ni 8.474898890165205 0.13299288236011725 11.438167439426335 1.2275186969689311 0.9856377961955864 -2.736913604157222
Ni 2.088467556316696 -0.02989217954455687 12.878101871085736 -0.1495484724865102 0.4973050874487629 0.24164307373092575
Ni 8.791349228307919 5.096958643889884 10.047043893112015 -0.299530175855697 -1.6971011216914451 -0.4149660229292143
Ni 2.3008301207481234 6.873759712637576 7.2394359650043185 0.27146684196057763 -0.52982285757081 0.4007195403125292
Ni 3.2158127038952733 3.1217976443478253 0.9292744515117956 -0.18327980330068436 -0.7165366262537078 1.3286813219528857
Ni 5.36602039698285 2.9917797477571555 10.88169084201827 -0.4258489883903053 -1.5313241031612141 -0.15343855156953573
Ni 8.054838245163088 2.529940753214959 2.3485088587309417 -0.22904775356441842 -0.11417060720784852 -0.021599580547646675
Ni 7.91451808303748 0.9667142801380989 0.051077016480573334 0.8212414600629662 1.1570447593180846 0.8268600918013244
Ni 0.9548235191151526 8.783370022648505 7.474427703598719 -0.4008347257341548 0.2828511725381193 -0.41449988192607323
Ni 5.652739241540777 0.10370029099687186 8.680727504369658 0.39522200753306774 0.6520484738726512 0.1254315248336485
Ni 8.380691007466032 7.16104784459583 3.409332773581382 -0.7431943380505522 -0.8925399504976371 -1.4517739142407127
Ni 4.199715790701291 1.6631547759438272 9.2834201384239 -1.8270243637478598 1.0506368267747905 1.1506568535138697
Ni 7.9894161043997745 1.8077996859009475 4.987781257178582 0.9706256390574703 0.028892000444001854 -1.5814246193620312
Ni 6.221999095702624 5.222128415522936 10.20566297233618 0.7930153753377375 -0.07203973947606948 0.8140665395810819
Ni 4.427210381515588 2.03443116355991 3.089044336513886 -0.6639187429476759 -0.6608089936741006 0.2187941941572103
Ni 2.7761483718012734 0.5310000680379765 3.284713925238969 -1.210424974711438 -0.14491765858271816 -0.01719270972920265
Ni 2.36166123408945 7.174407734393812 0.7900175713371193 1.515729591157067 -2.4054325864265413 -1.2965854698596058
Ni 5.39823104537551 3.1658439614343674 1.434665768589929 2.219565996235287 0.7184490127850723 0.14439803863382228
Ni 6.884089524337046 3.0803682128918153 6.389522013508989 0.6389787851728868 0.3683951171482107 1.678266762593761
Ni 6.835746005583524 7.04306762190561 1.1678279091801735 0.6472001446414144 1.2268800349436677 -0.4195834670965677
Ni 7.103761004424277 4.9524698288651114 2.119228358249493 0.8587623398265598 -1.2225274144019267 -0.52932277800594
Ni -0.09928372261692044 7.5573269675520525 13.06460685087105 0.4196996809594578 1.2396699876194843 -1.4142013553035773
P 1.0785884363570761 6.417448315111451 11.303564024646585 -1.128838729197514 -0.6802383060433059 0.6416280498702757
Ni 0.04445950955452138 6.316969088953846 7.967782264981888 -1.0239415768717912 1.2364275694227869 0.2380229604798352
P 2.096492672250329 4.978528500512309 1.6568512952934393 0.32002803869873275 0.6346950701958682 0.4959894539611329
Ni 2.912299881027718 4.978840690377005 13.03631785810225 -2.186836110102434 1.8378890743765055 -0.6962315961477686
P 2.1729883711554754 8.108039070929072 4.939105348039708 0.18760619859018013 0.6512244353094592 1.0322161581757576
P 7.764685312093515 3.9959476296038234 8.311535443203159 0.9436197998925877 0.837378474834145 -0.4625944234404549
P 3.65389772255611 0.6828051443624273 0.8523692329606082 0.09457700134663712 0.5926925005118373 0.09200666951629961
Ni 4.847050657201447 5.631960251428864 1.1421502928090008 -1.6193311645998176 -0.4569356824927808 -0.8221922540120098
