# total energy = -340885.1915080713 ev
CRYSTAL
PRIMVEC
9.15035855792571 0.00000000000000 0.00000000000000
0.00000000000000 9.15035855792571 0.00000000000000
0.00000000000000 0.00000000000000 13.39247468193975
PRIMCOORD
 96 1
Ni 9.00575559792469 8.173960539498228 11.785899936468557 1.1800425057648387 -1.2383870071420027 -1.0939195487228257
Ni 4.909451112643232 6.001793485169725 11.569182840621641 0.10476319785101958 -1.126327532739886 -1.1860455174258089
Ni 2.1786546586586617 2.896884615051848 8.58994682719101 0.04120089971834195 -1.018440444547904 -0.5626519882856891
Ni 1.8819634276275672 2.9652835464593683 13.182400232738992 1.165463579509399 0.7779001169628539 -1.522715792666913
Ni 2.9016428015845452 7.219312764941016 8.394884970283094 -1.3383203877045466 -0.7688557473723984 -1.2215547660760124
Ni 8.48454201506131 5.159182702740093 6.742722736431491 0.9574021983886609 -0.26565280638196187 -1.6831636856747463
Ni 4.580587220364133 6.221694905850062 7.031946359713865 0.017660907614872812 -1.4540141164251412 -0.5622956333875349
Ni 3.1977392592990523 6.859538960916818 12.857740015254356 -0.48436678212054 -0.26003931684992637 0.011146760645438866
Ni 1.5387700735980758 6.3612744777149866 10.75714432170046 0.10646835346758438 1.6761697708554164 0.8665651237004302
Ni 5.4247718644930405 0.8776456758842275 1.6353823060368744 0.5210708224097929 0.06426498062665706 -1.1040507236195567
Ni 2.901615350508395 1.9372681957114535 6.127418759991643 -1.530775686856912 -1.1851366324582944 1.0667944103712594
Ni 3.6777121754261506 4.494500645557182 0.6172054209811828 0.2006496620376996 0.9251783053579486 -1.1165707104634384
Ni 0.10910704726648669 1.1394484192001926 7.61596525970123 1.2166159340134983 -0.07716549073840905 -0.8349534103324201
Ni 8.519990504729904 5.310419831610126 1.8848567710537958 0.2789454097258099 0.17985637944143218 -1.0050647945719466
Ni 5.598162011816264 7.94564993915722 3.2480232255550714 -1.508211685513467 1.1801137253224063 2.230358715975417
Ni 1.5148601862712732 8.67543679860963 0.47141824576283187 -1.1579261334817734 0.8325090625569855 -0.18359553476889023
Ni 6.237552477506146 1.7412034594881851 3.8846210017646103 0.8630702231732943 1.7057333434451463 1.2350119200221827
Ni 4.424061184155833 3.4647833280879574 7.567069402862538 0.6264911942288371 0.5104524234639983 -0.21924542276201595
Ni 3.926839841847708 0.8165889923110077 3.45789676811775 -0.4636501183984789 -1.7471939245827781 0.1705340735992418
Ni 7.199639493700057 6.41200406644051 12.458349733166097 0.759531384647679 -0.658724086120614 1.172842902692606
Ni 6.249704153881957 4.326088293375857 0.9729430017754327 -0.08529711870660794 -0.1433811673335337 -0.8515876764549914
Ni 0.6624200885081365 5.161946111072544 12.809233048661124 0.083385760616508 0.7613501830239726 0.08696113667259216
Ni 3.9709903226559065 8.138603553416802 1.5085949356579313 0.27190907170431877 -0.2441036194562764 -1.0758950871209472
Ni 6.335882232276075 2.0296044655219267 12.91764466866514 0.25942328053248226 -0.13314200610402877 0.132684606851636
P 4.843678334187413 6.439812006580638 9.246593039348895 0.7665553813739959 -0.20167733197126558 0.623103765813843
P 2.6477294975541406 4.68464509969073 11.817372595274733 0.31119192846434146 0.8904018211087117 0.5333221289733202
P 0.6205553673073759 1.7679042062235888 0.9178047702201907 -1.2219550868382245 -0.730357077076568 0.4523591188656919
P 6.697714867011535 4.1367307700919485 7.1689647461739785 -0.6921489414379628 -0.009353416190441955 2.3148557073782325
P 4.343620380677103 2.467604686215407 0.22496248408655814 -0.17347618694670125 -0.3649305556383779 1.0812843764573186
P 2.1988952521400575 8.548320015316884 11.83404637892835 -0.5298902204736358 -1.1578119765014125 -1.9454894845660042
P 2.895072844025936 4.806308269188308 2.604983596808959 -0.24554369433691264 -0.2805263810596846 0.8883426245868379
P 7.1265006764772725 9.280568321264093 11.65218940468454 0.1413178570466018 1.113270956666244 -0.6762119584927322
Ni 8.313631614950319 3.440827688967571 13.108996055113423 -0.3814290675140334 0.4953888442626565 0.16342728735113146
Ni 1.7419903903378233 6.39831512980029 1.3700639949019435 0.4014793012966892 -0.812021227016279 0.9000925660339144
Ni 4.534963531802541 3.1650816290390607 2.5699761544305124 0.6447601677413541 -0.40261161512891946 -0.6085646916574036
Ni 1.0976038287886087 3.6308806395139515 6.119825792328505 -0.5802396194604653 -0.601651509477338 0.03801067491581841
Ni 0.9403366135242545 3.63060612875245 2.169567437417082 0.29404781258488716 -0.7103595509087186 -0.7139986903232026
Ni 7.707365447814982 2.116121107188562 1.8251396999967044 0.48352603138679956 1.0248520045012026 -0.17743440026350088
Ni 1.6435325305458612 7.9310551170040435 4.811113122550459 -1.0857750652388205 1.424077733877025 -1.0996271406305642
Ni 2.7907587546552706 1.4913346140105728 1.5552818959024062 -0.737939003188884 -0.11692091625947605 -0.4359968754575846
Ni 1.3052712198646848 8.793018908119548 9.423829082440758 -0.11208132877898762 -1.102542000284514 0.216536251360969
Ni 2.781718200243146 1.2191754946990183 10.61245152938463 -1.2043581996920678 0.9358509545804462 0.4748809541172918
Ni 7.098445676651793 7.228463123657741 6.1326152487068715 -0.8010536722611817 0.2401351217268316 -0.9127539635516668
Ni 6.208500088580545 1.8796941386658192 8.73750551185692 0.4675394261505561 -0.5505734598546002 -1.1788641691860213
Ni 1.077720099297165 3.716985515038335 10.610616882461926 -0.6244808486670277 -0.45607590559564676 0.7792484034606321
Ni 3.2845304117271903 4.516205296433255 5.212899883586628 0.5252576067976309 1.2270031907850933 0.9211815254937297
Ni 6.060758396740301 4.164895574222029 9.53982177464158 -0.7956368721209846 0.7463534525048243 -0.7710578972300398
Ni 8.244107189420642 0.16091637832058417 5.061913474545435 -0.06354301485896799 -0.21435467032861796 -0.1774338860428686
Ni 0.14094206027784498 1.508738596289784 12.104640786899346 0.5067420644919466 -0.48513425641418384 -0.7038518316971879
Ni 6.8821128958709785 7.349723677371781 1.6400288581932274 1.4815285197953258 -0.39024949401914083 -2.2108874946246826
Ni 7.206831675651403 6.201408560575082 3.766673792941895 0.1690952842701862 0.5180487477540174 0.892942071032062
Ni 7.970273554463927 -0.035043128777442104 0.2809635944687874 -0.11509106213958888 0.8147249991006872 1.454653806891669
Ni 5.472472684483328 1.3404360484130593 6.470132635224378 -0.9690912046908149 -0.3147984148686772 0.052533808232657915
Ni 4.219504915043443 8.495156431172711 5.304116149490174 -0.4855407478239831 -0.17035126816447435 1.2788883096901589
Ni 2.57773840372991 2.833582433449544 3.8191318844290087 -1.8842427219403808 -0.6483064903317156 -0.10884739522272223
Ni 7.510230119621856 2.4322019483403974 10.677150970762977 0.09079105194164364 0.3067657743721878 1.0691521119701588
P 7.060718747662736 4.19498195368262 3.016922680841334 -1.0413672285474065 -1.6322411877932663 -0.4628682459271319
P 4.183507403851847 2.2393764391028497 9.376325910198752 1.1676754995590535 1.4312346566367804 0.1859666061042281
P 8.900764382008985 6.5386267303625525 4.867267043923258 0.9217296846877158 1.3285558521186152 2.138668806368588
P 5.306018509067381 6.368265351774564 0.4957920562765726 -1.0016745379434748 -0.11243202725018701 0.09772737405016073
P 8.966939776248342 7.036250688454213 0.4744168183143027 -0.5244114567472516 -0.29074163102978956 -0.24393418375794762
P 2.208558030944919 8.692273458648403 6.770779566328713 0.11107371345007966 -0.34853720188201914 0.29775662889504206
P 2.139006154339092 8.354570319848948 2.501674216825389 0.1900538887997243 0.17317099700145658 1.694003713713044
P 5.178654666089285 6.523089421261553 4.999611427150868 0.15628064900402117 0.08414963536572603 -0.598696283503756
Ni 7.212431695186038 6.25500221157894 8.294695862621928 -1.398030659080986 -1.4616271528857088 0.5658560970452835
Ni 5.321848629647316 8.289346562916132 8.09421058810261 1.2253180897731866 0.744247461905415 -0.42552091562692523
Ni -0.02228935879807066 7.543363568535118 2.8330974644375573 -0.22683557640444804 0.25712085765155074 0.1309694239327422
Ni 1.1399882903644794 5.154909485219383 4.106748704720727 0.6436409665352464 -0.014222314246969054 -0.4376454668046011
Ni 3.2674100905681973 6.780132147973077 3.5401530027658787 0.2329414321918698 -0.4256818666848217 0.5063697687541925
Ni 1.5427870810747182 6.406495550493042 6.4962742950421895 -0.2006828292684802 -0.4615636681830954 -0.2936868297010426
Ni 5.211376348860294 5.397403141571314 3.1208616055046146 -1.5470998779382323 -0.4743541350795444 -1.0219137478084854
Ni 7.947946679195118 0.2577216833283057 9.519518043685038 0.17325430074388226 -0.05350671366888849 0.30685807697567796
Ni 5.620433984932772 4.076503109018463 5.3317447425994535 1.0626014553358345 0.23421772780113212 -0.8297795794409646
Ni 4.484526754555953 3.291082068568365 11.403504615624874 -0.44915192478230387 0.8349351554999749 0.6126082655991578
Ni 3.8338996483619314 8.210809034050481 10.138117064298779 0.8635499910231902 0.09520306496641023 2.62707864821025
Ni 3.386007889895671 0.5866981250196213 8.299557448208125 -0.28452418936516805 -0.2662158779742835 -1.2872212550358864
Ni 8.599360716238778 3.3958536758748674 4.224107545477956 -0.05387335297968786 -0.17378446221573943 0.008448130767353191
Ni 8.783722143663354 7.860743760624728 7.638638933565402 1.4639290615460079 0.2476111183889026 -0.5710759506833262
Ni 7.681369278700766 2.4421483882654775 6.325064678201161 0.2881589579042779 -0.16168896450378606 -0.3676448692457475
Ni 3.7697739344751215 0.5756325962234856 12.614130930174856 0.2678115045961775 0.16203169255518546 2.2719874472597965
Ni 0.657900726337946 0.6889369130333342 3.129914970418943 -0.08653304799623807 0.857420995307317 -1.719567421114761
Ni 5.288047204547733 1.0903841957611127 10.956062139771605 0.5362758122850055 -1.040210489235144 -1.1043340591879305
Ni 5.60079731512668 8.19773317144428 12.698342596480748 -0.56680869076654 0.3981731197415917 0.20384091528148765
Ni 8.528820600891544 3.210531460785034 8.672872868097205 0.18301986477107834 0.6507310406128083 -0.49549708770574663
Ni 6.69320374016419 7.358077954880152 10.20474448625874 -0.43082947232403224 0.8247412456861087 1.668978652423616
Ni 3.022702047406818 4.93935448492949 9.57848570036323 1.8901302910694093 0.0009315106753338795 0.19458648656275518
Ni 0.755459105868054 5.496812638669816 8.634811951014985 -0.3124021467223588 -0.5384851612314984 0.021631205116530487
Ni 8.101068781960796 4.910375298873622 10.558948466932067 0.9896541164438312 1.0224102278289293 -0.2102876993480959
P 7.197168896846541 0.2483498859306358 7.094704094972524 0.47250396924468313 -0.6031350360014 0.6522009402901155
P 2.5446049548166485 4.6805640397030706 7.411570036902255 0.12845179971721102 0.7290897803283701 -0.9246825966684526
P 7.217116678849002 9.446372821211154 2.847133199673142 1.6673305752972318 -2.69562502982108 -0.8491548986437827
P 0.6987735486538136 1.677992781473048 4.958657166642422 0.6296127705769543 1.555756782282282 1.9875529893949577
P 8.874887167558086 7.147189637535788 9.678245656200582 -0.4803491763207146 -0.3436654756120146 0.4482273560855055
P 0.8184474301663746 1.6664724798486912 9.784395307529822 -2.158378111872057 0.9752243141717463 -0.07583828728655326
P 4.460003793195129 2.2843779032717038 4.843602386210064 -0.506109058893638 1.2208256012194716 -0.09311018699312351
P 6.507396556062369 4.3482687629051995 11.846018708273313 0.33819982451175307 -1.0392954336200424 0.2277578311084013
