# total energy = -340890.280251552 ev
CRYSTAL
PRIMVEC
9.08642375328249 0.00000000000000 0.00000000000000
0.00000000000000 9.08642375328249 0.00000000000000
0.00000000000000 0.00000000000000 13.29889963272017
PRIMCOORD
 96 1
Ni 6.526387302809977 2.053558976239651 11.405202484394499 1.2494360658673127 0.44270899737043756 0.1405151586396483
Ni 4.661117194884631 0.2993022477482422 5.824146695140649 -0.5300971942781193 0.8094737780040769 0.04677993646801621
Ni 2.8812231224134512 1.7953319060425537 4.597642166056176 0.274824702689217 -1.5210175790288838 0.754142866642256
Ni 3.603948163280721 4.804709945872517 5.087254102710998 -0.12484454198192693 -0.103720358408802 -1.9042392196669653
Ni 3.7432066902465086 3.143866194444385 2.6479173860222436 -0.5529738417659767 -0.3743073688675876 -0.7427114848768629
Ni 5.383814976481322 4.743985377445507 2.608007087967185 -0.7899403359568395 -0.018578277222819618 -0.7131687382227395
Ni 5.509007719828224 4.535570081020199 11.397010164943085 -0.4135789127737007 0.1331152666311514 -0.5441004505357468
Ni 5.812194413634008 7.991754824914411 12.316283633110169 0.15031440411825725 0.8892782490272297 -0.3937994161539282
Ni 1.6418985583755634 6.725598052203029 13.24901500316222 1.6502311966127836 -0.004053344133767213 -0.16956425348680476
Ni 2.999946332209548 1.8567288698105182 0.23769902216622799 -0.04922454135376684 -0.3451865402422313 0.3559694897903482
Ni 8.266719087247159 8.860480519004065 6.675555483273669 0.9416984145001588 0.6810160647495949 0.8461029991913365
Ni 8.885677171442806 2.451326252531855 1.5529660967531604 -0.18309622653496854 1.7304555287821746 -0.4780716931404477
Ni 6.812491520386105 0.9998973041169362 4.732692770286882 0.7442405199268796 0.633196888383787 -1.4509784149226108
Ni 1.0651105657659938 7.623663807859468 2.2769178047964957 -0.10286829482115187 -0.3994540433365443 0.12614783417438274
Ni 7.705714212302967 3.877885659754985 3.5055503742708547 1.0604471279969931 0.42964676486984066 0.8009397723911368
Ni 7.7329462236116235 4.102420271516147 12.641468558273395 1.0089638725160364 -0.7246250596887972 -0.24472274109751402
Ni 8.451137139139213 7.250929628382529 8.743853547115512 -1.1183429718725126 0.21996790275033729 0.5304761748840928
Ni 7.144645732394089 0.8998612329452579 0.36824821218194986 -1.0612202587175918 0.08591778300974236 -0.6441443885342261
Ni 1.9051231615121875 6.629781716117016 9.024127915357095 -0.3482183850900197 -0.3861658108680704 0.7329731745431765
Ni 0.28315839906886636 5.184840474099955 1.4984003061923523 -1.8347137619723175 -1.816151425589098 -1.1351633858639614
Ni 6.371491040955234 1.7400137596137584 6.889640707979457 0.47523293814007184 0.9809007957312331 0.780949702422455
Ni 3.482426335038489 4.746774909468114 0.3538207889067132 0.42054377412730803 0.10096105049610998 -0.1613932876402382
Ni 6.087985540507659 5.758202885040069 4.536933044549161 0.3943514320026563 0.011284314664567663 1.19298158242401
Ni 5.454461919399174 2.9166965198605626 9.351759814375985 -0.8326990670806046 0.5295950578307201 -0.27347153109543226
P 0.23293591895368293 5.698495996048016 11.860583137698269 0.5837951980222075 -0.9882240688655238 2.5767536747034523
P 4.307164652836785 6.242273011986131 12.25025441062844 -0.23648646923065078 0.034558968921792096 0.8488862183634283
P 2.6053411313045354 8.897244188591928 1.20118975313989 -0.021148866163473255 -0.9738053223370324 -0.8305609376916794
P 6.57249181578299 8.179816532640556 5.653241972317075 -1.622982131088844 -1.285474704658425 -0.036462099481775916
P 4.88598800431627 1.2439495536128313 12.437236651239648 -0.21597446532022807 -0.7559500950543239 0.9233091133596938
P 4.280605036869083 6.255248424781847 8.061752997192476 -0.5980370526532024 -0.7109897282935497 -0.6767243793527764
P 4.733899447331189 1.1985719545219307 3.4565836378870216 -0.07589690843863058 -0.9934842888231986 -0.39784093321315356
P 0.27363855314024466 5.71117155686736 3.588654803843417 -0.504149364064106 0.3941814820836953 -0.8289100323518176
Ni 0.8964883525322538 0.04507502118747113 4.343912875504652 0.20762403647300373 0.27021317205913464 0.49089558437799335
Ni 1.9155180300264028 6.706462044256406 4.781433254724908 0.8061593689188632 -0.1284901091543142 -1.0307665702134248
Ni 6.2655251697902195 5.716296299736256 9.04238708343342 -0.37669823769726735 -0.1276663277014382 0.6338643467644567
Ni 8.98964402943201 2.2437287342239243 10.017343063612708 -0.3225261225302381 0.7479174545578345 0.4228598238549944
Ni 2.4968128887050725 5.046526935180915 7.1271861695880885 0.24688323908394252 1.0335312774427556 0.13931651034585685
Ni 0.6933840706581336 0.14097040915816358 8.962966289958464 -0.5450077928413646 -0.765275743330624 -0.015303206015973644
Ni 1.6435613738808967 1.1142862898909347 11.445924200070465 -0.6281282156116279 0.2615444406405431 0.7523248395969108
Ni 4.175102573303915 7.112379842451801 1.3243962043039186 -0.3425650434589842 -0.5677754255551835 -0.5539233501634395
Ni 5.621334087461727 8.075249970698609 8.035341489928257 0.9655176284069437 0.31132871115252186 -0.025448779090407787
Ni 5.095148387470744 2.9412207769583483 4.570100307705269 1.5691380886851944 0.968687541494493 1.5292345676220374
Ni 1.1167123649724866 7.142301435124275 6.902540703459905 -0.7590073938234089 1.041488070395987 -0.11870680451530523
Ni 5.277576512610515 4.538550427936862 6.8081591136487125 0.40214598834641063 0.3916810842593448 0.5541454934765746
Ni 0.4597239637493956 7.525712162244749 10.953159274451979 0.8372059538120228 0.7179592176328474 -0.28204153215263045
Ni 4.5763408633832094 0.47200608243004644 10.38984463064737 0.7051065300398953 -0.4885093435340039 -0.285953722722843
Ni 8.33195052174327 7.424607527666364 4.561721716571565 -0.14717277316548202 -0.42729651947010927 0.6153948272053595
Ni 7.066765996349214 6.378687488388152 6.807692980121808 0.5999417258750829 -0.5812256375228183 -0.5464496674942138
Ni 2.2518792561271157 5.526935233445834 2.4959106068489 2.0296871995608465 -0.027448583129255955 0.8566761467214924
Ni 2.4871812797670763 5.334203104027114 11.1464593053411 -0.5843608407176905 0.28375517240962744 0.935802360730698
Ni 1.4054789046418543 3.455366965776835 3.926898736898803 -0.8432423898140896 0.49526851663470833 -1.0974699850782452
Ni 1.8954279476095062 1.4856029872977539 2.3378004769928658 -0.7098859537064097 0.04944077112963098 1.063346046811343
Ni 1.2111839103765902 3.3156904633288327 8.17186772933965 -1.1298057210964736 -0.27441229774214676 0.5603598498174026
Ni 3.7690121330615183 2.729116392581317 6.823785036187083 0.37660002155650624 -0.4244824470600818 0.536940699562514
Ni 4.523930372482865 6.9957283372197265 5.9107884693920445 -0.47640047608561176 -0.2968937666741145 0.11870449052246008
Ni 0.4092297995707725 0.2978602323346007 0.6351328267150127 1.5477814773862892 -0.3976375589530958 -0.8749582328601317
P -0.02736103852273128 5.431573218536142 7.715463036104454 1.1586997784230046 1.5165163487244204 -0.7707709621172403
P 8.503038790322078 1.7063576468719288 7.8426538839848146 0.32696950301357236 -0.791100931923844 0.21356842698189668
P 1.923968403905966 3.3634305325366003 10.318828778934346 -0.255557884039805 -0.937619616445095 0.03398304181366405
P 4.0946059472834335 6.358860912253522 3.392828747213953 0.41559954274815525 0.05211214731420702 1.4787882380460273
P 7.21309376081855 3.751329952879121 10.103505983344261 0.033765269375903136 0.7080314169961742 1.0002424334826385
P 6.454386482786689 7.719552835333692 10.090925829971944 0.47038666579136407 1.2305759957380162 -0.27260661199197567
P 2.584860332676003 8.542174016450334 5.743648251835462 0.2600835398243005 0.18719430786374214 -0.05348485929201757
P 6.972021858239318 4.113460276100738 1.4048555759879424 1.2526113782715007 -0.21911043984604844 -0.3406220608000005
Ni 5.31124171177587 3.154570001358498 0.18905576245993494 0.47351544122833295 -0.18001630205806418 0.6732035106837115
Ni 1.6575453796880446 1.0717254820932216 6.842030574628118 -0.4464180707909086 0.42982134277449197 -0.08206215670907802
Ni 6.915331661858034 0.7870160305283967 9.198861657054701 -0.2717177816291192 0.07738917671344091 -0.9306128461099585
Ni 2.657778881475458 1.3949113940806375 9.243493260774082 0.40862542542316727 1.558986087852857 -0.4458146328789548
Ni 6.497646945195936 2.1447139770566146 2.3826837746439296 -0.7156447105670577 -0.6137531778368784 0.04661230054190036
Ni 4.041132344830499 6.988595494751492 10.161888071786162 1.2796287874006091 0.1303382181066465 0.1735075544052689
Ni 8.552614317082181 7.116750412168005 0.4979741722261788 -0.8039037401154671 -0.03220795219111228 -1.5701747574798248
Ni 7.6148499770388485 3.879966450742533 7.860167965331973 -0.059303008635691414 -0.6880408328068602 -0.05885512246499541
Ni 3.486733299790009 8.454490029420459 12.391621896494708 -1.253743177883099 0.0815394514363886 0.12050040608061828
Ni -0.07336650947930698 4.975334806851478 9.808297169394667 0.10915541338144429 -0.5491220721200543 0.6583106527322792
Ni 8.731989403917076 2.5263801108600163 5.720361565621973 0.6391407646720476 -0.8520972691015584 -0.22720607236998933
Ni 3.7205905820892697 2.839979846027068 11.522179283588818 -0.2082598702847897 0.7316734818951464 -1.254551789827323
Ni 1.3199574864112662 3.6782660213032434 12.581024760333353 -0.8466948671390644 -0.36561858284433807 -0.07183250856126984
Ni 3.280489658587513 8.381616912738636 8.011575949194926 -0.668279591019533 0.416206837314851 -0.44174869033969727
Ni 5.7452729043619835 8.232572307634904 3.4593631748437508 -0.7900285247952716 -0.39928512185884785 -0.1172055373794304
Ni 3.0189096981091694 8.33192326247269 3.3797288504159253 1.9336824646287474 0.9373308815600825 0.08100928996453145
Ni 3.527013415282592 4.391195897609041 9.22331867461839 0.7000118891258074 0.025702289862110574 -0.4772317137376555
Ni 7.231093965824372 6.284633918466263 11.486977570205147 1.5523333584230297 -0.40903191683296647 -1.2285520233294518
Ni 8.061511298326675 8.688810719319568 2.4167424159479793 0.3527756654433989 1.6469152448656734 1.512686690565685
Ni 4.95291860001182 0.29753675565706045 1.1712690691097685 -0.5176641107210892 0.6509336435419176 0.5452052535641513
Ni 6.224927029474212 5.833165879132966 0.2353383693340662 -0.9585468535160653 0.1943327186807363 0.9876712816858473
Ni 8.035024373747184 0.1765373967675974 11.08852881214846 0.39912391369063516 -0.40044777470838133 1.2993689461420137
Ni 0.5236587656082871 4.9790511540737805 5.541012829415304 -0.9681524949266294 -0.38362221851061024 1.7235346332926254
Ni 7.336314750260221 6.445763466860124 2.5928463903133663 0.04175214423612164 -1.5367961820193792 -0.6021387335264018
P 8.639971192865104 1.4426878089825106 3.4438826350818035 -0.19407252304081413 1.2876637418899437 0.4984890804545351
P 1.9505552791442466 3.6134071301717157 1.447040205851662 -0.4622650651254942 -1.0717463550598962 0.1256654952213255
P 4.663534183542656 1.3367037649704432 8.239825090893685 -0.009627238677118904 -2.174977153881319 -0.7941206925867743
P 8.695371117105637 1.8453980996730825 12.608845571886519 0.9340907773562299 0.626202973564457 -1.6720796599464427
P 6.708006736255896 7.944532681847649 1.0527993705300585 -2.366378043627241 -0.6899347073954635 0.025263916773111333
P 1.8497595829657605 3.2269706240169476 6.120804793642705 0.13937744549077932 -0.45727583944101896 -2.0837790963092435
P 7.035381489488987 3.790846808795486 5.697194820199034 -1.9142408109643676 0.9640395011995204 -0.9409425101707407
P 2.414744311414521 8.450682817962893 10.306686591176003 -0.3374071534071286 0.5275276337787302 -0.1709631907168604
