# total energy = -340893.4707918886 ev
CRYSTAL
PRIMVEC
9.05940919896008 0.00000000000000 0.00000000000000

0.00000000000000 9.05940919896008 0.00000000000000

0.00000000000000 0.00000000000000 13.25936110179620

PRIMCOORD
 96 1
Ni 6.387236683049554 1.9086453538337076 11.495653529021165 -0.7078660950629035 0.5246042894843481 -0.8200798356546973
Ni 4.741196418766294 0.4299495872103253 5.975702156574359 -0.18561076542670615 -0.8988898039750648 0.7712049643308654
Ni 2.7582820297052586 1.4303719729168574 4.787146647306979 0.11285214550674112 -0.03889693417551366 0.29982148184387075
Ni 3.411112103810711 4.322543008675383 4.879816248214988 -0.24870152323960393 0.21228210407030537 -0.6098289030818078
Ni 5.01113057022195 4.517438075136167 2.5529305933421345 -0.28078297715518097 0.2176806493780574 0.2521581143296367
Ni 7.500230379421037 6.35990444600627 2.7273713260951533 -0.6853584008786907 -1.0762871803530432 -0.7459654730377863
Ni 5.039060728261211 4.493503116479105 11.41636286336855 0.9410965192501018 0.5561265284623454 -0.2723726416042987
Ni 5.797686581018131 8.190974080316726 12.299170565403172 -0.5713050359749968 -0.6628219103390715 1.6512331555147368
Ni 1.7541008951922104 6.483973052671098 0.23821987826459667 0.057865761968532596 0.1874125945221353 0.7943960577353479
Ni 2.604407967331976 1.555953500889683 0.5677051490375645 -0.12253929088751798 0.07264857670466197 -0.8359782520525088
Ni 0.6115445352742764 9.03556466535861 4.795021991576693 0.3823667488369544 -0.24378146023016728 0.09829584495912104
Ni 8.440216541548034 2.2410531899597292 1.5208754691258117 0.5469176082695677 -0.13597227646397228 0.2307608796007832
Ni 6.931444442886201 0.5721188931169441 4.832413796406807 -0.7979115270877741 0.036574970910556365 -0.5064836686242374
Ni 0.7929610129803379 7.475099578772023 2.4528494899067423 -0.4990881474911146 -0.08274452748808331 0.2874179659731953
Ni 7.6732560324835815 3.660898129583813 3.77675619384482 -0.27364328078660616 0.44862073486918225 -0.0589016594322147
Ni 7.6114980411265805 3.8893401876824116 12.471065604218783 0.5356893436539161 -0.5780271851901787 0.5284948827880059
Ni 8.1540932261559 8.859141733909842 6.7929432916958 -1.3356806360888547 0.2981222397645769 0.5917653607118777
Ni 6.751597054824123 0.9310626442325204 0.3421738790602813 -0.014714937612671432 -0.7130774640605139 0.9759722480813643
Ni 1.8319393375773294 6.547044658337438 9.28872622693626 1.2860179787564048 1.1283553618031923 -1.4188180281399823
Ni 0.04379680701427122 4.555224870199986 1.2410910222319174 -0.33395724718531516 2.0322950694973385 1.575381755602061
Ni 6.4993378103858515 2.086526850136292 6.927936639709816 0.5804116262619552 0.24268514184219495 0.09432194791303755
Ni 3.381877390871142 4.543257390871455 0.4457754688447019 0.344939971449064 0.12318000979531041 0.12878347202501692
Ni 6.005808384662607 5.736354381885537 4.587314202924884 -0.6988908881474867 0.32857361427589865 0.6006202399993463
Ni 5.451055472715127 2.9528781356680556 9.18913523752939 -0.6411271989744571 -0.046242318796991325 0.1876337093940059
P 0.14380181141381143 5.499441776343958 12.248626310543413 -0.06044432132898622 0.44244777328925095 0.9656605817427112
P 4.2272199068625085 6.216167862337474 12.603261406724357 -0.5114664665508095 0.5277086394412848 -0.2629210092730956
P 2.301769349278289 8.525293451748063 1.35612739809391 0.5054940510174584 -0.13010090528485982 0.24822406938255318
P 6.348870085807821 7.715019908111537 5.878166747076377 -0.018797335212161176 -0.4934448331624083 -0.43976996934677165
P 4.617218406191766 1.2802666247000238 12.721004734004492 -0.031126546201475425 -0.8012017678032718 -1.0320559784488095
P 4.078029558957697 6.311074231334973 8.215128276672313 -0.6200960893357709 -1.3184730139613163 0.029932011672742
P 4.779517718962879 0.9675811220321495 3.783279874287269 -0.48770998756116 0.27257498742309183 -0.3813349651383304
P 0.18832971273679763 5.5247628245825995 3.6159607429726743 0.18287228344962053 -0.31146960760576037 0.17316688323639853
Ni 1.4305984581426054 1.0683036316268597 2.7133029698125823 -0.286821470039777 -0.071860790696044 -0.43085261225248384
Ni 1.7226647458583695 6.641063205250004 4.6422876028593745 0.05778811465306177 -0.5243368947555743 2.018162743861015
Ni 6.086545837937302 5.34865697244988 9.047325590161257 -0.9585951902554974 0.6886936358995107 0.9026377010532712
Ni 8.541944645545065 2.3165724236331875 10.380010861449334 1.6195275968813398 0.08983717266880656 -0.3047816540626235
Ni 2.2580486412998693 5.087936239977658 7.038215013949291 0.6482671524533481 0.6001600125334761 0.007268508636955224
Ni 0.3250461603483044 -0.014351009844304784 9.354359833476265 1.1605131774826596 0.3426995121543195 -0.44420383674840913
Ni 1.5941207911327584 1.0293753510252706 11.693708517351588 -0.5178327750884695 0.35345983599461706 -1.2777133155454512
Ni 4.141898392618671 7.0438898277656365 1.7402245983810738 -0.015759319716785763 -1.5883450006309485 -2.1070367812856037
Ni 5.816756637026124 7.69044173141335 8.02327898352739 -0.3063353717029886 0.7262199149797428 0.31025656113426564
Ni 5.222115147119883 2.7360049429006725 5.013139041203885 -0.7105870935384923 -0.007594781628122404 -1.0839652657235912
Ni 0.8744956942496663 7.5790381785723575 7.082501029051178 0.7782875822092596 -1.1368901387470807 0.3467541418396673
Ni 4.698281998191537 4.629403311337016 6.908922752037808 1.24420824180947 0.37166298926620506 0.2375794451845134
Ni 8.040288929921978 7.018405710164456 9.20658456526193 0.45119595179552613 -0.10445672235419429 -0.6437075581071238
Ni 4.817123325846099 0.18543613749263949 10.330911582329847 -1.0998533977087575 1.5046702480191119 -0.7293000965669634
Ni 8.248311080067124 7.120704556930373 4.925361521172035 -0.2588733215662832 -0.13619030601204932 0.20730959055637846
Ni 7.104778115855765 5.7304204689709355 6.944722818701363 0.7820383075009435 1.3919078340126996 0.017581460527189074
Ni 2.245329231021854 5.478233699804903 2.581478603077235 -0.40768054501139467 -1.2766761325301885 -0.8091431341375355
Ni 2.3952171534219695 5.310661810978373 11.418059690679854 -0.0452213337316447 -0.24261289384336282 0.7965113043061379
Ni 1.1271988497304046 3.434983646604564 3.838558576306068 -0.07839576360108433 -0.26980359532554177 -1.2737355618446258
Ni 3.495337429561927 2.4968274851016123 2.6481730664146426 1.13858835238511 0.4764344146473408 0.7791118778827679
Ni 1.372636359169143 3.2419095213587945 8.325738225282285 -0.8781754542458489 0.319558812371798 0.6759198811736101
Ni 3.6110894987372832 2.571612906643646 7.157880747825575 0.011000464875561701 -0.04714451889628655 0.033120179592736505
Ni 3.9844096260424484 7.009409716997739 5.967295930935491 0.7984206055137087 -0.5562100893150873 -0.11550372419697526
Ni 0.9068740221226196 7.398130839653778 11.370472426927462 -0.3731429162458413 0.5493673553616409 -0.0684713053985208
P 0.29873220087998315 5.595598343787586 7.9069942211010735 -0.6171897143222532 0.14769444999690692 -0.32247932845270266
P 8.520365133235783 1.6635883395742261 7.8326354977243495 1.3179492802473625 0.2979432909845514 1.221873839978328
P 1.6062513398238283 3.276679533215648 10.647942883509376 0.5225458642934226 -0.7209401546380422 -1.5370208964356757
P 3.9040979649921597 6.156620366783775 3.736103001763933 1.17007922390454 -0.3093949844649188 0.9472823363458395
P 7.059263644889419 3.8451846280705553 10.350495306829837 -1.308384519377063 1.1257732028983127 0.3730606409446801
P 6.487044192332243 7.969797668260129 10.322279777406134 0.7912755098284953 -0.9766070534518857 -0.851244691293276
P 2.4696945550569858 8.532006473839237 5.957325145357156 -0.17640338789582521 0.7430387863092944 -0.8219942790685907
P 6.9741595564623005 4.026843897938619 1.6015984273460588 0.0010477245382240021 -0.46781119175470404 0.5891772882697273
Ni 5.311187256702109 3.115947498206712 0.35960689985656674 -0.030738823844753516 0.02038961939994553 -0.30184339736990595
Ni 1.5626574635718276 1.2207463073734142 7.096767786391505 -0.6912801656797642 -1.066575352381918 -0.1534534639678712
Ni 7.006039616838608 0.7631945127307121 9.053624597259766 -0.5757517588924407 -0.3948003466146168 0.7465205742103079
Ni 2.8697761766365506 1.6130640154143323 9.472049710243123 0.07083209232121349 -0.01644606137116522 -0.34610519540175877
Ni 6.111531688041836 2.1455579593752856 2.4137608577653236 0.06949537578766096 -0.5450466164991 1.1811110562386689
Ni 4.003298493869843 6.969774802491817 10.428712432512405 0.6775083087066525 -0.6691005442589316 0.13483559175636778
Ni 8.148422036103167 6.933075136511589 0.44938926710673915 -0.011884667252727918 -0.07682379112827414 -0.5042534937421379
Ni 7.929193396988003 3.8387886852954276 8.313817854880709 0.11319050268276634 -0.6120675626043395 -0.6856695043612061
Ni 3.320989102781013 8.360765524355587 12.63517679879588 -0.2669393864038693 -0.29818754578487355 -0.7238961519425726
Ni 9.450503717747251 5.06452672704433 10.061229282445224 -1.7961485001046098 -1.6693002974290927 0.6249205073076076
Ni 8.627021555745095 2.2528304216986323 5.672659488877938 0.3123628088439911 0.24296873452088477 0.07665924052595184
Ni 3.396136900684244 2.9027524255054784 11.660228565340596 0.6083731444718878 -0.8928855067625138 0.679890435785584
Ni 1.0410529292648443 3.2965105795821548 12.884373057041135 0.29327159654049495 -0.2267982954086094 -1.9108089024646837
Ni 3.141485972262072 8.401895241351449 8.147678258621811 1.146391907589929 0.2107921497883402 -0.5375240828698097
Ni 5.648659302475859 8.106051180070205 3.3183808989212977 -0.32973883822859346 -0.6215269082450263 2.078981417810284
Ni 3.078840158820138 8.16027174311431 3.5560807671075767 0.18710740457689068 1.780106873260715 0.34023742376707206
Ni 3.423106761366332 4.400164025243783 9.416838047851146 0.19711079564650572 0.031535094493803754 -0.7824849081200588
Ni 7.029594080316413 6.096891683049477 11.512731420983476 0.648382852095606 0.16711244951220253 -1.0178971704499244
Ni 0.4531878773129868 8.802121813475493 0.21342971139510888 0.14803460694514506 0.692559289502504 0.6097448280084338
Ni 4.415483485913387 0.3545445020906444 1.478975702362407 1.0416914446560446 0.03006442348554822 0.5066515616606693
Ni 6.105480002809847 5.5242283194498345 0.42301732742062637 -1.0058065578339774 1.5285748225508515 -0.2202378685822723
Ni 8.057900421076154 9.075172401637444 11.469890381621864 0.005726360960815945 -1.473840664232765 -0.7253737649293637
Ni 0.18269113655657207 4.650022526289125 5.847444479174094 -0.9318521178336985 0.6677556001952629 -0.2491285834746935
Ni 7.861483373898341 8.785017649226994 2.5004639318862245 0.7373779884790913 0.5289479111650245 -0.18016439760015424
P 8.490849578616286 1.4255976643580865 3.6189566895388707 0.4884478941684491 1.495266952427341 -0.3807515818310346
P 1.9486245258827681 3.3964539800002918 1.5691131984465525 -1.0267852169681735 0.12402693117663802 1.021819388322466
P 5.04879053355935 1.1108466164313895 8.150171407986846 -2.0381013917664705 -1.1480145307950165 0.5875819187581494
P 8.618333582485397 1.6579715059756726 12.590333630038653 -0.13193127362537924 0.6384013154028617 0.7495171949447865
P 6.307106210179865 7.887882491811544 1.357917537318223 -0.04930861642714089 -0.5692486676666003 -2.0694302837867395
P 1.7522708945681658 3.106136158227303 5.881335728355045 0.8619944736106123 0.09560595683178374 0.9248450903882459
P 6.691542232364748 3.9962412142355306 5.869653620410955 1.0332646540449302 -0.0478716268702982 -0.32396208364581625
P 2.4436759323230404 8.579532133610225 10.195016823117355 -0.5574840709315043 0.6617165930900346 1.1064796447760232
