# total energy = -340887.96583029133 ev
CRYSTAL
PRIMVEC
9.14364379321363 0.00000000000000 0.00000000000000

0.00000000000000 9.14364379321363 0.00000000000000

0.00000000000000 0.00000000000000 13.38264694505213

PRIMCOORD
 96 1
Ni 6.684204914758502 1.9708118813416464 11.378635859274853 -1.3246614021602152 0.2590754102747603 0.30156803222133227
Ni 5.069537966715504 0.6759786275956106 5.674710958367989 -0.12992504182862785 -1.3341991664473216 1.2747328927608885
Ni 2.801786246891866 1.597138582519674 4.6972023830088485 0.3550104683111886 0.6847930152935238 0.9384655093851579
Ni 4.029439319535673 4.666486139762888 5.268681046568766 -0.8090109794350454 0.1696113046746563 -0.9194182629457199
Ni 3.6692254646627536 3.3242449206723896 2.846274646711239 1.1759084289918071 -0.5739926101094889 0.8622893791432117
Ni 5.8513103839709855 4.351012134918988 2.4782521198733116 -1.898220010056079 1.2532531256205577 1.3689080306834167
Ni 5.74087345189445 3.080191919011949 0.1732464513529173 -0.5599176200736615 -0.5119570330339828 0.16871964609832232
Ni 5.747978063272449 8.430878651043672 12.615607219505941 -0.025426667603220727 -1.1541602386814382 -0.3547896105496341
Ni 2.1594086822201546 7.198708618270224 13.436847261667465 -0.04271193704622967 -1.4394184779991532 -0.7917048840564301
Ni 1.0170200897563193 0.36566895287564005 13.154406499455863 -1.0180100418787048 0.32054842997857697 0.9134646164654462
Ni 8.136992789653382 0.1756347711623552 6.693732591793091 0.03231850962704756 -0.906610055437458 -0.26089960796769257
Ni 8.832193185638733 2.383729700156373 0.8424752409572298 0.34506081329764443 1.531285279503479 2.6496205380665074
Ni 7.223917644742738 0.6465708398042085 4.364482551240825 0.25562061895694044 -0.13621164616828801 -0.25050129545250405
Ni 1.0312384561563037 7.480716886121236 2.1312535736549894 0.33173787093649315 0.05831750479397053 0.8146856612223196
Ni 8.114115392397588 4.139821389748286 3.8089421735148714 -0.14693546034369534 -0.783011212937174 -0.6342039894920626
Ni 7.948661154450501 3.9944191630649715 12.261810373983188 -0.2942290753577578 0.5575550333787559 0.8373769321722482
Ni 8.32348655241485 7.700630667655659 8.906445975365008 1.3055802171590485 -0.557151370182434 -0.48439814957910776
Ni 7.034433910397478 0.9448310204779412 0.33373751934379065 0.02781830776384887 -0.5950399176980914 0.4160764823845738
Ni 1.944999374365983 6.92158305630834 9.221326557714143 0.20292457411480536 -0.4439876069725451 -0.45545678395440914
Ni 0.529784561343011 5.403692436225107 0.9043164483353746 -0.8462014724424136 -0.11470925332013793 1.7209141649506428
Ni 6.718959905553578 2.190177044236841 7.182761188792275 -0.47432096784876376 -0.10764540449482107 -0.3657965031830991
Ni 3.7684980074310053 4.558691720798633 0.5448999192181329 0.6605647388737784 -0.05729780528020454 -0.12288304738018191
Ni 6.372790687844888 5.738331518866029 4.589445452984941 -0.7648396842344699 -0.49049449228483266 0.5690576347017168
Ni 5.1073103600263305 2.9250151369063944 9.358766499213466 1.440075651967178 -1.9009667195632811 -0.4040789437030654
P 9.552547746232676 6.281372535261578 12.278766347392919 -1.2249779328249484 -0.9574669901883253 -0.21981363656066016
P 4.2778081211580385 6.318696890017036 12.897352150410123 -0.499112830081463 2.0317929330499394 -1.762425139710236
P 2.58933367885094 8.963925664561291 1.1128646803937967 0.5398936115432508 0.7109246793835692 1.1840053470673286
P 6.5798393622894205 8.050859663294634 5.601387162870808 -0.23966281007610338 -0.7594941036518404 0.5729016910381552
P 4.772497548149654 1.282908113258023 12.547984486034736 1.4994910178110177 0.1734975271029399 -0.23564571849691032
P 4.48865140785723 6.241743982221364 7.8676987587664735 0.9168605295208726 0.4850856625644356 1.2989639973941114
P 4.982207022994441 1.25168256904198 3.6658953495226414 -0.9990658966760341 0.3435150660770794 -1.3258536226961037
P 0.4662554372848423 5.839853398055114 3.5252971933901645 -1.2350689985123635 -0.6431516856036537 0.20078927293935742
Ni 0.6992062264161125 0.12939719224824484 4.565784445439448 0.16545228820096022 -0.9594133152814186 0.188251802593979
Ni 2.100194443759512 6.723842611442704 4.757437052138455 -0.025542367245478592 0.8480819772945782 1.2135475795008197
Ni 6.3593221002518465 5.7645646334651 9.084715944724453 0.0326344982055696 1.1130812092529412 1.0454550254635349
Ni 8.667991626917885 2.8321797195050804 10.110777269655243 0.8087304720801491 -0.34243211742554575 -0.06226697636002179
Ni 2.708420498139299 5.519450969102151 7.089390868217714 -1.8640261377831897 -0.30532904192566124 0.042847434182829436
Ni 0.5947071767448181 0.6969340308853111 9.3764311050322 0.01724207490989934 -1.0146539809222783 -0.8182808347727456
Ni 1.865879422945362 1.4891338597437147 11.187665368417285 -1.0294118559577432 1.014093480433118 1.3632778289808327
Ni 4.007110540919106 7.030310126959282 1.5915445011283489 0.38511474389573674 0.3107406998595358 0.09672978602358179
Ni 5.8758793553644 8.125078621538155 7.909024372130698 0.6792412322373592 0.009364214823719358 -0.22753260247147267
Ni 5.694652331539517 2.9712545445493017 4.938210551221577 -1.0001097645595165 -0.6694615271427761 -1.2852193941145091
Ni 0.8816182665017273 7.826950109337836 6.98583544260589 0.2937482790665973 0.2003357303417066 -0.4697857989825716
Ni 5.575108330051801 4.389982345592129 7.322248392180316 0.1601586439021887 0.6014422216800093 -0.5480509505430626
Ni 1.1241378790655272 8.02186516821145 11.274880187859711 -0.7279361263399012 0.2437315808288383 -0.5884419527655995
Ni 4.830861427719493 0.2699624312623682 10.23983980453356 1.0259285253948331 0.5618819428888839 -0.6480277827490324
Ni 8.28524783326068 7.170025007082604 4.495860256776682 0.7274807839700375 1.3959696627868992 0.45048966975712096
Ni 7.587880393650379 6.321513132365071 6.847766418400253 -0.3076242657177412 0.43438350822387767 -0.018491631046284283
Ni 2.405052677934356 5.547869414614146 2.840172178714229 1.452440087069802 -0.49914265487813386 -2.7756179627059554
Ni 2.378819563335285 5.7322601392585755 11.28871817866983 0.4590709836682287 0.030889233379688737 0.5375356528340356
Ni 1.4642357171667644 3.7875533615001804 3.9627355222851732 -0.6181934729964192 -1.3139740976496983 0.17262772290347692
Ni 1.8883087816457877 1.5424870224086085 2.3886151491386953 -0.7898300356312205 0.9385171885586998 -0.44715520606724923
Ni 1.455933288426452 3.365217589378712 8.055564068126012 -1.185641854229487 1.3539202990253327 1.2406254095542182
Ni 4.049893651134878 2.7191094179602517 6.837168020654773 -1.0272305320357085 -0.2560538498396171 0.17928173788488477
Ni 4.46798677244632 7.091618259892979 5.856366819095868 -0.051623123492930446 0.7904077625115613 -0.6878891377203444
Ni 8.36739433084104 7.830470412272881 0.2200344776350528 -0.17221763194925177 -0.8409983309749195 -0.5561537821558551
P 0.494533985043834 5.935230748484849 7.922259796802067 -0.8731283787402447 -0.770960195309911 0.23377626938833931
P 8.826240673403113 1.9195068949298695 7.723232841227441 0.04219925907586925 -0.0008883161422242766 2.275874698129345
P 1.9474864455304821 3.7837038873815994 10.324297815313868 -0.3903641652201342 -0.23910925156547852 -0.7062203319293643
P 4.403697811572822 5.956617731770742 3.464968344727491 0.5298421408445197 -0.7148085878190077 0.8940725850920795
P 6.787893837572537 3.9743397208692373 10.337519524519255 0.43550450920219835 0.7059431670085777 -0.6153575462095209
P 6.709441372162977 7.968219408938968 10.176178097637578 -1.6439448493834399 -0.009051054458674733 0.8837364932733941
P 2.519787122684842 8.667808754038141 5.720907390884157 0.7525945483185296 0.31075921180229704 -0.08487160113341512
P 7.391090887759405 4.196438833316584 1.1369014917071596 1.8937671164910481 -0.4648166279027543 -0.276152420361705
Ni 2.972918687754959 2.1084145797039398 0.049983729855636844 -0.38835613365116994 -0.5098582415234252 1.0557312105785626
Ni 1.825272499998525 1.1996369474672457 7.1426397933411545 -0.5208983013876706 -0.8058639491656315 -1.5645543259692538
Ni 7.3205568180426965 0.8282093276085121 9.248506953830281 -1.2158741707514673 0.33855772207180407 -0.9391440235094213
Ni 2.8242796111002018 1.7740040881626966 9.17221238840168 2.140779424953687 -0.08081954255122854 -0.48711811961343193
Ni 6.564222018359405 2.203919941149495 2.540869622625964 1.1503056408220382 -0.6998655933559301 -0.5992608977579744
Ni 4.361627905588044 6.889022540070177 10.68731511143324 0.8259051840872228 0.6244237701768472 -0.12905755162201
Ni 7.148345427189122 6.298718027905161 11.56857586145507 0.603410915370606 0.6663340372573879 -0.3568606341460499
Ni 8.045254609530526 4.189974277017685 8.096341062851009 0.36636523120237546 -0.3809421005752858 -0.2580379701491814
Ni 3.2913369459627146 8.848487159223797 12.049535192635615 0.6318290615019828 -0.19170582258085048 1.3434605371445896
Ni 0.08365337010943938 5.331997123722035 10.136832997560964 0.12022838336615423 0.051628008588936895 0.0939527374990769
Ni -0.02129371811722438 2.370535421882947 5.585943548176548 -0.07798387287464635 0.8602026718175122 1.1020974565479278
Ni 3.6696643595741354 3.1238711063384605 11.41321712083417 0.39855261456819746 -0.43408885980159434 0.18272907300353694
Ni 1.2555228995165737 4.071426932724566 12.578443792884658 0.6117603157765658 -1.6575213025162936 -0.579081594596622
Ni 3.464892452482397 8.380076565051189 7.90868971476077 -0.5143144775225659 0.10092582638280038 -0.3829951264495727
Ni 5.550438778574529 7.800552409146997 3.51360064400183 0.40583217894874624 0.9274501321112607 0.2703702664622892
Ni 3.2030002014030687 8.87550662720576 3.2811170950783017 -0.21482698197934616 -1.2007488850742547 0.8158948510390722
Ni 3.8704496378874857 4.730436785808863 9.497624619895191 -1.119297108255666 1.3948928847829525 -0.47468169362229223
Ni 5.322954059818764 4.696614446700476 11.85789538703819 0.11013860323031999 0.01011626249839548 -1.070668548614685
Ni 8.839636111844255 0.11518248330585518 2.194619940850187 -1.3260287148213872 1.4845349107218175 0.1538743535553737
Ni 4.760555949102464 0.3058558057338403 1.6077241791635726 0.9759851035971706 0.523346248707531 -1.0844383487052678
Ni 6.193822144084825 5.8562845262999845 0.42305629126765465 -0.14566636382328463 0.9131509418797693 -0.34951833484836575
Ni 8.120598235984462 9.244406943866453 11.348966563265417 0.6327418031242393 -0.4210564520976684 0.9504944155252338
Ni 0.2521112951062976 4.960344570221217 5.876387741970084 0.4457835225307033 -0.03966183736599621 0.05718724784426925
Ni 7.5083398346063515 6.204127030858318 2.3469685938705225 1.3896282939499036 0.1180087500070161 0.2584845707682968
P 9.078120634316537 1.8972604091091863 3.5551274175337717 -0.5049016688490982 0.076741515827113 -1.952365385750231
P 2.1081311267403393 3.732929232321076 1.4689190916169714 -2.0880538124251977 -1.1498137887872844 -0.25026475396166575
P 4.822092673135838 1.0419365196212438 7.960707905403543 0.49302060114079604 0.4017983751990048 1.0681825489680379
P 9.08157693174367 2.090575330285053 12.261207807844439 -0.15006757821477382 -1.1739921858057007 -2.488170429046405
P 6.866318872050138 8.242226988301242 1.7997251586984886 -0.13439001957851693 0.566438966131947 -1.0466572733017523
P 2.0926692247581054 3.4091710860248376 6.056142639113039 0.9416251380600621 0.13518526178630266 -1.3898365533059678
P 7.182469506549085 4.012898467562958 5.8282098818019055 1.943557557650614 1.6360204523300403 1.3253054635021175
P 2.7265706314537486 8.801598552857802 9.997439973705992 -0.4976827825031558 0.3414424998187668 -0.7823380981295495
