# total energy = -340853.11211661383 ev
CRYSTAL
PRIMVEC
9.35649985871505 0.00000000000000 0.00000000000000
0.00000000000000 9.35649985871505 0.00000000000000
0.00000000000000 0.00000000000000 13.69418331272490
PRIMCOORD
 96 1
Ni 4.928292947055354 4.296383026935373 9.550775251023548 0.31167992384435356 -0.8325674265987468 -0.15905409798410025
Ni 0.9467467784660336 3.2651564126939365 7.441911912737471 -0.4497489349363545 0.06555078931761614 -0.1562305124923761
Ni 2.017195839442488 4.096668540876456 11.030062180214383 1.0071281048588785 -0.6610481062681003 1.6986581817659197
Ni 2.470733449315238 1.1001465910186656 4.477299369450556 0.04489531785079365 -0.134180217560556 0.8399107543376955
Ni 7.846678767933149 1.5167073140839737 2.298144391531487 -0.451177696963081 -0.8837778880342908 -0.06503039803777187
Ni 2.1870069524658313 6.760379796467877 10.556448328939123 -1.0730105664843004 0.08593115274618104 -0.8400182264498373
Ni 5.795518834586053 8.964219091890842 10.299340138081238 1.6825767028230247 -3.1633279781326937 -1.4823335321951243
Ni 5.966265597579221 6.643938157723291 2.5117869630412017 -0.7492397729136838 -0.7454707927895549 -1.057381601697792
Ni 4.088238334648342 4.748470379354894 11.766959512148368 2.5692234277646784 -2.331214351241914 -3.095612062842959
Ni 3.575090465198111 0.14646945322614618 9.886049511660463 -0.4735673775121908 -1.254245314330498 0.3062744365580661
Ni 0.959668104549302 9.0685908460247 6.57512484504262 0.569567741568916 1.6668652056250388 1.49381325069995
Ni 1.3447067801312425 8.074631170081352 4.493048229742632 1.0342437301287477 -0.7769709202803652 -0.6023385082420336
Ni 8.304398733171011 3.7009447426391264 3.039451441773252 -0.9188407931756949 1.4588429052723522 0.5578854201349811
Ni 8.180294121173567 2.4670563449338294 12.307715605258196 -1.8340797279327448 0.47203088626300643 2.0377478650817937
Ni 5.541293381285195 6.709340090613982 4.962690246895992 -0.37022831370220755 -0.845086385001364 -0.8664211419233983
Ni 1.1824650753637742 9.006248488535332 9.123625777249742 1.2021151692941618 1.4936065340057825 0.5606796950506666
Ni 5.607705816143297 2.285708667782557 0.8672567639797026 0.1671312185652799 -0.6983792386183908 0.2584372624701291
Ni 8.383133678131696 8.145291455802454 4.439791033460255 -0.8766834430813546 0.7174457683315386 0.6462812323715708
Ni 9.28608268151027 4.290460362626387 12.033352157656818 1.277145101746807 1.785057275287455 0.20340562751628194
Ni 0.1397571003426294 1.7344049925629057 5.157188484373139 1.847566963785902 0.21169229300510636 -1.7618643821107591
Ni 5.939094322455533 4.325369463000517 6.76689846980764 1.015505016068664 2.5410356524765527 -0.3003228469603215
Ni 7.812462048536688 8.035913974330038 2.1800999843885913 0.20250368452730286 0.7345315201692317 0.6556148510676708
Ni 0.21658144806493196 8.55852126497519 0.8720772326242354 0.2712989489241457 -0.40537272281382447 -0.37830774827623237
Ni 5.709485819860743 6.405366128417587 12.997984820946005 -0.08808727985723538 -2.05400392192934 -0.06150130183859086
P 6.665785584518679 0.051165082949851344 3.7077684378690523 -0.2012852387391695 0.5138331670107732 -0.0992299267376162
P 7.9801585926282295 6.368314389612559 0.920553257560813 -0.13420901391596243 -0.9681108430554166 -0.42053580370750804
P 8.1487627171905 3.6227992571594325 5.720868001743652 2.9998104450606013 4.827592770020409 2.3104709480469756
P 4.566626807719616 1.678874166853856 8.62711657121289 -0.43081224593285156 1.6703055987651556 0.5672730319974681
P 5.736647738484732 7.128642268090875 8.670184539323884 0.4698030253737522 1.8102677131148113 1.043275501313713
P 0.09247683606748697 7.2240972780123105 6.1746937918071065 0.22724078226266672 -1.7790398654487811 0.7383434377161542
P 5.9040261615865335 3.7093468793681454 12.22718046975557 -1.5099631209869349 -1.0370477752364462 2.2007799738770353
P 7.787395985845105 8.697764693484384 6.697304825052138 0.1264417112657177 1.2695585476488007 1.0425494217809659
Ni 6.632336098097474 8.414178544130452 13.529962646038943 1.8015925539383169 -0.02712308146903716 -0.29573805580311646
Ni 5.749297726076751 8.924753376163668 5.818644359240221 0.42788375943214696 -0.6120711621487652 -2.089774651771046
Ni 6.849191691603565 6.541933598013086 6.774950673447945 0.6440597992402197 2.2645993823258417 -0.9550547812024068
Ni 7.245055837336367 4.453721925860963 10.89394195130446 0.4699390367309842 0.4101940554618678 0.24289237275699457
Ni 7.119033142900784 2.269362862809733 4.91774536494553 -3.8611127777001957 -3.0470742631435717 -4.138955184169814
Ni 7.599311628911101 5.909630704905778 4.046124729506568 -0.5785324069613713 -0.232767882728483 -0.21342238832233568
Ni 4.124223432487771 4.072051590170389 0.2034131103896301 0.6945482949080748 0.8147288557554291 1.115356635550679
Ni 3.70304995507123 2.258443827661888 2.768155990422926 0.5865861305037833 -3.225702683715174 -2.295295782968434
Ni 2.1548580195026816 8.428203937178113 2.2390122490885846 -1.7537625789392313 -0.21616909782953736 -1.269854995843297
Ni 8.736014064250787 6.212977781622391 10.687953932197875 -0.41021668116968707 1.926094110758528 0.8285966148764569
Ni 3.5927368236289903 1.4329572852850347 13.125052636397882 -0.9725778776878347 1.2219831118626827 -3.070310607963693
Ni 5.761058846197439 9.162174556006487 1.7644543269937707 1.4724545825185158 1.0123032213019145 -1.2900962625908363
Ni 3.178552651487035 4.457174474249613 2.6352815312583213 1.3641823430729731 0.1923992491034493 0.7865850463313614
Ni 8.929731034003131 5.314388907103195 7.223640680827037 0.4626815838376225 -0.39671813246262 -0.6905214331368689
Ni 9.250715112650926 7.3535631643368475 8.69194495067208 -1.1393224023376571 -1.8753127664406024 -1.1480770086018357
Ni 0.520299042169596 6.726275355067795 2.434223451842738 -0.7822113427436981 -1.013177910597384 0.53909605534262
Ni 3.715073057183468 6.826034354850423 3.37061819904264 -0.7789357573162198 -0.6490089157153791 -0.7026644962573061
Ni 5.411013479486913 0.6942953175079619 12.131443829193218 1.1345486350980976 0.573049015249297 1.346237328558778
Ni 3.4753314654154845 3.7303896471894857 7.209480554183722 -0.04019842659575658 -1.6292113998280071 0.5232074091368215
Ni 4.0429435196091665 9.146904748498962 2.9236535302079036 0.1764681796954896 0.7825658978696394 3.820700692431736
Ni 6.430329269612489 1.6287139719715955 10.095269265762822 0.2125888366774468 2.8504092967852324 -0.157532004912619
Ni 4.544058930447462 7.128941676081219 10.702565977776615 0.0016781590333713036 -1.0316942242340166 0.12146842642084243
Ni 4.320373092161658 5.808458873668717 7.89162926378343 -1.0945965201851922 1.2947540730778218 0.3790397413462504
Ni 5.481308861719784 2.3287579228941557 6.683295338053964 -0.8498462682838526 -4.007643289295988 -0.1735108968393786
P 4.032342605451062 6.0735378666195325 1.3694865339320592 -0.005264076612416741 0.2946499649452603 -1.5630237482573404
P 4.009512746187357 5.251251247139478 5.7155544455650205 1.054862434820364 -0.30698920323690354 -1.4372757206245375
P 7.391354066618035 1.0643486231732022 0.17677141314886374 -0.01718628197129943 -0.09941401772396427 0.14647780398098645
P 1.2264780499442915 4.527918968468 3.3814773525924164 -0.6340908609529661 -0.6150544131468052 -2.1372081626626613
P 6.039760902708889 3.644206928469004 2.7340711976722103 0.4547412459446233 -0.3211081591367889 -0.361531557259158
P 4.810260703362067 1.1620211235231215 4.717563989551671 -0.7895986363467048 0.5271926190368147 -0.010828458074071675
P 2.658462259260709 8.492342742609543 11.885592443122283 -0.1677020034670854 -0.5755874654004345 -0.10016580828832426
P 2.3057409336364874 1.6180194928165081 6.890967527106232 -1.0028616162730408 0.3857814309454582 -1.1266265520375436
Ni 3.516977245572347 7.686822970588731 5.4339200620481405 0.3841958316258932 1.8965248817418434 0.5355499898625745
Ni 0.3267897867105521 5.480710045739095 4.905804600030636 -0.5042856325316541 0.16301333974216442 1.1143436209051325
Ni 4.309575691509889 3.32943556562084 4.385055510225555 2.3950903239602686 2.1692299669848962 3.7231034162015364
Ni 8.107032728536353 0.12980459161361232 8.880239828849295 -0.6606408435273526 -0.35948238803961313 -0.40035624343583953
Ni 1.68177468176031 5.143857343603088 1.083942069191285 1.21386433941029 -0.2924660699200641 1.429108611432713
Ni 0.13438553386587027 3.5023811060430936 0.605622834217779 -1.541472761559442 3.801397107007118 0.996878144996096
Ni 8.241906671686472 1.8103142746147205 6.876356417177462 -1.0798854392272628 -1.323869245276223 3.9330920962519746
Ni 2.0705278877224513 3.6872655400803005 5.276012287940898 0.040678708666284785 -0.1979482039461365 -0.7878585137271464
Ni 1.4724136445125096 0.8481685689453249 11.311600191784372 0.3047842251657848 0.2134038763795744 1.1294159418572225
Ni 7.138307532279156 5.517864706040804 8.676757480361898 0.629252301913742 -0.3306551793952757 2.1269402050777497
Ni 3.832132224908139 2.2875986807216013 10.895708458447487 1.5907345839090474 0.894111151639499 0.8954057020812063
Ni 4.089183341117865 8.061270088512266 13.484812856745089 0.48536925524312535 2.2254052286248833 1.2650218361207117
Ni 0.3696210353791818 4.472715620248389 9.615014171001748 -1.9913499945435449 -0.11104208888119585 -1.7653202018698435
Ni 0.9673123648027634 6.204725348888545 13.112303469909062 -2.1307179269526273 0.35198865076572927 -1.309386735389332
Ni 3.1207388398516143 6.2314662250261135 12.694138107145506 -1.4006791524474265 1.8306817579947892 2.087360900123231
Ni 2.3695429050787804 2.7432227900270583 1.0691962256668601 -0.3900129525283025 -0.11006249857674592 -1.0935927615110264
Ni 0.7575012799194774 2.3839706276134653 2.716392091492388 0.9879371337527244 0.2920847753212453 0.6931208184329288
Ni 0.1946208076231947 1.7940339651397843 9.647593502951018 -0.042910940430913196 2.2469793552512334 -2.0324205393316093
Ni 2.4193381964728093 2.175489101337299 9.150138354794674 -0.09873087561401062 0.24344438860572265 -1.340154098479176
Ni 7.061434530758422 4.14686616175751 0.6426998355719916 0.12657155197536268 1.122024791599474 -0.19299317393370632
Ni 0.36430092965076294 1.4618875823519901 0.3709421731365731 -0.6512938550948139 -3.4612926092734844 -0.24679967823120078
Ni 5.6584086880080555 0.08561665048873798 7.886055596913189 0.6738280316415879 -1.1200884938087097 2.041458995384794
Ni 2.3153126328277858 6.184842787029786 6.527277576885765 -2.206565470210561 -0.351584216238459 0.9430055633473565
Ni 9.346918642548221 8.007404719749502 12.323710541492336 -0.9235999051272351 1.8087075677165432 -1.3861066539498903
P 2.4175323920310494 4.4479396090474514 8.988724700250499 0.611222955215857 0.5739586715477599 -0.9512408067729554
P 0.5233361619716445 0.3994954032656898 3.311089341012533 0.11063276925791914 -1.3396640462166347 0.04909932862981222
P 3.2593460263813303 0.6730092806944676 1.1501056211574139 -0.38254672605824436 -1.5549540838753286 3.208035605452714
P 8.33586464165619 1.001837848689266 11.022694872351991 0.0032293055705750833 -3.8556090742731475 -0.756232145071117
P 1.5317993480972336 2.7713671411193617 12.77695997117438 0.5618243501780712 -0.10356789199133777 -1.4525953817007433
P 2.9059510327788347 7.89997339021432 8.511934317327686 -0.2102002818406122 -1.3007563134078437 -0.2871551992301119
P 7.04247826236979 7.565422387004078 11.583594573662156 0.352841742794644 -0.4793752424432196 -0.6129715624758475
P 7.040129780945532 3.4657971922229787 9.076682346963738 0.19709228370374443 -0.9637181133043597 -1.9931654504857288
