# total energy = -340862.00910632795 ev
CRYSTAL
PRIMVEC
9.36300969830157 0.00000000000000 0.00000000000000
0.00000000000000 9.36300969830157 0.00000000000000
0.00000000000000 0.00000000000000 13.70371112099182
PRIMCOORD
 96 1
Ni 3.7450634093580097 4.2028677655227655 3.7702882936190485 0.12059785089043101 -1.4686274954629417 -0.37712452660140855
Ni 3.715635470071256 3.1949865932279473 5.857802189954208 -0.07837030967978761 1.2204057400732338 0.7132294162573458
Ni 8.202361598736406 7.58756766000054 9.037803286259328 0.21602408761124084 -1.1836351082121035 -0.8997727208006504
Ni 2.5765878957821218 8.327610578640607 5.335032591428288 0.9036810547161211 1.7325450643213518 0.20236304518438053
Ni 0.6345030740201864 7.373716519908444 4.886825320140695 -1.8394278796185353 -0.20217072666791636 -0.2755106730126481
Ni 8.774085693145494 4.79778403480086 12.624831264869856 0.01800594965911738 -0.4997520063273587 0.057390622104326966
Ni 3.414418087063252 9.050022950135606 8.940260388169772 -0.16131306922160604 1.170185667575417 -0.7950897413682629
Ni 4.040157384063902 1.0069261453119203 6.485020842477388 0.24812816723463718 -1.348736440831548 1.704601543833548
Ni 2.705909784878095 5.351755862939606 1.8747769543897792 -0.7641814818251806 -1.230985572471609 0.6499540532374677
Ni 0.5822078562988036 6.783884364862837 11.698159220354144 1.0383855202112633 -0.35927490001449736 0.07785274661342075
Ni 4.631983860162032 1.5391851541041872 13.401777549690266 0.0514688573032533 -0.9214589475248323 -0.935264485949357
Ni 2.7954482460296153 3.079503232374361 8.192338496920794 0.8454586807391181 -1.5378480203226612 0.477214744456791
Ni 0.6561428618915021 3.9317992735435072 1.9653041493588876 0.6117538880186625 -0.24403548522250232 -0.7932570590348984
Ni 4.3782088469809395 6.89852505484916 8.77939171070636 2.4630021573108936 2.1109068057639706 -1.909269325891705
Ni 6.101320962379747 2.7141398703483643 7.048819149229384 -0.8332680522101973 -1.2273371770857442 -2.0422894617058893
Ni 0.12079312361830724 5.053197574668299 3.69693192202187 -0.08837447208035103 -0.05235768766610983 3.039910655515597
Ni 0.5124440714990574 6.865192740544088 2.3344136515403506 -0.10071833835768461 0.3924665562751176 -0.7125385608379083
Ni 7.335140920207068 5.1691303599844245 5.0332356381237995 2.329854751890226 0.26547540026383315 0.6003546450427854
Ni 2.5720468361085373 5.910474736963932 4.296387378371622 -1.838323333700447 1.3652426660166874 0.7179419912416668
Ni 2.173004728420927 7.0941932302276465 9.394428151391805 -1.977400474341988 -1.6865945657331662 0.05134493013087932
Ni 8.099331040699042 5.42575172809494 10.302477169741005 -0.5329572894347337 0.01112799159236148 0.07557706320536661
Ni 5.757595515623138 8.420706983453906 2.842821329585218 -0.4045985636519613 1.2723381672764669 -2.3646026968943725
Ni 5.5850071589980255 4.580346862018079 7.97036588227021 -1.21135262873203 2.3430439968869905 1.4212608332535202
Ni 6.543563996529044 1.823708290930746 1.2796631256083597 2.6242972288103705 0.6151024927759213 -0.9565521916835398
P 3.8040410070567887 7.5941124037362835 3.780908755449454 -0.09308190485834937 -0.44045439700830596 -1.956950176907436
P 1.1007528648768456 2.6842812326183427 11.79234454318814 -2.4196620997623617 -0.23433085634022868 1.6006754971718433
P 0.6131750743697579 8.747916081212157 10.650880376111887 0.017104006670138283 0.21954187095651223 -0.675117954097605
P 2.7126511518161993 0.2753464510820641 0.9719234700877395 2.1259233337774615 0.9718769949660682 1.500665497735093
P 7.733068829747964 6.108820733098388 2.816591794390209 0.023250228777192215 -0.1335531254995184 -0.18840555456302388
P 6.164015674904119 6.8422627299448955 10.494123932480719 -0.16688053600705452 -0.1465636788265734 -0.21221834071190546
P 2.977867762772798 5.942852024286107 12.05870344132036 -1.1297640692252608 0.9867549405191651 -1.880490196876484
P 5.3585065928873465 8.726793131472764 7.340365479584099 -1.7186148273935045 0.8047295784508721 0.3483304851878517
Ni 4.135257472939359 5.30759990949502 10.100950559233114 -0.5162566888506013 -1.4538665351036832 1.386672296645373
Ni 4.679210880767309 1.1556013753260355 2.096201832976643 -0.9400292543278521 -1.569281556241594 -0.5486135079147519
Ni 2.74764071882689 7.5882605227136235 1.6610812402576454 0.8321424232461863 1.0417310396447284 0.41605668489023184
Ni 8.490779747571647 3.5429815723786886 5.947533529104235 0.8587839370931145 -3.086511643203588 -0.6164633776791899
Ni 8.143065658709995 7.3154692369612935 13.480504543614801 3.012535605936754 -1.6092169589839513 0.41816524659280246
Ni 1.6194448727061768 1.5501492383882434 9.971546275652342 -0.23395187573425513 -1.2531032303062548 -0.313836308065724
Ni 4.17554650340417 6.628533308978072 6.087010538451692 1.5784346834957719 -0.30473280310255907 -0.688776168310988
Ni 4.536696511093851 3.5743663806794195 0.6024974981805712 1.0326229066958732 -0.10833780257615536 1.043055671993423
Ni 9.103055036715363 2.3150790366414813 0.5707803030377527 -0.34890538385471526 -0.20754536071626836 -0.8834657561105107
Ni 7.445689974982347 9.14592825783978 7.31113509980067 0.2774436283693028 -1.2189078153714685 0.1964399948317262
Ni 5.991483496336823 9.057522720854248 9.535233771806649 0.15025321186301865 -0.49986102110139724 -0.5750624461348999
Ni 8.20330726270967 0.6726798095110582 5.313051990006213 -0.0748862077859291 0.243968893650625 -0.6321980148056274
Ni 0.8087337025354997 5.07045360142792 6.395549794995249 0.6958073641261565 2.1861845925613634 0.779915861841302
Ni 0.4742364380763859 3.2301353314024537 8.088985851351943 -0.8516056741771205 -0.4224875281172401 0.3658096158092216
Ni 2.398597082596888 0.19755294921826436 3.3073633074842235 1.8986144172810209 -0.05099603143189282 -2.024849411852571
Ni 5.8600549300726925 3.331733348965472 3.6125037915298193 2.072924927203559 0.07295839463559692 -0.739902554673158
Ni 4.4863516082797 1.5802044993206263 4.248122936298647 -1.8202538777932458 0.005746929786106231 1.2529345659388744
Ni 1.4880818475094997 8.63496073296036 13.321309035973389 -1.6509487915050989 -1.7589631493035645 0.05072375160711264
Ni 4.043134821128231 5.98501365667817 0.1265878902821863 1.221722144891812 0.44566756577812916 0.24695497286214246
Ni 4.815405218936295 1.7483079743299734 8.817762260496703 0.9486943862020177 -0.8362322770448437 -0.45465922775377826
Ni 4.090399293772054 4.017658071907978 12.12307038736577 -2.007476724902078 -0.6303691891270047 0.5933669008710426
Ni 8.235525378868026 8.633247302196926 1.7053448683130474 -0.7943906584187093 0.49560507403852067 0.33896704169508074
Ni 6.175616443843442 1.674592999463727 11.173964571761585 1.0226285144873226 1.1158068357142203 -0.17874386310354376
Ni 8.90514910203381 0.7676403895429341 12.306480510528468 0.5501050048586139 0.19074191600568444 -0.24673128688711055
P 0.8736099963051202 5.604753746320889 0.44798817686210474 -0.3077831598931086 -0.08968573469260684 -0.3589018329457948
P 5.466424641954838 4.684706967423791 5.741183096031745 -1.6136305146706142 -0.5722236911345243 0.22620437057835238
P 6.485981487266067 1.071437281705727 4.048062573099794 0.5820429912177911 -0.8231427908507373 -0.6506356526855246
P 1.8730888037523623 1.1162299198055774 7.39693397490347 0.8594177140223715 1.2308143370010673 0.44926273932855526
P 0.4838410133612577 8.954286176604883 3.0767982588904466 -1.737110057984215 0.1314751599245671 1.2906986720615254
P 0.48776692330173993 5.3043977601994206 9.080243000037587 0.43063072604966474 0.4266234046624846 -0.5806535670694323
P 4.049932366124154 3.083445059431225 10.157793390734826 -0.7511665576227514 1.1288976074599075 0.20219078127257434
P 8.247388312077163 7.138667525999864 6.199312348630879 0.2667033591336633 -0.027342653679010974 0.6912225729689514
Ni 8.157868576944917 5.119188066584632 7.534560853546802 -0.8834238471289818 0.8647782070033365 1.472725062571083
Ni 2.061154215306208 1.2617966306204553 5.198776457395703 -0.40731673391407275 2.0471485895704036 1.3137887211117696
Ni 8.590654971361596 0.6614310897340597 9.276288504704414 -0.282050788124011 0.8130900346004255 0.5325333145234377
Ni 5.352673437883959 8.977337906329348 11.847982355349664 1.0171410090101902 -1.803384869952049 0.5924683003161733
Ni 5.8186236124322575 6.328177322856602 4.0639178936178295 -3.234388384414629 0.019237508073373318 -1.457333667716677
Ni 4.965213373116397 8.577790196121379 0.47718110460698854 -0.28465711539860655 0.06454960174661141 -0.06425289644179903
Ni 6.122209836878235 6.65534896857631 1.3251308367029844 0.1778617176089066 -0.30672926470729756 1.653740238207307
Ni 6.181833482241916 6.748192572129427 12.813106407839555 -1.8615900175378715 -0.6177702694160716 -2.8987866596473557
Ni 6.130571004483412 4.247716581680434 11.289596804468388 1.5072860883754042 1.0087913514939142 -1.886544887710996
Ni 8.46076193867781 2.8553340556631106 10.710738096716472 0.3305590201370436 0.33848675962455255 0.18259897518357585
Ni 7.553289681722205 7.836717346421323 4.110276963229826 2.1273222710075173 1.0567884481984833 1.1150732999823052
Ni 2.7429311249798527 8.352731533494683 11.313592325564185 0.07861250759758073 -0.023424035350895142 0.4021899542104686
Ni 1.866403614872075 3.954673106084882 10.416998949504947 0.5760595199408465 2.1038460422624476 -0.9841892366745179
Ni 2.1781731097401402 3.569741053919109 0.3631405835383494 -0.8076999739331058 0.7359985916330616 -3.2268098007364237
Ni 0.8990595927974286 8.723590982177162 8.050272615408913 0.07337285646519622 -0.4992367572538369 -0.12407449658512182
Ni 2.8626372031793905 2.452284579851182 2.129680210232041 -0.9297348143803794 -0.3038953948029282 1.0310391071485212
Ni 7.506474633540924 4.733001371127602 0.9661249582200059 0.14777518263617131 -0.9023499946095235 0.4579450975939016
Ni 2.224257843169794 1.4181308025170283 12.973124924027996 0.3387806367158875 0.2925414032426898 -0.5512059512322764
Ni 7.841417577258723 8.251639118452024 11.174499199611816 -0.4303936703381942 0.0466773494518809 1.1428617829494832
Ni 3.049410519403433 5.200196825957523 7.549429312849177 -0.4678633851488781 0.34028524628587203 0.36193856288958953
Ni 3.9063974284003433 1.122390780146234 11.059950267119929 -1.204912786643957 0.42029849088572124 -0.37278424735484184
Ni 6.364112553840554 6.8432364829470655 7.284824106421826 0.33611723095111146 -0.30546299640036423 -0.40750082490042083
Ni 0.17542722114682688 1.9179469829196665 3.905201772069794 0.7930392865971375 0.8064455327007144 -0.8145434792175005
Ni 5.202977639819492 8.61335090671988 4.943147568306632 0.5502135054120202 1.33948638298819 3.3173661109594414
P 2.400235609283233 7.252605990263468 7.074554317515599 -1.4011067269031483 -1.0716653653103156 2.3406449005271948
P 5.002927575931238 4.891788651548874 2.132722252062861 0.1876113407965027 1.0931818992258528 0.4861606407961692
P 7.01292230658494 3.2435899762497544 9.105855512897566 -0.23635148631468328 0.27132106041133275 0.6335481010756185
P 6.622363085627778 3.361133199223317 13.069106072110221 0.21465728917070126 -1.0899505367727487 1.1081284932333562
P 7.942641074436291 1.8646340060508226 7.32534627582658 2.640618077457581 -0.49491704683256055 0.055893468733510185
P 8.22896190911301 2.9468106598093353 2.5079710796628167 -1.5034430604802302 -0.5750711878856484 -0.25656627069966137
P 1.5939119454281057 3.853824129292764 4.9950027245751105 1.110939737429906 -2.00398131015431 -1.4317087680597216
P 7.203141210355125 9.14070369846275 13.4758455100198 -1.194793438821768 1.577445065888993 -0.4437060711763842
