# total energy = -340865.4746880399 ev
CRYSTAL
PRIMVEC
9.29303966727134 0.00000000000000 0.00000000000000

0.00000000000000 9.29303966727134 0.00000000000000

0.00000000000000 0.00000000000000 13.60130290789667

PRIMCOORD
 96 1
Ni 8.09432122394781 5.051445473772352 7.27113447347965 -1.0253050328782212 -0.9607227781214615 -0.6903949348613335
Ni 2.077524078238113 6.66395513800886 3.041700180652261 -0.3165897024411451 -3.05443353172212 3.6363999040657045
Ni 3.246755748352504 6.6604888341973805 5.866201578616453 -3.1269106158459246 -2.3386479247018235 0.9365130136444775
Ni 1.4955010012597447 8.989463980883214 6.356065580800083 0.4750547606909948 -0.49152113377713413 1.1306878665911106
Ni 6.922171539364774 8.387869762277566 1.3591525933444597 -0.2854664986737793 -1.1655941915499926 1.3402512861786724
Ni 6.289222604780763 3.8857172796282766 11.464334275177446 -0.63722195038278 -0.10115825410858063 -1.779159421745781
Ni 8.032262304770713 8.509385549513222 7.375972971653429 -1.1058684935545857 -0.1872534432364517 -0.23576861722801976
Ni 5.245679296731396 3.5826154964776067 1.6665812157836675 1.083388567284515 1.3607987713127208 1.1559528118054865
Ni 4.485183392140548 8.038618743931709 2.6984032128479987 0.8224491072178222 2.478738337099228 0.6675236866901149
Ni 3.914888131275013 1.8012234216083693 3.1247632281797726 0.7865395378054068 -1.0575628644706625 -0.5798282429546594
Ni 7.25040170188874 -0.04548106564010587 12.647307563109623 -0.22148279673296695 0.8361695421277083 0.32001878272735207
Ni 3.904563564158248 6.22198746248572 1.6151275135225494 -1.2090967428183177 -1.9237199540993968 -1.009910295589706
Ni 6.644328238143327 2.5094831499945953 3.5644122902955018 -0.007047650875400766 -1.4936988366092727 1.2952150718746402
Ni 2.2377174967428726 3.6380670644215622 3.4006113137756855 -0.5286360363515605 0.42057385603429503 -0.2765213736653496
Ni 0.6321701778563923 6.3172782916624115 6.192564769462868 0.6122668230993391 0.6490323127541466 0.7391317379454045
Ni 8.977977783802816 2.1863362801914854 12.944074281090629 -0.1688577143380834 -2.042101256954483 -0.8512405775282177
Ni 5.092827379596792 7.892327712831701 5.467206777315944 -0.8057127682997479 0.7365143549272155 1.2545235076925492
Ni 3.063413367932478 7.122613112849468 12.55234291962672 -0.8603199141216666 -0.028714337215557 -0.3578548797385192
Ni 6.71708344602555 6.923175187653352 9.219996416945841 1.5041714540058222 -2.2823037415841405 -2.208993877146396
Ni 6.964612851716047 7.819182197281698 4.383346545792795 -0.2875434358074661 2.149546115402724 -1.498110078303091
Ni 1.393073117586496 9.004239914020616 13.23662474695563 -1.5877107094810592 1.4242895927775148 1.3416309401350184
Ni 5.067568897667569 6.1838395344800325 11.41985778712989 0.5172918149833349 -1.2115742578245328 0.38758531692341636
Ni 7.237921149559473 4.0950522921145405 0.016405002998401932 -0.24014514902916062 0.9605199180820361 -0.08597049062454871
Ni 3.050533214895722 3.907611681182819 7.534359823238747 -0.6429781361402669 0.30542057319820304 0.010535095203368953
P 2.8499429527756823 0.3731703732530041 1.5185858412010185 1.3082263965326437 -0.3207116950293186 -0.5129422797653876
P 4.615397464543884 7.152889836221584 9.640943236647088 -0.37401014934214294 1.0842928242663392 -1.5975487786174034
P 1.6984424024261764 7.921647253113783 8.790304846878369 0.23328107491947567 0.8271441987006464 0.00578369656131262
P 2.987452061350629 5.212874866558416 11.298167290747704 -1.2828449803450614 0.38481315349491796 -0.24900157097852596
P 1.0918392354173472 4.7989349987978 8.214833362894888 0.1683758896056584 0.06852504145459165 -1.026267911012123
P 2.873240603326294 4.3805623510959615 5.34982732205479 1.106554720988333 1.5965864147041342 0.23457279714770568
P 7.578213677625797 4.772347612190182 9.580118433143355 -0.8997089574422505 -1.31831206290342 -2.1630163819750168
P 6.136733116194812 2.3398572961851407 12.812794297032664 -1.1458810293917814 -1.8435321315948958 -0.9278954471787955
Ni 8.77695074881645 6.172269700042255 1.4888258108367278 -0.5778024707738822 -0.08255709406762556 0.9454712512790296
Ni 6.998801944805675 1.932097299831048 1.0626423632594255 0.32697670210242397 -0.8987843887454521 1.124217942596051
Ni 6.189805665973249 8.583358145597334 10.457688051988928 -0.1635355307942216 1.2424552636741053 2.5226034139132945
Ni 2.891724459307612 8.449696355461937 4.477998013837504 1.124278363520341 1.2121257594526287 -0.5159800381504468
Ni 8.91611401845961 8.44809795263198 2.997999661420411 0.24172946279714497 0.3279300671546288 -0.9879859847127889
Ni 5.2160345000594965 4.985186100646761 8.63437879220801 0.5190054552403319 -0.8229959808602277 1.5745201789327143
Ni 7.207904631299212 4.340825313300025 2.4509816064181265 1.8601468573334417 1.4018050385217535 0.06641519420044045
Ni 3.913466296199527 4.7048429717435765 13.233142644976649 0.7288406404320416 0.9600301229298112 -0.4092358053136565
Ni 7.5326313178528626 5.795539163276709 11.26021916309576 1.5382761089990153 1.9201054972752611 2.708127018942833
Ni 8.637620204458528 7.198230576962082 13.07634676178952 0.8409512797870679 0.25718847766469255 -0.10694297911115774
Ni 1.5483876902439997 5.870552579808234 0.19898442485831408 0.8157200160241047 -0.5720064329173955 0.4171455470790364
Ni 8.80479269578479 1.9789806851632508 2.7851658194836864 0.2577698040894593 -0.43735313237516293 0.04149863346441886
Ni 1.6515961892528095 2.1963170048390146 1.3639254985390323 1.2963826098201803 -0.6043398549427786 -0.6378711539310047
Ni 6.818832937800037 2.9000138507280924 8.404626042176972 -1.9341012973337208 0.3083295193148819 -0.4775749560096872
Ni 3.9498392536207843 2.3212433376478954 0.4268739204276854 -0.3432314733983895 -2.6025061010772084 -2.5578378116355562
Ni 8.467901420251984 0.1104384839024577 5.309676743991801 0.9929613264401932 1.2656448144166912 -0.8526197172639316
Ni 6.181042329527606 0.7156198158358008 5.849811444481585 0.27594107568184734 0.24583757142824758 -0.6975495436282438
Ni 2.3872703847807597 2.3359356334279173 5.8228402553339835 -0.14423785890687416 -1.491418010994896 -1.2476092970712191
Ni 3.8237141186894346 7.824116801367209 7.6080926588983635 0.5032703038932623 3.1231375219567377 1.179785138338394
Ni 2.6344001897637668 0.8568489282062838 8.317197124594143 1.5534183639570924 0.46487422061356715 -1.4129553987116181
Ni 8.506030762178252 6.2934416448086745 4.099691377537303 2.2294683429506637 -0.6126892553487384 -0.15425179149945048
Ni 1.796437506158204 3.5299611334860783 12.638670612004024 0.27393998609141856 -0.1307742772028006 0.7997010148880292
Ni 9.069486345817921 6.7770514312681085 8.407346114899813 0.8290007922934111 0.556297506822571 0.564061467038706
Ni 8.994788892636505 3.302383884050931 8.869015034606157 1.2305135179311968 -0.9817628866212125 -0.8923142076400762
P 5.9640126801622415 6.162344733632979 2.7173907515815476 0.4727307405435085 0.7950205786932243 -1.5083880631903313
P 4.091827607335497 2.6491110716232074 9.019295567653263 1.676922332750725 -0.6817107768237742 0.6880493174472925
P 6.76340924897521 3.603264630711136 5.894668947157213 -0.5852674116923597 -1.0279003044092232 -0.05815475396386113
P 6.781428452971075 6.735650939364249 6.530244094763005 0.11020185236808762 1.1382193990814655 0.4340173831337106
P 7.882142541310573 1.0184056356363627 8.438125591720187 0.6626362766908265 0.8800539022154844 0.7405828685696342
P 0.8437383077847433 7.869652695941597 4.641988568367386 -0.1348816145029548 -0.12913108517242278 0.18582853786446707
P 0.07349772175497708 2.2224490325008888 4.9074451769606275 0.5403692656280887 -2.8766013817995684 0.13418073178118828
P 8.621115765935238 0.31330182353533303 1.14718579201259 0.8929508127828105 0.5814583223589147 -1.1169954567056828
Ni 0.7669843049157119 0.8930146508420289 9.601866933974465 -1.553135542609351 0.5708016139760169 0.7753359557801034
Ni 1.670349543385691 1.0714410132559624 3.3445333949553393 -0.49230686290322306 -0.9670554052077088 1.6265184263768762
Ni 0.9197256348777773 5.693399363834442 10.166946940955276 1.3163906775109908 0.5905379160626797 1.1118558214862724
Ni 1.6745778764533126 7.820771307071947 1.471143944182301 -0.546880327273729 2.1201193255011743 -1.601411089786287
Ni 5.710647245534456 0.33513210311588365 8.409780891303585 -0.41251087652050245 0.7318848265750041 -0.4261639485275628
Ni 9.344987801032685 3.5577937874147096 1.0548901095341285 -0.929753840543773 2.6177414299697244 2.3102948274804276
Ni 0.16613817600664488 3.6303073762644975 10.995688141257542 -1.6796266190557652 -0.019277874393005507 1.8844746354455286
Ni 5.878767626911043 6.14969690658895 0.449997791135737 1.2570655573881124 0.007973248013463687 -0.5629885456895014
Ni 4.284044840677674 6.050205623463764 4.055595904117817 -0.7210440272057582 -0.7744296419157503 -0.9634406912732568
Ni 6.4991430787686975 5.525074535584256 4.691103212533733 0.5927917450938629 -1.710913087873873 0.21852834209033334
Ni 3.4414170511381634 0.3381030879108698 12.35209092415209 -0.1055152455256957 0.7288146722901125 1.348844170054006
Ni 7.605758247323449 1.7485783516565498 10.628847257350378 0.25572963373097896 -0.46372879415521423 -0.15086564863603694
Ni 3.0513324163107014 5.975322309488166 8.591752548366525 -1.4037822168527825 -0.10403197611194985 0.9987802471148153
Ni 4.8435973476395375 3.617687428339596 4.349425092246788 -1.0416605914181092 0.5721475864809501 0.42886309262628075
Ni 1.3061274380685397 8.448311692545287 11.130096162481575 -0.28823866210227783 -1.1367700682294488 -1.8201893431038976
Ni 0.2544852459127274 4.208111413214953 5.2098564872609145 0.5562630540402097 0.9883791063861496 0.007674228715806137
Ni 5.016689505260471 0.15283518966312687 0.5182412282392121 -0.21636038790473708 0.6850436978517492 0.76754731297362
Ni 4.86154220731773 2.540122301915363 6.77755604332431 0.3081366865777855 0.5092422052059811 0.5455698359924217
Ni 2.1416832243894564 3.0660061260113056 9.77501206192174 -1.4568423299025555 0.007614836232780434 -0.5867357687077701
Ni 3.545359700283989 9.120319273026473 10.24942545628509 0.07795353385734316 -1.658073575475338 -2.477088460200631
Ni 5.048638975780216 5.023343321692157 6.388001111760263 -0.7871388619523023 0.46600113512915875 0.27657099595636236
Ni 0.515259091796575 1.717418789512075 7.175068604791223 -1.3291600613615173 -0.026858257843424712 -0.080206591557578
Ni 5.116756956847619 1.391781385066937 10.83621214541832 1.114334622044068 0.9641004363444429 -0.08865009433924088
Ni 3.8413058428586835 3.2490232500415144 11.3173992364256 0.7643483464203481 -0.25693162445888007 0.03532567188448755
P 1.5489824447853797 1.4279127234557585 11.766827364227174 -0.26165242697331714 0.7904023631949226 -0.8788727374231895
P 3.9746144974851356 0.647491612424718 6.364974817969157 -0.8081817986655306 -1.8544562347065674 -0.05605236290887766
P 8.409336684005494 8.069601738321714 11.151408819750332 -0.926780873958378 0.16510364661228985 -0.7807985215565714
P 5.971149734658798 0.5051417594653225 3.3860444740317353 -0.2857164099010563 -1.123850017733671 0.07815767944834928
P 5.026410024796147 7.786182613274829 12.819024350853617 1.483316207823368 1.1244614260654247 0.4730369589300177
P 3.1952816014040253 3.949987942256129 1.4269127923830638 -2.1461481454647684 1.131084587808897 1.3615731875849002
P 0.40479923390278655 4.9875744118519885 3.017503893161784 0.8839182702668971 -1.4490667997221947 -0.4749781418167884
P 9.183158807539131 4.882711751774967 13.04178594711153 -0.9874187993554091 0.5846056097386448 -2.1983484816174075
