# total energy = -340867.30198852194 ev
CRYSTAL
PRIMVEC
9.26400128182974 0.00000000000000 0.00000000000000
0.00000000000000 9.26400128182974 0.00000000000000
0.00000000000000 0.00000000000000 13.55880229555846
PRIMCOORD
 96 1
Ni 0.41259081742496445 0.4483341129067154 12.96498066989736 -2.0010175995402957 0.02511967788576319 0.4453970857255619
Ni -0.3019128697666625 6.293740017937954 11.217644615780964 1.6942083735246825 -1.5092403838882975 0.08925867445751724
Ni 7.531845974252799 8.037169442786366 1.0415006927631614 0.4507994876880559 0.4135951107236167 0.45996135669298205
Ni 5.131821206749699 4.6132224246258575 2.371881658531788 0.1936827438015632 0.2514898846180185 0.9036846542605468
Ni 3.862245438665031 8.997170085786497 9.023288084115217 -1.1102373120462428 -0.7057354218731459 0.020660356562828934
Ni 0.6553085729005423 2.1910844864737835 11.398396394233531 -0.8351644979019617 0.8268184399301114 -0.7942394775528256
Ni 6.430365506304556 7.253101444861511 7.620534888876995 0.31982466443867497 -0.5575288081265107 0.541521376954661
Ni 3.503459939685499 7.828581193799221 0.7774887043367106 0.5083783145437889 -0.9983853256692419 -1.0318037532286874
Ni 2.637711243975972 2.252189837793699 12.577104354632986 0.8922658709006439 -0.05195839534516214 0.7620199553974876
Ni 2.3915296784854583 0.828375862432571 1.4054786643647093 0.21051241376439228 -0.0013981658991072694 0.9429279160318857
Ni 5.74961891275675 8.573675539055355 10.413688660273694 0.9635954716835662 -0.4264197732921108 1.0257832580662205
Ni 0.7661180693746027 1.7981889354081488 8.911657797142832 -0.6511251907274334 -0.06895030191746836 0.2964492229375282
Ni 0.17056508283228497 8.994946725520157 1.7827930919638544 1.1167990244241606 0.13881488811908996 1.2473023073537617
Ni 3.1015783075434062 2.1946511269010376 8.245568706150873 0.7509816953054551 -0.492006815164301 -0.2725947849174338
Ni 1.5901379984853687 4.359462906227568 12.125962322989906 -1.1919407998643212 -1.8913492510781746 -0.008389766725592003
Ni 4.10006161115344 7.714448700127093 6.576995189469578 -0.11380602477957819 -0.33813451849145637 0.806440904715024
Ni 1.554323370195073 4.381038764812177 9.63973880436091 -0.35749646795783596 -0.6928580516898455 0.3481196547286262
Ni 7.814814888150131 2.864067847091619 10.249301739781503 -0.8105263876383072 -0.22277426185088084 0.65235803469327
Ni 6.584333204748613 5.798551366618453 4.570007712249093 1.8100098314677344 -0.536720870242224 -0.8944783051709305
Ni 1.6267122748666645 0.6105764171420003 6.888237834753871 -0.35998632425922517 0.23875983864585976 0.1361260284330172
Ni 4.302081683353772 2.7115360688195747 1.148176591942051 -0.2038303737585264 0.3801581712214098 -1.0288585545574345
Ni 5.921216005312661 7.484933072633021 13.300194844453241 -2.4937535795611376 -0.026669538871386327 -0.9476577174073872
Ni 3.2456242607989187 2.5587726905197865 3.3450918407143115 0.674765970074825 0.520083261685543 -0.7097252597588293
Ni 4.3682451792796115 6.251227516845308 4.731642298011578 -1.6252236188248526 -0.6706951424395611 -0.22272849621460997
P 4.989313077678404 0.36288018747004247 3.5298845764509514 -0.017583517409718107 1.8476101583190114 -0.30175649408305455
P 2.2491883014341396 5.499500146794592 6.560833213133508 0.7213641295493383 0.1914559113535735 0.7018036909189075
P 7.758545345409506 8.02443144126046 11.978496100524675 0.29430440868038343 -0.16549651117533434 0.3673754176344447
P 4.742334808092452 4.098690538989197 4.655306002467122 -0.0989620177882102 0.23183662916346526 -1.2317898135404592
P 2.65933342256613 2.3116647249182978 10.26767410678236 -0.7291468588185507 0.570873604864533 1.3100590788660085
P 8.603079478577705 4.053537797580272 12.138124103646787 -0.6036027196664379 -0.5685200170306919 -0.3817633109250006
P 2.1106822208422575 2.939337856108343 0.9506995858859404 -0.39840349058484287 1.8535170107217498 1.2804206871742854
P 8.11063297158669 4.226885786345926 3.4447354366507894 -1.0701023916985701 -0.7887548002891706 -0.9854485630029157
Ni 7.851731932572488 7.881821408176958 3.4255089287476133 -1.3283547918514025 0.623047715764927 -1.092634254252499
Ni -0.23609862668266104 8.593343013411356 5.215908692022683 1.0229100502834836 0.9601473652339659 -0.5902694928926415
Ni 8.662823021734486 8.825980609279414 7.467971613001179 0.3698567892954017 -0.04628422777852029 1.192741955609378
Ni 8.81719833622737 3.7623795067019197 5.411914574702566 0.14749236128842985 0.4427907584509664 -0.6761489664652808
Ni 0.03994081438457893 4.582966197001412 0.5378206580264627 1.6667394786804521 0.6233323368848813 1.0586098176779382
Ni 1.5803459493123624 2.3310728072432254 4.867894447133457 -0.5947321566496854 -2.5273838660210735 1.019909572894263
Ni 3.8508507173000384 4.249712285080352 9.704116200872788 0.4771890334251781 -0.024591830406751194 -0.8874347680605879
Ni 9.092441073199172 1.6885031622687012 3.303154634090581 -0.2977959667734097 -0.17035152527479047 1.9771878441105497
Ni 0.16870765060977996 5.986592061144171 8.588524806434176 -0.32585852933758075 0.7502430173672175 -0.2742724297301728
Ni 3.1966547509327765 9.561653465406932 5.047223275015567 -0.23043126417550636 -0.4651290169368506 -0.7388540588039857
Ni 7.30704572332359 5.584979085034261 1.8220993222724153 -0.024062954486474688 0.2704666828308374 1.7561819870140012
Ni 6.233190506684624 2.2837337615723996 2.7695213045657257 -0.7490605670233423 0.7935622489801429 -1.051083427393906
Ni 1.6458331731571898 8.924670013101588 11.051318739856502 -0.3535061158515202 -0.9282831695355174 -1.3005830210547729
Ni 1.0460354213063843 7.3794531559974 13.613308817961704 -0.8299549286765642 -0.793196381000292 0.07157565535545737
Ni 6.107802251664149 5.966516970739342 11.435480190675863 -0.635998362388324 -0.16927886103590203 -0.2244462502366651
Ni 6.390363549512653 0.11818827335797677 6.548345339637564 -0.8511513602485212 1.1083249255148784 0.19372902365846636
Ni 1.8265645708073153 4.472409607757648 4.73587224091829 0.9774179793889555 2.1598847783245705 1.1439159352456107
Ni 5.493200626039962 5.211695424317969 6.581700375633221 -3.044019792587964 1.4611314441962127 0.922403827936605
Ni 7.882544000263519 7.6025673587246345 9.753686944410953 -1.0902133035158321 0.0049884543535268925 -1.436672282712584
Ni 5.549164456743965 1.5529337700286103 9.883187489524046 0.38243334040883165 0.7755087339125418 -0.5935270805979906
Ni 3.5298345508449587 3.599120015144784 6.393219641054789 -0.11005941325295238 0.8732096256001413 -0.16172573127899245
Ni 5.730914894516164 8.086203800660277 4.770664123486069 0.6744055014116127 0.09993877987918272 -0.5521785995581909
Ni 7.551003928547763 4.906372475742807 7.109585392469476 2.1310843091531106 0.015781945424605075 0.9168736421469951
Ni 3.715772317118764 0.6329767718253774 11.38325160521931 1.0614835396813072 -0.7079797378226323 -0.675195858523392
P 8.810120639379521 3.8710740317226238 8.771853829995473 1.0077721662007804 0.7213049941766287 -1.5633132544733013
P 1.5000363236919343 8.183225684282695 8.987315967806055 -0.8892977894112556 0.8795206554198336 -0.6183371976631351
P 1.9007414276930885 6.291349905651638 11.824861906120569 -1.3610175721917463 1.1645570085347299 0.3938518666584185
P 1.4840373937753948 0.07999094398225291 3.6737711888873763 -0.29839117715524743 0.07499882210439342 -0.21831159809383693
P 7.042521435635769 0.3008197176357119 8.593216096596153 -1.5377750009928806 -1.4976966449147562 2.764001975733582
P 5.583784028891104 0.2617867753598886 12.452308995683536 0.3560602497319416 0.5669323608285979 0.23689038953728883
P 5.373556051707532 6.951206176696957 2.433737393941593 0.49136249671208276 -0.33009313624421865 0.1677354278081821
P 0.8423367121049652 6.351714136882773 2.1162711927117703 0.46154284224748904 0.13375444287704705 -0.4480982867068089
Ni 3.444300028598631 8.07232632699787 3.020819377869155 0.553898153352459 0.8936398684300352 0.6725509647013772
Ni 7.741842351408626 5.9731592595350325 13.212130323503843 -0.10317811275208683 0.279487398272209 -1.0939326613489484
Ni 7.341693087474057 3.390188998116577 0.4821616129589698 -1.5592326566460244 -0.5021238489936449 -0.07284012389017777
Ni 2.790391246265772 6.469320630971057 8.720031934187642 1.0603530256212899 -0.6513087674931494 -0.00983241270938952
Ni 2.1497021935165272 7.297031338123949 4.910157746596251 -0.17643244136154776 -0.42872913815157776 -1.8321827680203475
Ni 5.318685373134478 3.2178044654663376 8.032112224580553 0.2207855135556262 0.463616436947066 0.2415417722663711
Ni 2.484901545670635 5.43826509945914 0.6040323267580725 0.19139420487770265 -0.5609848849959113 -0.25327885819764123
Ni 3.64681109285778 7.1694475148404635 11.410749013313273 1.744456728157273 1.1604329590640272 -0.4556758419437507
Ni 0.9599635869956911 4.180612100802722 2.7326820777526915 -0.11671651355815382 -0.7343492289550966 -1.3173653827194345
Ni 5.1226313176488265 0.3993247678358015 1.1101487937866357 0.5547203921434382 0.06818848405077933 0.4211621244375972
Ni 3.0327930993035075 5.719705453173365 2.9211757819326767 -1.050080182940372 0.07926993867592155 -0.3838083663794874
Ni 0.03787864773754843 2.234078715624136 1.2300258945469198 0.6670452043917996 0.2475509545749285 -2.1688188475894066
Ni 7.101097714652723 5.2619526303383655 9.397999327402522 -0.7635492475578205 -0.4325387417056551 0.020686838925390177
Ni 7.40954263160187 2.1545380020958174 7.797585698886218 1.3937433445595415 1.2823279314993272 -0.34261158042620354
Ni 7.062392718016184 1.0685469440030784 4.415803781776739 0.8569849362111628 -1.1831517408177818 1.5637344011711198
Ni 1.3280223510860842 7.424383561379691 6.913876884225218 -0.8079329158795183 -0.183353079740781 1.6320804938456859
Ni 8.71096803550186 0.2954327009903919 10.489618266169435 -0.21890526581377784 0.42229135294603404 -0.16329693242085425
Ni 4.81600214491719 1.9917972946008276 5.1661480364617685 -0.2694189582926134 -1.867999777718957 0.1801623407176252
Ni 3.9534402655894167 4.642700476157084 12.05251361659136 -0.28397782994339477 -0.1306629484359169 -2.026373047585949
Ni 5.2792207284069415 2.413670641137762 12.32920894893717 -0.38859653179675013 0.45057708726460466 0.9832042470534293
Ni 1.3047233882950613 3.4029362636435945 7.146247676861314 -0.9132357882840917 0.6085808896073197 0.2608651551853314
Ni 7.55333845682742 1.5467917372928457 12.161649108064887 -0.2602581177289518 -0.3163603600391584 1.30196858854839
Ni 6.4248163696398155 3.3528180176398434 5.81417695729027 1.956695380584153 -0.8844206638246123 -0.7171182097887908
Ni -0.2581969749298602 6.089024121414685 4.1869171799580185 1.5853560932059534 -0.5000147730704421 -0.18893931557930685
P 7.4686562226831885 1.018891898054815 1.4933393772896955 0.15325368925223928 -0.09740572904468386 -0.16652649510174547
P 4.707085283869851 4.8551888696114345 0.28605845826743526 1.132913670597836 -0.037685687476231876 2.180233260073935
P 8.3639385539306 6.68806222517449 6.182231089380108 -0.1823349228889118 0.897124998765158 0.8470535360300637
P 2.3677304596345086 9.111691667505234 13.074115234970776 1.7867030384209936 -0.10576130009823077 -0.23171578731488482
P 3.9802039647954865 0.5564755770611676 7.075172407547085 0.5018785657520582 0.7458963103627476 -0.8531573349349565
P 5.016919800985462 6.748417192404515 9.636010043914236 -0.2631210410990436 -1.1569195465941302 -1.6838015763690615
P 8.793315741366435 1.7831534616070235 6.083278587926416 0.36825987712192704 -2.1478095923275915 -0.26084124392593144
P 5.750906608911005 3.6731949680183504 10.616162668528405 0.02287716170848963 0.7029010377481443 -0.32208543544839363
