# total energy = -381174.8046735931 ev
CRYSTAL
PRIMVEC
9.14438006824823 0.00000000000000 0.00000000000000
0.00000000000000 9.14438006824823 0.00000000000000
0.00000000000000 0.00000000000000 13.38372455798390
PRIMCOORD
 96 1
Ni 7.643604415105882 8.809970093369216 2.4535441627321686 1.6183795993198258 -0.19567509164124364 0.35141478054013026
Ni 8.517880305089424 8.577803427705337 0.30020542559424623 1.3598232947733289 0.4372055510537051 -0.15538050578725499
Ni 0.20705711242245778 7.496617649818506 9.3959501983651 -1.175458743048898 -3.2019942843546403 1.281184047702871
Ni 7.583333806047211 0.7079661351647019 11.766180828693587 -0.34890641229597974 -1.0507653819328548 -1.4606084818132072
Ni 4.434228774156863 5.935178174897477 1.043757830249576 -0.05348460218170143 -0.07397038083987906 -1.286994226626745
Ni 6.468386976932248 0.8879778290843636 7.723613168551316 -1.6448861302507864 0.9948480019399447 -1.3310202544987078
Ni 0.3794588532456809 8.991632347891986 3.997758368910394 -1.7011634646862768 -0.37410605149005893 -1.7944186618976967
Ni -0.3227024294489186 2.039608253298669 13.082764896161962 2.0194716924804252 0.4030219631934608 -0.5437664642350957
Ni 2.0205056433269553 6.136235659554286 1.5425947364673631 0.20440475820475765 -0.1129642456045732 0.7999601820866867
Ni 4.108067025726471 7.808477587815313 2.527007368921617 -0.8536389025570652 0.1657111982893017 -0.43980056547439095
Ni 1.7885584427848191 0.01848536431681167 5.93315269471139 0.7716659631276839 -0.31576952053269486 0.24045702384262455
Ni 0.7304741122754613 0.14239171430088202 11.075447277775748 0.04984006345057868 0.5141093034902953 -0.5017620947788519
Ni 5.766711260819505 9.099069669365258 4.070285190580405 -0.8227977488064927 -0.5083796000953696 -1.2300566328994365
Ni 3.191562388567546 0.1797611379056718 10.466299885865869 0.6103554650092392 -0.21313416765795548 0.33342888548567096
Ni 2.50708725137141 3.049120380176264 4.736848316090283 -0.2781134007428178 -1.424111672438754 0.5013288638961753
Ni 5.434944007404592 8.88532892954772 11.714747348537099 -0.6847909584109948 0.4379115759817942 -0.7727609959640757
Ni 8.571594393636024 1.597248867285429 7.312706792235877 0.8012344208134201 -0.6894292285139546 -1.2975007825850235
Ni 2.032813978904709 2.097007527014537 7.268808281259234 0.4212618832402551 -0.06300334030541407 -0.495027861378812
Ni 7.71838715533981 3.770191326423045 7.25530386076798 -0.5076139255739387 0.5558115683250879 -2.1724695569681165
Ni 7.301302835847307 5.506709102214554 11.654466680660347 0.3459905242007654 -0.13905322938214115 -0.1811031073643397
Ni 1.4988553377039828 7.151371580176545 4.39418461938083 -0.2736844184371867 -1.6706228728952583 -0.2931324998594693
Ni 3.707396868464328 0.00026427258409886587 7.777951818256876 -0.1743544757865965 0.024755866788441237 -1.1626644194977074
Ni 4.060351650507513 5.906830596672339 7.274040695536789 1.4204933589598763 0.19558715991312767 0.946533631105273
Ni 7.110313313650458 2.800201210219336 9.291141886162706 -0.15020616067516712 -0.6355070245742023 1.3968867752845298
P 2.482287692614451 7.6517703465107365 9.101575229505158 0.6625254621445751 -1.2962813083556257 1.0125886137528175
Ni -0.22383704985572486 2.3341487354379242 10.760769041840557 1.296808384503689 1.2819106414562504 0.3556717560442713
P 3.8095670270157687 3.6199034399294514 7.022828115057647 -0.5402895614300888 0.9854300510601544 0.19548174468351495
Ni 7.5340364530756885 7.245412384843422 4.470391139592066 1.5707082613857917 0.6027673682493361 0.13569896819792757
P 8.803825069960412 4.236088346743222 12.610908483348457 0.03190430490776441 -0.049524846203005034 -0.21046690523843753
P 1.329181365456424 0.3074340580416564 -0.23215935015982098 0.29085244557604106 1.1428872368707803 0.38189572273780675
P 1.8699251366710374 2.494285119269735 2.519754046648011 -0.27072456447791443 -0.646479721535622 0.6395786235404146
Ni 2.301731908080468 7.529491696179594 12.95124310645341 0.9062598711868908 0.3628546469459557 0.7749016964561622
Ni 5.282223715811681 2.936525628342031 0.5421145137875002 -1.3069166765822848 0.3915047065824806 0.26161386042589785
Ni 0.3921064453241287 3.1029990675641717 8.650877997741699 0.3382119086966111 0.13247300506146217 1.5494544942133381
Ni 2.648249046552524 0.415623961994906 3.2877256038492786 0.2567598747677062 1.4577136767639154 1.058045717644352
Ni 0.6661973503069722 4.860777527024534 10.56728036056986 -0.48952390084144726 -0.6338352932987342 0.92433344085915
Ni 5.462596612744211 4.1972978864751465 10.662198111285702 0.36850336059130084 0.27068574082017893 0.9735497546828008
Ni 1.4074572588780947 8.385122195195052 1.6990907425922623 -0.5068809040626561 0.02133398559108584 0.4222437875375502
Ni 7.4666698050806595 5.059320307161371 3.017454306422771 -0.19204932196319827 1.3817141813091494 -2.062881684034944
Ni 3.500020617177336 3.9119109287885894 2.2334087579298423 1.1129446836750767 0.008223416351056804 0.19092215033729054
Ni 6.686727339926318 7.397090217108055 13.187398550704968 -0.6228744234118564 -0.9534072182966548 -0.30501973821535855
Ni 0.0048968155288907494 1.4196832950351945 1.7752570275311785 1.7317400519215531 -0.9345528045943131 1.8751682704429382
Ni 1.5764911245205702 5.00668525546334 8.297320601051728 -0.31275541629671944 1.1675055496400926 0.259762666149772
Ni 8.187155511002793 5.1677177885422685 8.950405824772563 -1.2408483241983017 0.7152909267720649 1.6624225964726533
Ni 4.574613297031804 2.2267845690052326 11.63551586739784 0.6218274702045806 -0.34969162720143643 -0.5880233771709421
Ni 1.7496399611957267 4.9486184420021715 12.893638998623915 0.20657039839750874 0.5987469342360334 -0.30300193645438134
Ni 4.503808362129468 4.563027367479788 4.9209548634064655 -0.7869473147667866 0.004964285983810805 0.559596746399133
Ni 1.6401268654459682 4.774856931862149 3.5630555723319626 -1.440973995411731 -0.370905028054258 -0.47057487054277025
Ni 8.90525453372597 6.224936146258749 7.151633109446622 -0.09811895306162458 0.44386470824143553 -1.6920339915811826
Ni 1.080152462938624 -0.06023311710037438 8.373058929003246 0.838314356384853 3.5000285923911014 -1.59331854258614
Ni 6.69551508917611 3.89606371812273 4.840009725441596 1.6028118267885556 -0.22033145673734314 0.7034980479021948
Ni 7.211203258991731 1.3897171615372022 5.253085148710261 0.3372014651542257 -0.20284795524059904 0.31489920211259964
Ni 7.001586634586945 1.6744640126186756 2.9042953463380567 -2.1507432210346185 0.6591691440778326 1.143557266354611
Ni 9.281271442312313 7.242650782061489 11.801661023375372 -0.18713851492514222 -1.5856430283187533 0.47536792105603937
Ni 7.615485446382561 3.083274639747519 1.3610979952239073 -0.9865538802519526 0.7957564284179843 -0.8247733844756248
Ni 2.490535923439959 2.828932852407524 0.20188962324341733 0.2273351417486859 -1.047350442714035 0.4942243916409101
P 5.7124485094685475 3.820860336405461 2.98726047786097 -0.9092150971604729 -0.8751888608136992 -1.721782683598525
Ni 8.770329205754386 6.142042340900402 0.5937546569336287 -0.20319325439515976 -0.016426263876823322 0.4272322418910771
P 4.770046987943948 8.227061585639728 0.2920961893458423 -0.20167887463316234 -1.0545153358935904 1.8135821222000248
Ni 1.9551507589479036 7.11860726637633 7.12772969993678 -0.7087446410131149 0.9891087854633224 0.6751840314488501
P 5.526003744167793 0.6502596102783939 9.564986807321596 -0.39370814199170256 0.22200935866039828 1.3780102500950009
P 3.8011907748692444 0.5420578186310498 5.347561225868595 0.8342558700447632 -0.2350134842295501 0.26687690859705004
P 0.5510878939527671 3.6627997268501358 6.450914809927483 0.6676848948583274 0.1323922724221978 -1.0288742382867184
Ni 3.6063423242817483 0.6618162778141774 13.005687830967812 -1.7053021694449986 0.29882980735456277 0.20052907729943528
Ni 5.70953145222538 4.250984541881529 8.436712044250783 -1.2930442894755667 1.1493378775921304 -2.1695004470374637
Ni 5.397150284564433 6.6737240314630455 4.099769415248571 -0.9558063146564507 -0.6745335423490447 1.7774900044631583
Ni 4.730022036366068 7.72820821953781 9.371685585842387 0.6972577234194379 -0.9406517184031993 -0.05089395863638978
Ni 6.900330914042768 2.9617641173424762 12.101871935597662 0.1074749403552278 0.7890419925122862 0.0015190077476877064
Ni 8.703428921143061 3.1310814587672033 3.568769895439346 1.2641435472808165 -0.8148975201228096 0.10926751347927632
Ni 7.158979704396969 7.950224623321076 8.067387907439592 0.1588728352112296 -2.418788438908157 1.0179509065059953
Ni 4.580273668296758 6.330508014197206 11.433649105104603 1.3396578755690476 -0.06262024593438248 0.8908178256002077
Ni 0.504642673125897 1.6317231801592256 5.131667898981959 -0.4463879888839215 2.7391437790393214 1.3246971404941572
Ni 2.266928397524057 5.156598222373956 6.1010782614890635 -0.9863294229459723 -1.6411837416985349 -2.2251848850839613
Ni 2.3601187748441794 6.318739197043738 11.092457653586845 -0.2766746114137622 0.5993076918355098 -2.6018810658987
Ni 6.551609979973208 4.908602634804363 0.6455923186893259 0.04463280821802636 1.6587582602471884 -0.6186547289035539
Ni 5.677023181067197 8.377980434358333 6.222348286698196 -0.1336045475627441 -0.5291042342372307 0.12663737221629157
Ni 3.45503026722002 4.5335275973655 9.460044987170143 0.3232519449526691 0.666801978032742 -0.5579083029531166
Ni 3.973379451636775 2.1748262014325768 8.744202797448889 0.5924071080609347 0.29233622921041913 1.0504668768558296
Ni 8.05832948453965 0.6901400806511264 9.35286828052894 0.35990919116438663 -1.763063030404551 1.0027857687297828
Ni 5.673036231355533 2.7603500018628355 6.462090156814238 -0.8060174440243604 -0.5328683292653532 0.5788913329626869
Ni 4.713333542733527 0.9892207474964398 1.8296487146411602 -0.35929366906757476 -0.6858448535968059 0.3710621224574126
Ni 3.452113209976853 7.506237537654908 5.41177580605259 2.065082805451321 -0.3261012414760061 -0.3593764585893682
Ni 8.593943258533521 8.551010394092545 6.325241765713382 -0.14352000690424316 0.014059563416859657 -0.43618199488519716
Ni 6.471825263839555 7.076817449444432 2.2027065018360035 -0.9251438525755874 -1.247099447314336 -1.710099847943958
Ni 6.533906460152607 6.048669075978828 6.357978646373379 -0.15383655833890278 -0.4335815811478726 0.06301773848311727
Ni 0.6019900856270349 3.984087520701819 1.4385902152733543 0.2945846589249636 -0.08458106647618982 -0.18628465156527918
Ni 2.527378630752566 3.2540825151240833 11.10782204098487 -1.203108900665999 -0.18686649221067816 -0.12283291086853684
Ni 6.632089668992383 0.8492340051546582 0.42732785404985885 -0.6164785471878415 0.2513374182005542 0.6105426413193807
P 3.9959935035563774 4.301680985004162 12.47028529215362 0.4190851873039105 0.22891559886192833 0.3833661366357462
Ni 7.216927640917195 7.7496335020479705 10.78669335934645 -0.14226273745837434 -0.7634116935386916 -1.630938924042075
P 0.10673411864568762 6.572459166538795 2.787789543146762 -0.5699536641534249 -0.03875423795006229 0.13456356904190372
Ni 4.643269302617074 2.1104314769611507 4.08732299953172 0.5699703763239732 0.3584428910315053 -0.11457915550017686
P 6.217821818562247 6.0929187311502595 9.421646820807183 0.10438190325220087 0.45616820819913695 0.8005451080558794
P 3.3766354968574053 5.822610856203462 3.500874702276119 1.3256327649345494 1.8618106181891096 -0.36285387561500737
P 1.8187989076849904 1.6329302383288125 9.75677554833679 -0.6876690512897383 1.401184117108303 -0.9527047929129915
Ni 8.862760599528482 5.1531965129869395 4.743379232338151 0.43092563158226427 0.5216578052615145 2.7983884236332517
