# total energy = -340893.00110517145 ev
CRYSTAL
PRIMVEC
9.08003515620381 0.00000000000000 0.00000000000000

0.00000000000000 9.08003515620381 0.00000000000000

0.00000000000000 0.00000000000000 13.28954927512715

PRIMCOORD
 96 1
Ni 6.482972682924256 1.88453408623322 11.43448754421931 -0.9595313289165216 0.3368808485900134 0.28908429793202467
Ni 4.608853397179164 0.6153903123647667 6.085098248164809 -0.2769754304836327 -0.722669221514007 0.35052260774316407
Ni 2.562086320255985 1.4850488532117032 4.718414919105799 -0.06620204974836987 0.2940429274888807 0.8845515329755218
Ni 3.3147395262380415 4.221780572411589 4.759771755882849 0.6488675050415084 -0.9539263240249184 0.12438560006763741
Ni 5.140235222956171 4.599001558879583 2.5934560262074973 -0.25571960642864994 0.30721674586667735 0.23788926311544836
Ni 7.139786116323758 6.056955586758615 2.685778193115161 1.005884205149448 -0.7033512379116854 -1.1526353173964794
Ni 5.078736143875011 4.603359975823177 11.554093401193867 0.3268378625317145 0.28612598663464917 -0.8201883362081036
Ni 5.9512548958411795 7.896952099849492 12.416997303781764 -0.8104960486210041 0.54824969681743 -0.004076226951902658
Ni 1.763978457566371 6.492815441188537 0.32856016929630605 -0.11302209542570212 1.5156632566955057 1.434861197645774
Ni 2.6320116720947593 1.4956089342646175 0.2858967154397078 1.4783904883869765 0.15165137776212595 0.8703310185007656
Ni 0.4669362752412717 -0.17009720926255514 4.661788186966163 0.6433555740843436 0.1991594506454183 0.7128460647759981
Ni 8.597068221590652 2.354725554129238 1.5126567005387765 0.4324574948457584 -0.131163028000787 0.010462075873588434
Ni 6.814602812155205 0.6816346178932643 4.8815568213292035 -0.03129212524506224 0.5473683226537412 -0.07768691045951781
Ni 0.601030236539157 7.583100679734283 2.5357787339837503 0.5975739969738547 -0.9869531725729003 -0.19477623397605812
Ni 7.595894449470789 4.015010008579287 3.7705908943861077 0.9082648174320614 -0.29425864304411253 0.5306546094434862
Ni 7.653198552243741 3.9308562414267407 12.62749068208672 0.8213898127153725 -1.1577626113207158 0.2370235726810434
Ni 8.047008763203287 8.694969162186114 6.989252751116756 -0.748222387392763 0.9248412337335039 0.2276848117786208
Ni 6.809172951046312 1.009727165371664 0.5187133605276294 -0.1553609654032292 -0.617789038469149 -0.6477935552510392
Ni 1.8391974699845512 6.503302881959058 9.140047068451736 0.32752383285514564 0.46281425276074484 0.12235160035674413
Ni 0.11983013384644647 4.7371542959561905 1.5006692379368354 -0.10503753455832877 0.4801967099032505 -0.2156875302074285
Ni 6.281214298577085 2.1954798950527 7.115716758752763 0.8512313215568371 -1.4689049174940445 0.32773132088026136
Ni 3.30243607840769 4.654289893816124 0.2958429861063995 0.8319943277040962 -0.5562756524457001 1.0494361215984702
Ni 5.9054188776510586 5.486293528277474 4.912907459206587 -0.20237075849386438 0.573756839949599 -0.054837516665170075
Ni 5.070872833305945 2.860456280186139 9.486253378348417 0.9017591551030599 -0.22166148840267633 0.25589032767855924
P 0.149944070916086 5.637848397455629 12.575914265580472 -0.821746681834159 -1.1799615160152581 0.019076557015476822
P 4.169815530394539 6.38446337996375 12.568072747096124 0.2962214231974382 -0.47240292489044444 -0.3903253415623988
P 2.4437734603080274 8.343090554238055 1.4413184952074545 0.08875036736253102 0.7312770177876761 0.8095565675258702
P 6.324062985153787 7.86000543621724 5.78603094152368 0.13881668789130286 -0.4087184993576058 0.49038444906952966
P 4.794521958976236 1.0200602455420997 12.666535741876606 0.13398532794093054 0.8014596494503486 0.22874924848739317
P 4.080495223156775 6.10609673779763 8.299788773899927 0.09513415940168776 -0.14920060222878823 -1.3796290166453467
P 4.652319526156208 1.2303357029998752 3.9903331966467794 0.529848568602423 0.10073016543222651 -1.2844817446175363
P 0.34528014629616566 5.588425765322342 3.6085376883950717 -0.5734560208797285 -0.21302206756012343 -0.835288939294968
Ni 1.4492371939918454 0.9751049907759952 2.6317828552052207 0.1483158856309897 0.35369971991956506 -0.6793757009326945
Ni 1.9024943960549436 6.495339691001702 4.806138956137972 1.2653992740647884 0.5039809568070417 -1.2834049666135896
Ni 6.138403503392014 5.57430631043216 9.266922401686795 -0.6658010475720534 0.7045401160134641 -0.6035464125072058
Ni 8.640252869473422 2.367510243830445 10.406673856535264 0.15542807119573876 0.44435450339366045 -0.8480817201842621
Ni 2.3967207173878182 5.372012204002339 6.932467118359385 1.3119223573269923 -0.45098537844661685 0.6219809650633095
Ni 0.45676209568857123 9.2373015105339 9.431725950369945 -1.1226817084571827 -0.45473636084861685 -0.2501166584195757
Ni 1.5547018039915026 1.2231261549723478 11.430288027893452 -0.01534768610066389 -0.128009827083786 0.10235690240237211
Ni 4.046463250855551 6.715140105488289 1.5223841423547586 0.4973948189490918 0.8962104573706888 0.44541225523421357
Ni 5.734387332756221 7.7009232177760865 7.881486983727975 -0.265443261474317 0.2962903287621607 0.9706863170920768
Ni 5.678381675031047 3.090844015831537 4.932044541603081 -1.483979809549296 -0.8923342622447341 -0.45396502990023113
Ni 0.8179731639171002 7.394953268300543 6.649957256086261 -0.5359431115359351 -0.12509162499572649 1.0655062876874553
Ni 5.304111700035277 4.260570483209569 7.2817960523954435 -1.0254988940565823 1.777463522100597 0.11620357847747731
Ni 8.449181686673354 7.003068024824416 9.126558676014845 -1.4250421546728231 0.47803415503429286 -0.2538619843946208
Ni 4.420524385039441 0.1534081043827127 10.511063390355503 1.1558031736014998 0.8828481771311698 0.18612755716212462
Ni 8.039735654928666 7.053734621793688 4.597133795618547 0.3819898251135099 0.31963620257695274 0.6313379807981772
Ni 7.464578978974445 6.24473979678039 6.93585578753303 -0.15639917685975643 -1.365915780824312 -0.11010080801384908
Ni 2.4023775793791904 5.044785891891479 2.521253401515696 -0.5234552634815695 0.5104691356345468 0.6824309428192505
Ni 2.298193254356714 5.460814949228052 11.61943878322775 0.3124489407998941 -0.2173057825371419 -1.3946337175842949
Ni 0.8452223498498569 3.3146033257085543 3.691344886312754 1.2951837044160726 0.11233226844752912 -0.16501931442859968
Ni 3.8448138269319703 2.6669698079964963 2.449769007616058 -0.4777415634945385 -0.6763914214933899 0.3070563090294131
Ni 1.2215462288302954 3.503949301801783 8.259428016995193 0.07495588468159993 -0.37894178231580544 -0.10690955477006105
Ni 3.4512578569608006 2.59385736376772 7.342608680807988 1.0551622254489699 0.3189803141605087 0.010499356869427079
Ni 4.271348485109663 6.875166647600554 6.070068065734122 -0.5270753767326599 0.38791261835584806 -0.43013244625700764
Ni 0.46409694820322667 7.177377462462248 11.153148098496246 0.5979028410681831 1.0628853051248404 0.6870003073574878
P 0.37843498718749136 5.611716055864669 7.833458137013108 -0.5699192113710636 -0.5779045435693853 1.4772787433800363
P 8.416048637866746 1.620495739769162 7.922950056918026 -0.12839806366114015 0.3837132355625198 0.9075881030800111
P 1.8410043970090824 3.155820748432273 10.376732440136308 -0.8758645467244851 -0.08567558509194922 -0.4956654949628109
P 3.8771387525969536 6.053178292074168 3.8427127067637468 1.1164110449571225 1.2194138084736095 -0.2693405396461942
P 6.920448783637427 3.9202235200914326 10.423299401168013 0.35968576229967086 -0.4583315343990429 0.08769930039019735
P 6.448150747552006 7.854157893484586 10.052268274763449 0.4196194625408257 -1.2572000260834477 1.170713000833797
P 2.449157921240425 8.499503242301257 5.869529130127628 0.3636375478585673 0.872393300346433 -1.0539342665791398
P 6.981285020141749 4.036348091532295 1.5215070109448605 0.18997315616045993 -0.549605439514376 0.37503499106223154
Ni 5.29508614494792 3.3098817073529947 0.2885371897047014 0.0570149839324631 -1.8740305572940694 0.3127219919556227
Ni 1.2249784821733751 0.9080489300917535 7.27711801820932 0.8408327519313326 -0.06333372706163931 -1.5650832018895304
Ni 6.802072363442376 0.6849933229504209 9.071778823055057 -0.02391125939995882 0.12054180084151497 0.8488615357730801
Ni 2.6360068876263862 1.238126373286548 9.138359089889624 -0.1972907728677957 1.186989626506633 1.6378593053109922
Ni 6.3674292337425396 2.137176988396841 2.762950321126189 -0.13899692222290902 -0.3192073425696502 -0.5060838620826574
Ni 3.8613031710352317 6.948006690770355 10.29260954510378 1.0841434431726682 -0.25605796360467514 0.8440327469258689
Ni 8.260834514463031 7.414829465570388 0.2692166905951645 -0.8603366262922152 -0.41459347008114406 0.16468352835573574
Ni 7.877184863003237 3.8193352478825484 8.320029080585266 -0.40671972376002213 0.1899335611717761 -0.37858311342480605
Ni 3.1871468702143493 8.373980834325772 12.5223702054249 0.2134673826276582 -0.08041279403111312 0.030951196965875727
Ni 0.261603989000355 4.838605530353622 10.346672075274933 -0.36597879439723424 -0.7532825755244897 -0.6138243973944462
Ni 8.864602381644882 2.328075650526225 5.7911738735171205 -0.04431836230140109 0.7198595199793538 0.8524258560855706
Ni 3.3232202792074497 3.073392187986566 11.87968803096147 1.2923290085760968 -1.36908646524281 -0.7911878352106955
Ni 1.0935812913593381 3.5046847846610145 12.57477108913631 -0.8365878606120495 -0.0807120704390868 0.6780405270610387
Ni 3.315883610685735 8.441908578398733 7.870363940486514 -0.2812617165638124 -1.0107173648720336 0.5020659991725159
Ni 5.6958970631231125 7.71857480639764 3.6877437443131096 -0.3441272457397815 0.09850179032234004 0.07484275614250335
Ni 3.425252635864027 8.385703159896979 3.640659221269354 -1.2191392146559843 -0.04165547075725729 0.3520835244723808
Ni 3.4314179798321525 4.422658193334741 9.598616091164839 -0.2294259628394436 0.7583810730933197 -0.5351735803597623
Ni 7.309428415817825 5.961197534493753 11.370312578735488 -0.022561430240283727 1.185701503822829 -0.012680423681145903
Ni 0.7787928116012567 0.06254419114409286 0.2612979918107735 -1.0142132938404338 -0.47369361867741 0.0008780317295791331
Ni 4.582730135623502 9.33427628752885 1.5684862055791462 0.17753827283121681 -0.25367326542258245 0.07480881758077439
Ni 6.136042694214234 5.644785544424182 0.23915632573378998 -0.24573549863274452 1.3224425401320257 0.9794375809221455
Ni 7.972443513326646 9.018200258765349 11.403137814345458 0.11728215625363672 -0.15842494904053359 0.10122330301856115
Ni 0.31065706369696694 4.916648433749839 5.804064799631328 -1.2068701674806441 -1.1061999087520755 -0.8327574311223658
Ni 7.768406040119388 9.0037176024632 2.6372317843882422 0.2651604401265756 0.0774807079859827 -0.24758103648191554
P 8.587043862620387 1.57733833199229 3.8160010589206994 -0.31466111795986457 0.3396360427376473 -1.4915694489710958
P 1.9911518607158696 3.197725111337862 1.4434041793156698 -1.3000397469567933 -0.4450846966914657 0.4737378416517841
P 4.708279783704884 1.026398110180908 8.456738092049308 0.3431396850155316 -0.337545992977838 -1.3740723484931756
P 8.736728244526917 1.716063111292743 12.541307527044813 -1.2213948434593802 -0.12999728982745998 0.7167258594463786
P 6.406918307258555 7.6726843079957225 1.5905733914443347 -0.83090623684624 1.0240639613822684 -2.134887999169917
P 1.938097214462921 3.2734980059092904 6.0951589272762705 -1.3640846411528444 -0.43172730154795325 -0.9528505744622364
P 7.172229082447629 4.055752126966584 6.128289252072288 0.35127748363131756 0.6261510372805991 -0.13093651381227772
P 2.158841952620619 8.41064601686375 10.476471179876322 0.8848788344079535 0.01961108936270816 -0.6809990954687304
