# total energy = -381163.05141484854 ev
CRYSTAL
PRIMVEC
9.35423581314511 0.00000000000000 0.00000000000000

0.00000000000000 9.35423581314511 0.00000000000000

0.00000000000000 0.00000000000000 13.69086965318859

PRIMCOORD
 96 1
Ni 5.396945098365715 2.4983106098623775 8.600905587625956 0.31712654878122154 1.2436351429148196 0.8464066464746842
Ni 1.9439505290160553 8.54414034262304 1.5263811811101529 2.7385231147361866 -0.04620220958767527 2.387192666379747
Ni 5.477915364126911 0.7790535037572294 12.85463116695685 -0.5359117440773673 1.6057385135170474 0.6724424641479709
Ni 7.266370430140614 8.635231891604384 5.480551387797372 1.0843097935472035 -0.9356414096728014 0.37573176001894004
Ni 3.946280844147594 3.192310723897602 12.349972012178272 -0.161041046507142 1.0720811126914955 0.9496271824289322
Ni 6.751896811078689 5.942951846572857 5.184321446008374 0.504679268425647 -0.18018805174923805 0.11432178807373214
Ni 8.262559134219211 7.283769308873958 3.118848167852202 -0.5055698985607163 -0.8608719299703949 1.2431731156767363
Ni 1.9586928047600067 1.7092059796540846 12.11921236730039 0.35602733961147714 0.513156966879355 -1.0898885731865615
Ni 6.713768945639382 8.592819786132889 2.5597136850136764 -1.2443946467886633 2.2508941169246075 -0.7393410257427331
Ni 9.183025298864251 8.333482950647284 10.180284127527308 1.150523156149483 2.4146641323271383 -0.45740413748876707
Ni 0.44480794735946366 6.039880438742164 2.0519741803604257 0.8230211776712084 1.0628439103639438 -1.2627777772815414
Ni 1.0412574125394853 7.80621273690406 3.5735220277923427 0.17499082381901476 0.7966401165745183 0.8952239250877034
Ni 5.324019475459721 5.207203777813485 3.361601813973038 -2.3377035585106833 1.0780887523381562 1.243932362440264
Ni 8.823850703851237 5.6083321207399655 6.5180315598892635 -1.0708148443845622 0.1085936273407033 -1.0419063888803282
Ni 8.944988058473175 0.6851210733396921 4.707509851439023 -0.3886173577323565 -1.7438499478112097 0.05974549548974872
Ni 5.505734861628506 7.875003787551915 4.500599766356053 -1.9117440126844432 -1.7610364868928252 -0.15143591931721018
Ni 5.419638474606087 3.8755160497294505 1.3952095376617326 -1.5261998945607715 -1.0423149371726566 -0.9669386771241862
Ni 4.094732567533706 4.321067658841226 7.8816013301167684 -0.3491190425274181 -0.07510603710621903 1.9540774833453316
Ni 2.0270254978498334 0.05704400123208482 5.380579862696905 -0.09378767267612234 1.6034378904083288 1.2989226026332144
Ni 2.0704946319755586 6.800660442711442 5.585793089391582 0.9536679281572091 -0.34363436526376306 -0.1897042187697894
Ni 3.6537271170587067 8.152628154179288 7.102836872248174 0.5884743486654317 1.0948006657761984 -1.9343211266540103
Ni 0.8845879929344261 7.65559083079422 13.679382919249566 -0.994840545740777 -0.11865152579733756 -1.3446347599583488
Ni 1.7579883197585946 3.4749770236632935 0.441307592293863 -0.17549527425925904 0.5642442724734734 -0.40617336433824885
Ni 6.088195067052766 5.169010432723032 10.167866379399076 0.9803575216332534 -0.7526629396626199 1.7480768414083636
P 4.216945659281629 7.255790789362436 2.0695807231302643 -0.20727796598749465 -0.8016733081230516 -0.21811439448136627
Ni 5.0531488671363665 6.666193301963153 8.89041264008933 0.13132166506583837 1.1441781877680617 -0.37915338410597926
P 8.168670668710302 5.9911448698170435 10.034627449821587 -0.5440834812548824 -0.5244626217001612 -1.1149326606393832
Ni 7.896088235221247 0.07430163100366878 8.334179841220205 1.7897914475383305 1.2498536130207054 -0.5738010629239731
P 4.2440729433282405 0.9505213245215092 5.717758907466057 0.13802761633110422 -1.7580583781011079 0.9925723185318905
P 8.909713234976701 5.385336491640941 4.179083454141262 -0.2163447041754532 -0.5700369678958505 0.17476559518208612
P 2.8176735769780197 7.698704503956575 9.96255867492203 0.9206374800648016 1.1334592586886607 0.4873621173034381
Ni 1.432451556963379 4.9105903123534835 7.082437154645122 2.074731127174362 -0.6750397925615019 0.06616065498747316
Ni 6.731102344721579 4.7392394195376815 7.997425478759921 -0.22236417089665575 0.9697581488508524 -0.6166279282815121
Ni 0.938445006002828 1.8948407906558102 3.5394043232739953 1.8517380644444563 -0.057794285300648854 -1.1310696754105618
Ni 4.560536097321659 6.520248513792383 11.62128919777766 -0.11113670547753118 0.1499917306715159 -0.6456783086802493
Ni 7.915142813705023 4.277561107771989 11.733116281430084 1.12900302268952 0.3368443389251231 0.27466863672732694
Ni 3.1497021794726656 2.4037486393702414 4.691285864731975 -0.30320016850811654 0.35232135151479965 -0.9262445418389338
Ni 7.1227267839958675 3.6064414546946995 6.0488455384077735 0.718368537256124 1.9440704927312906 -0.4433633431249848
Ni 4.135853788454018 1.8133466876854383 10.496817438289813 -1.481810569812119 0.5418790174043958 0.19954074524423698
Ni 7.37386930885222 7.393756414329149 7.466384572534219 -0.10077541684786516 -0.9638932054296432 -0.09480043021135287
Ni 0.537260537661079 2.489985339930831 5.9469302030918305 0.14236352470229674 -0.6966512001836905 0.6219375134198838
Ni 3.2612233796118733 7.340053746152737 13.342628556789283 -0.6750323363623342 0.3419886021302239 0.6769799470070083
Ni 4.723365281252474 8.959936127406445 11.115507534693704 -0.5191034142707769 -1.887322132196653 -0.5007462519198278
Ni 8.543719402008522 1.9622941855730913 1.715342358390146 -0.511397560986087 -0.18513742533471342 -0.307364070077819
Ni 3.7391874160414105 5.225818707210987 5.995300021394114 0.5257846829456945 0.756922229159606 -1.9403871303424325
Ni 2.044517918941959 4.903527864265487 12.037300129986265 1.1569588844724978 0.1338832551454275 1.269355173388743
Ni 0.8112236563657471 0.3178840624233078 7.628593570626315 -0.36643799342183986 -0.6952358078934027 -0.134716035459368
Ni 0.2716825559975772 6.888945720929345 8.45795883205413 0.21589347557064756 -0.7504160526099721 -0.5099587716570314
Ni 0.24746443930906786 6.4758626645506 11.499975048097626 0.6272974921802165 0.15413634896750872 1.7695311546273975
Ni 0.2809460557877011 7.980463442842087 5.869754950826397 -2.190049731943725 0.134520117398478 1.1359401161289857
Ni 5.7381127893133055 4.759706487639056 12.76973399297401 -0.41939706211737443 0.6361192042369045 0.3469510883418218
Ni 2.3427122502653654 2.0682589696006826 7.801824664853624 0.7682294266423092 0.8266472044595699 -0.5914041207177169
Ni 4.937053445652748 2.9027784149973543 6.354466197594838 -0.1433225461814564 -0.17315788437533405 -0.8504347937974709
Ni 1.534515624629785 1.1929457015394342 0.6129699811644082 -1.619735856237404 -0.10146421538477363 0.3416870117294051
Ni 8.081105666655017 5.079256539472261 0.4678502365980906 -1.2759019733683252 -0.381064227975447 -0.37634522523322284
Ni 0.049731795046141315 3.4094599555727876 8.123436390274371 1.3841022219253518 -0.24200842749014448 -0.4947779501515349
P 9.109192315078078 2.5416113677422962 12.781330439192143 -0.21398366014244435 -0.45832382108955905 0.7421098467371219
Ni 6.927120357548042 1.4583253734023196 5.584533073818797 -0.6583710736565694 -0.2362404146581157 -0.27548856152546103
P 8.77500288409558 8.396249873389616 12.27256383943947 -0.1614601363224316 0.8515000018371917 -0.9633255058516311
Ni 5.82090713107074 2.8863149598518247 3.858580205672075 -0.31706587074661524 0.909127422542673 0.1369426107970416
P 9.33416168794739 9.271058012713445 2.0166647461912035 -0.8171994287831088 -0.37187304839448215 0.4992449847839532
P 3.5966569239661625 1.5174909153315668 13.63260145019939 -0.909375533997737 0.09614948804007957 0.23612831456028366
P 2.8753050242232514 3.89817200902631 2.571227813956081 -0.3869751941432432 -0.9125873560668154 0.06345816845464554
Ni 7.68544019748137 3.2418507571082413 9.52713396157193 -1.2362897582933419 -0.004785851424417564 1.141781148290795
Ni 0.06558067689447711 2.123205751148888 10.698072887784447 0.12678726753059455 0.0399171479099119 -0.7381115242110062
Ni 3.2898754041066214 1.4186447048072415 2.2826243806785333 -0.9086743941656544 2.3026784485857505 0.8061953643631211
Ni 1.8955797752901835 8.601790498340026 11.70672049862914 -0.028269536368654535 -0.43379215449678193 0.3224243068450512
Ni 5.813498576255252 0.5462247019031023 7.497723133573171 -0.7613663809738888 -0.9809478469190849 -1.6886928430230916
Ni 5.416972517380817 7.947882639278519 13.537531544699071 1.607423357418638 -2.0828630122528775 -1.341511898058651
Ni 3.3570107550040458 5.260457442667747 0.8218276181572087 0.40398715532020746 0.3440866223098332 0.48908372798023514
Ni 7.5273068399613825 0.8229838017117471 11.96853059408093 1.618247958837968 0.2069195542068114 -0.48771564398811484
Ni 0.4455506736881881 3.891315354127632 2.4543896661437383 0.06403229579056069 -0.6546416885211241 0.0011207438680045213
Ni 3.955990540989105 0.20123112848135163 8.90897799203668 1.406914591834177 -0.8668957675669715 -0.6257394036644771
Ni 7.015892056031609 7.903768062877202 9.861177466474727 -1.6495922774772043 -1.1397126957975405 0.6098340452881303
Ni 7.054019921470915 6.698905064829015 12.131520670868849 0.29176210187450397 0.12909097596310673 -0.17494300130021484
Ni 0.7198206113296594 4.662123098958279 10.200436893303177 -0.15827042574054032 -1.3336890595801225 -1.9428829001810926
Ni 6.878824437709196 2.7874781035633776 13.436616177198502 0.753003096610858 -0.6030347629781099 1.0636468658812133
Ni 2.8569987846097282 6.468875050349627 8.294284960623518 -2.00712062711424 -1.5657915408104648 -0.1559561757850669
Ni 6.017785733597991 2.898737385097997 11.173871418608195 0.2636722856168233 -0.2865018819168292 0.196693505603429
Ni 8.187444620117732 2.96079338591359 4.134491811710159 0.9452866460720494 0.1189610866179564 -0.5736953905840442
Ni 6.300236885938486 6.410083677855506 1.6339502165908453 -0.4691669344516501 0.43794885697763286 -0.8651857268544002
Ni 3.6824633296763585 4.8463921915217965 10.138061913044139 -0.8517380859899266 -0.6653354207895446 0.428593641014978
Ni 5.200178746669001 0.6744104732592197 3.7655364276629606 -0.2570570942931508 -0.28063513872340695 0.37188333280712726
Ni 2.016071687636529 0.5618219548063161 9.798541503034688 -1.8103954969419274 0.8837812304684005 0.32053608868340283
Ni 2.7328867829785417 5.9097536634413315 3.370034657617183 0.6374507785641345 0.7588006771292416 -0.17865361738258265
Ni 3.220747600967153 8.534496125432675 3.7760655555673974 1.3996160012902348 -0.7596108317353627 -1.3856788223838523
Ni 4.583865561601744 9.312291484464293 1.2700666992367748 -0.0903051134441606 -0.09393319711505113 0.8687068526337813
Ni 7.801900434164236 8.094033220638607 0.3820110910623216 -0.15833753153304989 -0.042967247590145356 1.4263624161461435
P 5.806015187552737 1.7156791108817588 1.9192815381582193 0.9807131052004594 0.5677399443315577 -0.42987173639645326
Ni 6.382937685337138 0.8175405718542564 9.873102246372182 -0.3469780849250153 0.47313697484299166 0.7830814040534771
P 5.420583252429779 6.849919848845738 6.752775173827646 -0.6198294659379454 -0.5535474548812597 -1.0993648881081133
Ni 7.205511771517423 4.41533964802114 2.539286840126578 2.793580203611331 0.035240568369848985 0.8776743462397143
P 7.652906165097193 2.278972486991707 7.619571410121846 -0.617131350280492 -1.3709286606578712 -0.0321578156794672
P 0.5957282535938171 5.6274334704031315 13.519049445451039 1.521647756413715 -1.9495438571410362 0.0987748414780686
P 2.287063901026299 3.021240458158143 9.730689617669 -0.29996906316532856 0.012634143824242756 0.6884630079459434
Ni 1.5042827342716305 4.096042160556646 4.62463880494739 -0.12254134777004702 1.5886527616793542 0.07435604631407194
