# total energy = -381171.7822318524 ev
CRYSTAL
PRIMVEC
9.22579648725891 0.00000000000000 0.00000000000000
0.00000000000000 9.22579648725891 0.00000000000000
0.00000000000000 0.00000000000000 13.50288571689989
PRIMCOORD
 96 1
Ni 2.8595448918900996 2.889141247485609 11.618031860003244 0.04199074260948897 -0.16771228787973053 -0.23161834250507207
Ni 7.324350720361149 8.179757358285073 12.432201954721045 0.06268503773404689 0.34250667941722307 -0.6636690888307151
Ni 3.6525666929883296 8.314463214909145 13.073116201587894 0.6438173442121106 -0.08854339355804751 -1.3162461815133268
Ni 1.1814001619162218 3.8174132272091974 6.668467618458854 0.08163895312873037 0.25922299159621803 -0.8122783373324075
Ni 6.2805994441946105 0.1604559776036916 9.843874264479972 0.21184295965035774 -2.072930069409882 -2.2558596884599984
Ni 3.6462285707021342 2.5270748586621266 4.3732471775355926 0.6043758503870366 -0.08161169943522074 1.5137855800568187
Ni 1.0126142125334827 5.878419291615122 5.013013735301419 0.20511284001537577 -0.040079384519389034 -1.1214671193237913
Ni 4.47446523754477 8.982632310186297 1.728328450753731 -1.0658438735325322 -0.6548342641479045 -0.9495611050776873
Ni 5.151454194402129 1.2651519437416663 7.988955890399353 0.1231805240159427 -1.511622510967229 -0.11156916502925947
Ni 8.728406258194454 7.2462266744812345 3.9451111687115885 0.5477987253229404 0.1973470800270279 -1.0167396598067133
Ni 2.1498597117688742 0.138472749388923 11.276260378610871 -0.8058832324393411 0.04085817166694254 0.9246517434305171
Ni 1.3570593297898133 8.311335669850891 5.105710849541267 -0.6523163828220573 1.4077334881910466 -1.1317505035276703
Ni 5.96644261728119 3.015054919919368 3.6353412080966923 0.450469615152463 -0.6175594389568462 -0.24511252033676492
Ni 0.6752129910056968 5.774832047030842 8.380201628810577 0.5658614963619222 -0.7691699361787075 -1.453750578351109
Ni 3.6412281889275815 6.750460040866572 1.3643320252748317 0.06644630454869202 -1.206641596409606 -0.005841546382441553
Ni 1.26503200838545 6.747959849979296 1.8832341891036017 -0.10746259906005363 -1.3461105731729268 -0.9175256739086973
Ni 6.521872477715103 7.942257675587076 2.486745211264931 0.03988269512755067 0.8984460315694269 3.015125221040801
Ni 7.515767548882224 6.949949441440662 10.23393172028499 -0.1319058197040825 0.33542483286977715 0.16006762685027917
Ni 5.438902340065863 4.953081115220515 1.0367756513330704 1.2039139130657974 -0.6339805606273469 -0.6051836910003126
Ni 1.5808125755061058 8.501525467419906 7.349863738367327 0.3959637707950987 0.4626527874822161 1.1233669074496653
Ni 7.5970468172102885 3.4549224517406434 12.29725345964555 -0.2694554679575037 -0.00847384179896605 0.0483357109909103
Ni 4.422920711761694 0.9556356925341496 11.138544144545772 -0.8289599117531465 -0.39474403945538467 0.22334504675268632
Ni 8.834346080919898 4.646710860664515 3.02568580537844 0.4863172209786915 -0.5004436330777446 0.7947860940849151
Ni 3.2225984409532074 1.7393486648306746 2.33805212436706 -1.527324752193834 -0.5253833337422178 0.10535326602653469
P 5.444170269942745 2.3544048488973086 6.27344114858783 -0.19930086131928904 1.1971051176740803 -1.7590495383697835
Ni 3.7934815107457474 1.6313791668461874 13.444364103219558 -0.23990166555978687 -0.7815063462568734 -0.17247808469949005
P 2.9267548203543394 0.04708938858947466 3.871574188917113 0.531553981329304 0.5183999604458492 -0.24029658700536033
Ni 3.9163783476808374 4.590654920328384 9.794156446430033 -0.04000405119676336 -1.008512901021547 0.08303171971119895
P 5.1792053906712345 7.705699024145545 11.778999869320012 1.137748630092634 -0.45290239296367163 -1.2048341108872218
P 1.5690312332070209 2.3192914669158546 13.452290907685788 0.3205558861777447 -0.19239462111775898 -0.5262341117782872
P 2.574670743486699 6.873827393429894 8.417226595854185 0.762786401249867 0.9270007032786679 0.767701322052981
Ni 7.902512943696349 0.16625070046826104 7.7206669566013275 -0.005310099359003758 -1.4518381918197447 -0.19185777477768248
Ni 5.33868251125227 2.653163821231894 9.680664386581622 -0.31248699312668116 -0.469848533899707 0.8729838827425803
Ni 2.9235534689230294 6.749768106119171 5.859280376502005 1.0357575956701128 1.5165119778490463 1.6848883816753368
Ni 5.771372373293837 4.1974606936684795 7.69894020553293 -0.6277322657247899 -0.41850977441641474 1.1834970399723423
Ni 3.965044424914723 5.006987444941386 12.374963267256689 -0.2726842593074465 0.7866513807929226 -0.17164453305460117
Ni 5.8676066579623996 7.285002697725599 0.5378980790940917 -0.9712213636599404 -0.26826273320098315 -1.2237839125168473
Ni 6.1371475323633895 1.0755618229537303 0.37063438615563526 -0.8082090523590404 0.6862176635551924 0.8003198794189507
Ni 0.5611775317356585 1.4934166040110148 6.58855745835098 0.31845323801244513 -0.6409569919451801 -0.2079323117420419
Ni 1.5949003669631947 3.5788341263052548 8.831576496770966 0.5170462746314322 -0.2570498952042992 2.215019000294553
Ni 1.9837307918161557 6.527490987864001 13.0997842893324 0.4690666614283599 -0.4438371974376098 -0.37149998132577955
Ni 1.889064892575036 4.688097784355741 2.7097050384708696 1.399878768033318 -0.7818349332408858 0.0002779362517350052
Ni 8.165475825098712 2.490411542846494 5.015970603121981 0.31423431483509107 -0.37994117011459727 -1.6245633595330344
Ni 3.249999056950296 2.628669331173891 7.385686584109783 0.6625064359811816 0.658230434313647 0.22219627786022378
Ni 2.158107573957897 0.09556356925341498 0.8359632715219496 -0.7689753036693983 0.9547549905738009 0.5301961817498287
Ni 4.443217464352131 4.874634166458479 3.1122127068307948 -1.6799042981971841 -0.005184372414416878 0.12217573690051217
Ni 8.907423616042099 5.0690124756984325 10.48044039339415 -1.9041870262727916 -0.2094351215398135 -0.9565912724515913
Ni 8.98982843155927 0.3086767037140031 10.952812251909346 -1.3258803621689812 -0.19324488493319622 0.7570214737416318
Ni 0.2892361050510182 8.199758885383284 0.16324493592555012 -0.736053613240713 -0.11597732139928413 -0.7987188534804179
Ni 0.723417778407982 1.9392901294397331 1.8965073427180836 -0.11260686226515446 0.9568195864123136 -0.10538231949225722
Ni 5.2941680425027915 3.0582962287336284 12.127819859339246 -0.3251962131632335 0.7515259978446992 0.18700276067822633
Ni 8.110434722392103 6.516890547533815 1.7856354091131639 0.4728233002573147 -0.30756384479345095 -1.8711558068494356
Ni 3.049826947425437 0.8030465517185784 6.090705794697482 -0.4966538270180092 -0.48194685982513774 -1.6453476432682372
Ni 0.9092815999362467 4.4168132343913005 0.2571229521342957 -0.3745886475534323 -0.7242998151388945 0.42321669297378084
Ni 2.974156963449639 4.6677733543754085 5.023653846557123 0.8242573640711546 -1.0389488489139012 0.27420866637177294
Ni 3.2168415438548292 5.09261206348313 7.48544604567144 0.4218828046537057 -0.5244795909810257 0.47077155993460856
P 4.84677226062979 6.70423879974017 4.3080143372895945 1.0078279591393804 -0.7062771533092288 0.5029864541042564
Ni 7.913685383417722 1.007632282352194 2.979668454357606 -0.2994453294513746 -0.4512802839792164 0.8386557988846717
P 8.186390706063493 9.055922038631033 5.24223880100016 0.2418541613004673 0.5270236975591182 0.26631383700472844
Ni 1.7522647801154976 4.876368616225299 10.905740392333472 1.5952849222838912 0.8560943060760935 0.7835999955611086
P 7.774135983561842 4.820524869211703 0.4117842068734178 -1.2026640998190965 -0.30475722858259124 1.4473701287460623
P 0.8067257994154267 7.404541344686636 11.495668274113484 0.3934574594334772 1.1442095552266294 -0.4613582370405087
P 8.258038242707732 2.2627557851548583 9.743858325771944 -0.8210195738601473 -1.235860384065407 0.9622705822245557
Ni 5.521759219618002 0.7510757941311039 3.348756596997715 -0.18866934974737185 0.5407461893515333 1.1220990964808353
Ni 7.634900260791452 3.0864349084612783 1.7204570010672948 -0.7230358608248063 -0.06957790819913823 -0.5406705989185914
Ni 0.3905159778976305 3.002876868365106 11.314661834511975 0.8251227973952435 -1.5006464715716994 0.3692050146440158
Ni 8.55309767059288 1.3775590499061536 13.404882306532844 1.1839320706272318 1.1220124503042999 -1.4896364936144408
Ni 3.4346533765401035 8.815119520738774 9.437936444932262 -0.21092199049798516 0.18528680642838413 -0.43046540411639417
Ni 2.811054104792222 7.030490646038165 3.5623181051746196 0.4370710823583699 0.285885845599385 -0.23123781923720177
Ni 8.421620842790015 4.7588319671334105 5.6971508393892645 -1.46753246262655 0.02338983967885004 0.48185224322880243
Ni 7.509494007172453 5.863639565410632 7.78213198150281 -1.0122404863847791 0.9296324844745603 0.3294434184753617
Ni 5.348434178292311 6.3814374013825494 9.17544038883948 -0.2906837812086606 0.47703271035297196 0.005790381429531963
Ni 0.8049581367807322 1.1022243752202574 9.038669798929163 0.7780389565335634 0.06863585600084308 -0.6353530154948412
Ni 7.063758868693215 6.912308191182035 5.257294378523948 -2.2138195806698127 -0.08050741062744844 0.17578555180616823
Ni 1.2275014676864076 1.4306904127099356 4.126535536900527 -0.2632956190036949 0.6202572975039834 0.5167806796748713
Ni 6.246177996960559 5.69506580935043 12.264698391070155 0.42982391387765334 0.3545556401619571 -0.18942833940058346
Ni 5.200646142044041 6.477311879982464 6.587153292103587 -0.5854201352201401 -1.3876945672623004 -0.27874177835543607
Ni 3.316572405446926 3.8752220689054124 0.7536673204050373 -0.5256728399581785 -0.16370959447824063 0.7686017223800634
Ni 6.499223146983503 4.468689888853128 10.293857882308252 0.667392046208257 0.5629852032553917 -0.7691359976169786
Ni 5.965510811821357 4.533685626125683 5.4226778541088 -0.5054112614956651 -0.33505202291139075 0.10499562557679983
Ni 0.5442177497870229 8.713026855208883 2.5075669116837287 -0.11028335633830039 1.8078045962862996 0.44309363440336597
Ni 4.168814595126069 8.464179442653505 7.289910821533833 -0.8222686157759 -0.8556646747378425 0.056602321875076717
Ni 8.578071902075747 3.8343056608424195 8.388019568876548 -0.12094880647194653 1.2581767881744201 0.5654179810666004
Ni 7.577358967197566 2.4091599519083258 7.195242154553723 -2.03766841799411 -0.927556318671822 -0.5855466334956754
Ni 8.790219095628963 6.034722738154743 12.577370787305483 -0.38578374493830336 0.7067903455002215 -0.20071034007230595
Ni 8.998417648223677 7.172641720544273 6.488055320160448 0.10540160276596687 0.6554986372047809 0.8772495999974698
Ni 6.60023639430745 1.1514901292352249 11.665642506102428 2.1942234037054402 1.6082252844946432 0.6933840993966446
Ni 5.801319309161362 0.08888224733250873 5.632297179384843 0.8060526681376697 0.3480486922813748 0.5034878192207071
P 2.8570539267994555 1.9705932574121645 9.57492384106343 0.9937575970892434 -0.8916014978437676 0.17317511076651465
Ni 3.2794754771895884 6.649419116152729 10.78651080955961 0.1852793502292164 1.7127681388047404 -0.15033960092923787
P 1.0259085854802181 3.677042731453069 4.535525249974107 -0.3870780382696946 -0.906711871122645 -0.8742532363733072
Ni 0.5198422725055725 7.7316419642747745 9.392364699888752 -0.035097615034081486 1.3607800022596437 0.6366372815239035
P 6.168349176572868 7.891248246008658 7.79236708028637 1.8094117928724192 1.2808274356944007 1.118481554332906
P 7.734437380654276 9.12426674008101 1.0603346456125873 0.30228279890016974 -2.1322179085369215 1.3346596510235078
P 5.002208482286001 2.5542817329299434 1.6480815490687897 1.4200724693723736 1.1342485873591757 -0.28336050807437
Ni 6.658921686683706 5.249173832328447 3.3502419502554694 0.502873839785792 1.2491059362214034 -0.5514836303736954
