# total energy = -340888.4881279062 ev
CRYSTAL
PRIMVEC
9.09087287894576 0.00000000000000 0.00000000000000

0.00000000000000 9.09087287894576 0.00000000000000

0.00000000000000 0.00000000000000 13.30541137785355

PRIMCOORD
 96 1
Ni 6.670500679481361 1.8676107362254202 11.061853172502149 0.20682828004458575 0.8172184549465022 2.16289862545023
Ni 4.924907638626892 0.4534591012881712 5.910263710313624 -0.9819755168526507 -0.6332778781333674 0.020705607978467565
Ni 2.6323985963410554 1.6451298050070247 4.6485378313378725 1.0570959521365728 1.528974629092431 1.077490970853157
Ni 3.4828042969427306 4.692726746079276 4.874157840950813 -0.5783678563590491 -0.8281114477099222 -0.4036200017887759
Ni 3.5555040071112223 2.9034884246797366 2.719772793461402 -0.8326489305689595 -0.048003524462472164 -0.5390757436276458
Ni 5.074861586260915 4.540618261580188 2.589406040466498 0.1964464225896294 0.7862137790348719 0.07918097850654106
Ni 5.223479175586226 4.7016358014706885 11.076768567584484 -0.3970593178521226 -0.11566647502708467 0.7652924555011723
Ni 5.907121904657224 7.932213831235124 12.593677974676108 -0.20001228556401682 1.5794698096285058 -0.845942305243756
Ni 2.1944730694889105 6.713727779875406 -0.07695787501067315 -0.8169225209726383 -0.9858856505403343 1.7613496472578698
Ni 3.0753241032598093 1.6957205124082575 0.30197061431734223 0.7568677217725868 0.18581413968676386 2.293182336169857
Ni 8.298203281238042 9.040936683823508 6.416999871929724 -0.006806224288556021 1.1461322261706388 0.43127375895030245
Ni 8.84892835839288 2.394199545967812 1.0410949403820018 0.907649809555882 -0.13756893152713082 1.27131255422543
Ni 6.9342996277956415 1.1556135747403253 4.602674377817796 0.41079697915318925 -0.5620544639110062 0.5250046102465603
Ni 1.0398594907619072 7.684905726267804 2.5303299123485883 0.5502263609278266 -1.3611291580689462 -0.9682949340417648
Ni 7.56536983918446 4.198855987718202 3.596892023928041 0.8390103540106131 -0.9261005600619019 0.31504241255868326
Ni 7.847968712549191 3.677439884626539 12.567998986141289 -0.36465210516601065 0.794522041790251 -1.0815044628879247
Ni 8.151431139100952 7.41837951609901 8.872061902530152 0.1500110139452255 -0.4499440816662961 0.175251276569253
Ni 6.9460450355157475 1.1055046836000566 0.28939702808074835 0.039653352725563966 -1.0804554527981198 -0.31994473495630704
Ni 1.7661565952375031 6.640455344717466 9.304992903839398 -0.2797221399908344 -0.5652279765429814 -2.1117943505752472
Ni -0.31270511697670894 4.850707934438418 1.3623545687090362 1.888334118400935 0.806654820498043 0.1870744944564262
Ni 6.578955589898177 2.0075829054719216 6.890792528517865 0.0863165611100578 0.1689263627924897 -0.34809342947638117
Ni 3.51517689515581 4.653954173380936 0.4570027235244696 0.6606626979042235 -0.6888036791148137 -0.6852355021475811
Ni 6.163166338431837 5.971839828464838 4.578937199723392 -0.7993109785384621 -0.16337715083948637 1.0265790144946385
Ni 5.5685959815292625 2.829143266525688 9.129215422792269 -0.257647419578982 1.3864195572046187 0.30070568422103694
P 0.19256195958709307 5.571905059246073 12.535760023759082 0.8939612563251959 0.17044742742270647 0.4089576119516054
P 4.2459830725642025 6.3905199774969645 12.402213283441814 -0.29575913884903904 -0.5229582692404929 -0.7065224365508155
P 2.635189494305508 8.726383392396723 1.1725844161736805 -0.6307522834980362 -0.3728294987704805 0.7341270856419614
P 6.691000597754457 7.873514065253137 5.644913859091409 -1.1903875964445887 0.039049657703294036 -0.16347588120087975
P 5.014289100472161 0.907811835377338 12.536690929138755 0.5634294898816619 1.7321622270606363 -0.5276209648234849
P 3.9882386455669425 6.3053021354162535 7.972988214134678 0.14332871682904347 -0.5021367045094514 0.5046425016504406
P 4.735653847669325 1.3974489742529208 3.6668517450200313 0.47812311520367334 -1.0448904112093165 0.5895719526049846
P 0.22614546206357722 5.755177055869406 3.529047748947868 0.19830661572681976 -0.7794206673724383 -2.668487035953708
Ni 0.850849335196676 0.06691064233864395 4.461730394263803 -1.0226022892350775 0.6166811501169508 1.3502539059173388
Ni 1.7041659332844021 6.700055107111443 4.812939903189824 1.4912354626704447 0.3481039709993424 -0.6054857956217636
Ni 5.962058049279983 5.871212956906124 9.0917337540384 0.1591374017265259 -0.3275994232880874 0.18985874206978268
Ni -0.02692716537690054 2.35959059303403 10.040197245531836 0.03019606396740606 -0.07633733841015884 0.6705748148116129
Ni 2.0168737775229655 5.503714422010377 7.145418786128132 1.8702088695551338 -0.0929878024826463 -1.665537487952551
Ni 0.6768136653872958 -0.05930885446282889 8.89392272446865 0.9809745863919621 0.1492491960785365 0.6199919596577387
Ni 1.9482285966448507 1.3162220253526487 11.764831279034366 -2.713611953316804 -2.360688706551947 -2.958863056113962
Ni 4.258192114799577 7.107608027777151 1.273894921370593 -0.04816113308625899 0.22947815623361772 1.264202682653526
Ni 5.984121597682999 8.069713283066868 7.72513556588374 -1.0257081818539109 0.12504817335230076 0.3437855461296466
Ni 5.262942654621042 3.1159875775106114 4.885347796339884 0.9115514586031332 0.03351561525894228 -0.3087002723907393
Ni 0.7609042392348077 7.3971977823622845 6.863808999729305 -0.042930223704622836 1.2518616445896698 -0.0881430727958353
Ni 5.307560658560888 4.369591670683621 7.143143340654182 -0.046678892113777674 0.5871062646733114 -0.6413254310281923
Ni 1.0642230299955646 7.295870913594245 11.327947566210645 -1.3247776160231057 0.06793214506559914 0.22216208218817865
Ni 4.9091167924892565 0.2476362854771467 10.247535509846685 -0.2978371044239903 0.5652454600444781 1.02425910811221
Ni 8.398684698831183 7.481333810574038 4.31475825292405 -1.3409879072343809 0.03224857562106059 0.19997680434039108
Ni 7.067753641209855 6.058548573692684 6.986099421285709 1.1598565177352669 -0.1476671963033973 -0.8714957282328282
Ni 2.228009299426583 5.407678441240094 2.3155007688066735 -0.36827581796152703 -0.06046437593364425 0.8206827593460189
Ni 2.7182618903940012 5.342124157130429 11.220573448823862 -0.12787458705750235 -0.15559699267343524 0.4249187632665521
Ni 1.1400590912967477 3.426022705131751 3.627906445737573 -0.09415225510439268 0.20636393881365753 -0.4401034414267904
Ni 1.6085390417922965 1.1255046038664918 2.441622993268669 -0.2401644323028702 1.555430766401431 -1.2307251197213709
Ni 1.357485497211444 3.61639467344967 8.23071445938624 -1.7454471170950003 -1.024522903296558 0.535511166204839
Ni 3.8329029012066798 2.554517088648987 6.782859322450909 -0.11107474189134418 -0.06091457609718541 0.6980928177262236
Ni 4.001347684214306 6.712982328301838 5.888163798419213 0.5053467268063168 1.813078185980413 0.1619555879016114
Ni 0.7482542896662874 -0.4165119758577866 -0.0523316095516975 -0.3750326770693864 1.147267625326663 0.3404873349943491
P -0.014453578741638816 5.707186338102811 7.9311692899448465 0.32033528552650636 -1.0670898301244913 0.92268176418834
P 8.729247017343964 1.5405302220135684 7.984737258203923 0.6579398996564217 2.1555059325305845 -1.705939031698049
P 2.1091370460611705 3.4722861570571553 10.347179658050491 -0.12162423527241635 -1.327086209551624 -0.5901725623034609
P 3.9310752370963318 6.3765563968018535 3.508424194804034 0.2798200990212794 0.2610297057876537 0.1657356237693339
P 7.1608169065587175 4.131710800860071 10.332463353083533 0.22203224147853373 -0.4955343687015853 -0.37343190824116973
P 6.435774342536197 7.806387060140701 10.086818877847467 0.21841367088933997 -0.03935536186917093 0.9344422471583778
P 2.625180443299442 8.804137627868915 5.7631588422302835 -0.39643839643867207 -0.4290142734921643 1.351944663356201
P 6.851818138442293 4.0137294530337995 1.358748219450084 -0.8694488730061284 -0.19243215922391377 -0.39087684319049454
Ni 5.349115038350832 2.9876244528914904 -0.001329994697717944 0.2302443449756809 0.5108280616358623 0.6669647288628513
Ni 1.5169121343534782 1.5089576206111457 6.948431389638448 0.616433295772203 -1.3720347492378564 -0.16237390638595262
Ni 7.13942608274648 0.9258872178617713 9.05752570859723 -0.82434401024769 -2.040870212760859 0.15515579137095858
Ni 3.1669964650628692 1.8089746063533712 9.165498914504722 -0.5574115658223562 0.9062956095208328 0.642478570796029
Ni 6.583455571958125 2.149964156023244 2.5115427145201266 0.06806609954030214 0.4972858041750532 -0.7816819526027893
Ni 4.034493006619498 7.137380636355594 10.039212704002356 0.9209925494113751 -0.9849999055012714 0.6073896975126959
Ni 7.995149943964457 7.096171709733889 0.413328352186284 1.2465764849313303 0.7961693475856869 -0.09298034628347857
Ni 7.7992507249547245 3.7781122105494953 7.996046304027308 0.5966190892597532 0.45466385573946855 0.7887740835628803
Ni 3.383859236860966 8.59781117770209 12.442249487466079 0.7163900733735147 -0.7684227736000379 -1.3125070261858685
Ni 0.3400040990531082 4.802671762307579 10.390075850672854 -0.9494292074855133 0.4724224652744703 -0.003705473876045231
Ni 8.773574113352662 2.6428894636080855 5.667386496772605 -0.03732599014396797 -1.186909408088001 0.1676822059727435
Ni 3.749230507510193 2.634471315350486 11.546223059649378 1.8012739942566334 1.0475435325614475 -1.0634337214291427
Ni 1.440003350056186 3.4127863942645105 12.455913978444476 -1.4177541056518421 1.5755195667315058 0.678968952412579
Ni 3.101087636912117 8.822301191819976 8.226243568119408 0.9865466811631008 -1.5202040819886526 -2.2067220503930836
Ni 5.513259838501176 8.33473040834283 3.8099775380576357 -0.18004998350947699 -0.8208074578493412 -0.9265546168801848
Ni 2.960842741480164 8.673056332268128 3.584850253753077 2.448860575703189 -1.740897807161421 -0.8476993971441787
Ni 3.5191586974634004 4.345846310803653 8.882612769557982 1.0937066613810713 0.45654076104720726 0.49852096213373503
Ni 7.523615460191853 6.339401999470525 11.459884312946464 -0.31421143201695567 -0.7297037597632853 -1.0939995100311417
Ni 8.471384408999674 9.147872621138998 2.062245414821944 -1.0756480041071474 0.724106982401798 0.12772520596383163
Ni 4.947207549723967 0.5037979915115038 1.6176053692839856 -0.771104434197259 -0.5241731154842005 -0.16670698654366775
Ni 6.002212434651275 5.805322310501069 0.1017495943554893 0.3643577138540435 -2.7464943058671216 0.49956225891405576
Ni 8.372302985825185 8.81999211011649 11.022655146954506 -0.6472384540785175 0.5114032174130417 0.4630194267930155
Ni 0.17549020946512092 4.904244084642525 5.4345419705070555 -0.11327277798392749 0.7663208967656867 1.767674046814001
Ni 6.866081717941401 6.130521014033305 2.391874100693196 0.5070539393054107 0.6566126962045659 -0.30027579577246993
P 8.768974131691381 1.7297294677340458 3.541767698237321 -0.5198657463580982 0.32707003314717864 -0.19765201286195638
P 1.8799197780621262 3.2933232341639536 1.3202783728175957 -0.22333450522972506 0.3180495748161232 0.8186901543960222
P 5.078907024678443 0.9703506769631962 8.187498268039613 -0.9696367927816398 0.7105693529266796 -1.3562558891370449
P 8.670892704530214 1.5502301833427896 12.321542695959863 0.9384670520470547 -0.44605451680390285 -0.8066823313018687
P 6.609873648455516 8.117413092902316 1.7451639516560247 -0.7017761801150817 0.7251307956806221 -0.4598618550006403
P 1.9782921131544424 3.518822335168011 6.049810426710821 -0.3893048707176844 -0.495591704302082 -0.9279617816403567
P 7.129162487300659 4.174828810779935 5.791193275920117 -1.1080117651498338 -0.49617688738159066 0.22294781131426764
P 2.4549083948492907 8.555865890379666 10.22523559874961 -0.6251135971550201 1.7547887062109007 0.9707518802226895
