# total energy = -381162.078033307 ev
CRYSTAL
PRIMVEC
9.31288855867169 0.00000000000000 0.00000000000000

0.00000000000000 9.31288855867169 0.00000000000000

0.00000000000000 0.00000000000000 13.63035376682265

PRIMCOORD
 96 1
Ni 8.918329464932128 2.8458045649069788 2.5760278761618123 0.1699594320426944 -1.046362624879469 -0.14549924211780102
Ni 3.1064909430731245 4.319448120990014 1.134567800561292 0.4452862711793105 -0.15958965877259615 1.0683620119686956
Ni 0.21541270144362099 3.344314179684615 11.842147166494579 1.5522461980258622 1.2019501044712075 0.384553472075628
Ni 1.2825151429970179 8.731308035726194 6.649500257845043 2.3413586387647674 0.3066097084102977 0.924329327094092
Ni 3.959095208845086 7.394983022300339 1.1045653985928707 -0.5228299711927448 -0.36953771539308616 -0.5696073365575997
Ni 5.044568254484313 6.041950686695647 9.491496782596544 0.7767822013083266 -0.5026213574553537 0.14469191572515727
Ni 9.275339050063565 1.0408829349411874 11.614001883733842 -1.0391267692526622 0.4736041442873972 -0.04002744823553106
Ni 4.6321376691933045 2.0889367941174397 4.487357640176209 -0.48376308709827015 -1.687887573512977 -0.32288453431092135
Ni 3.892871257889833 6.402638862830785 4.483255312740435 -0.10518228766630919 -0.059640080260136 -1.347988764032246
Ni 6.841927818893127 9.124023235815082 4.5417290777886485 -1.17280742146898 0.5001358720293386 2.040425411913957
Ni 5.2146029748529 7.775880166734297 8.059615012938574 -1.4835370655849223 0.12528908571851324 -1.0546359206318545
Ni 7.392719990366416 6.909651144915712 7.5199340488741875 -0.48184684391216376 -1.6937059799669671 -0.15609064448040216
Ni 2.2825796871300383 3.964738819346968 10.714371255601643 -1.6682798265843786 -2.0495106620446766 0.017305581157983103
Ni 0.927424944209538 2.1278832943135964 9.818965885034961 2.3598633824371746 0.7366174561639829 0.5598096337408875
Ni 7.426497837380157 3.461731079367337 12.015838126934188 -2.618742617540729 0.26397619001048733 -0.3029538568252653
Ni 5.951001016462345 6.861354504548121 5.48208776170943 -0.5205925972217937 0.9631987504657797 1.8223819798798422
Ni 6.377829327555184 2.6762261760806236 8.639436389519812 -1.2317419910216594 -0.6935818172297474 0.8332958201243391
Ni 6.7760950092597865 0.9993567645981308 2.581820492881566 0.7566628048506324 0.8535358013202977 0.23092131643804747
Ni 1.1510171557254412 1.8709313844828548 6.745594367750357 2.1050614027267875 -1.2743089178495923 -2.284332341978395
Ni 6.882401632822466 6.091094799927382 3.661631302241676 1.80587858290818 -1.1555203522537583 -1.4331025630834546
Ni 2.6700144793731067 4.994315907507158 12.580230840943695 -2.669647631920712 2.5736359550100776 0.3746169296882064
Ni 5.242374008708695 2.9231294790936575 2.3245342503494753 -0.04765359732222116 0.034527087242592146 -0.3749473164444317
Ni 6.140751122033051 2.063261160200461 -0.020123289723542676 0.6123436990838615 0.5141640679876306 -0.5758510034744664
Ni 2.9846317955201087 6.407788890235968 10.643111825771195 -1.4362850745764941 -0.2514780575434766 -0.7091287638254109
P 0.7817983736171605 4.639690421861665 9.444786127160421 -0.8655991602427351 0.4811709008910617 -0.5182153552388687
Ni 8.8471789958985 1.481661953182244 0.411178933060888 0.4529998377734844 -0.014817010408174482 -0.13050713958434298
P 6.582684938462612 5.292421472136277 10.955560170159305 -1.7911297067337795 -0.17775013173170678 2.462680769415733
Ni 4.986046062415291 5.687679090817598 2.1965993742627505 0.48852631281486836 -1.3234519552331465 0.3058129235406153
P 5.815656806191961 0.20937422446437948 12.079069846776811 0.005390574887952007 -0.29297720522852766 0.15296752547038817
P 6.959819675895314 4.149134013962918 2.4200016028508675 0.7118145381876902 0.061901365490486936 0.4289754498344289
P 3.7967343086968803 3.4251314271026563 12.684175715953115 3.550034749105899 -3.389958380504871 0.288407069359342
Ni 2.9368007995833656 5.969701296805215 6.453877444712477 -1.115284644662163 0.8598332042932352 0.29204518033256155
Ni 7.958980869832489 6.010417245838596 12.575432840728235 -0.6036834523057022 -1.1030184257003004 0.5257623143481912
Ni 7.8956718530143455 5.456188618465645 9.474935672768991 2.0197964228096956 0.39651424398193 -1.6771750721914793
Ni 3.3958889568453796 1.2108617779780724 6.601794054615767 0.7765497735825465 1.5728397059064978 -0.8276123965863166
Ni 3.3949762937609163 3.902379717167756 3.5606712080339964 -0.9198280967896287 0.6505767744231311 0.3230912510050887
Ni 4.897415301447614 5.200689519259151 7.136431158205203 2.056016324373678 0.6663168108662073 0.602825218070465
Ni 1.5945062245540353 2.3979477513170275 4.49105206309056 -0.47629223264252163 0.9686728862064736 -0.3095361380284734
Ni 5.677909870658399 2.7052730756769443 6.5355226079285655 -1.1945856936863364 -1.0026315025401056 -0.9135324935889041
Ni 8.903391591590513 8.208845671425717 3.491605894761706 0.5894991903855202 0.40282758779446753 -0.17855025903549895
Ni 3.6429319531876674 1.8179689869181626 0.7342290698505539 1.2350378881641118 1.2833000656046094 0.5479627617046304
Ni 2.623189275406996 0.4957930451680667 8.601707083865893 -0.586113561742739 -1.4476287817240876 -0.0774277432608602
Ni 7.047602963998847 4.374626986045545 7.266369236633438 2.0333579635442143 1.0315319876245397 -0.5548923989449283
Ni 8.268885864339307 3.9087962974248467 0.6166249811066307 -0.680304640504867 0.19209534470978532 -0.5097389423367414
Ni 8.493289228453747 7.588150957993473 11.04866949926288 1.0195164512209023 0.8179234514333268 0.697643903114263
Ni 4.406477065115572 4.141748893289663 10.606922871894522 2.4749678143132017 0.8803956018256192 0.9032624791214637
Ni 6.73861994546511 7.807869939133579 9.793368479382364 -1.8406923481532556 -1.4414339657672852 -0.16990955264136545
Ni 9.760838559443298 8.386591463569154 1.2312411721385816 -1.6562267520745866 -0.3637583897071477 -0.5258327625748105
Ni 3.8038214169343925 2.4921010552345653 9.02562511726593 0.5852974935993468 0.9927769783435288 -1.774572573706047
Ni 0.6947573227364003 5.926563996731423 11.290526147934381 0.38920356925312966 -0.7960837298504161 0.05117806553571186
Ni 6.965621605503685 -0.14153448733408205 7.7600193861307405 1.3994889887940674 1.6419399031382689 -0.5640753509957769
Ni 7.797718890541086 8.79918036796665 12.846935207734125 -0.9659814554172397 0.5553490268663727 0.8754248880839053
Ni 8.693916787929071 8.127646595574381 5.875486527822805 -1.1657178616120503 0.5323587366187863 1.0994037117658486
Ni 3.5251891024033513 9.255353591091554 12.70418538843553 1.8037093431710032 -0.16004294425993082 -2.956364715172141
Ni 1.0565006491518414 6.614544330421256 4.789720126192144 0.4092977688998435 -0.2942740696630803 1.0059662233402933
Ni 2.3232397588317166 0.23659114144746604 4.457929843435454 0.746830906361875 -0.7564470892954004 0.976083576848248
P 3.1486597027307512 7.544194123721388 8.770532991291997 -0.825875616400868 0.21831185520415305 -0.3215645299479172
Ni 0.9211629579034893 8.549119995712465 12.522029012243099 0.8690966318730323 -0.9034617396164634 2.076469707132024
P 1.2278391739268033 3.201109891421511 0.9738850829418638 -1.485721989051383 -0.5555534295676948 0.4455048149480198
Ni 6.218588245093663 7.104793412995642 0.21749413204951315 0.7951823010820693 -0.2632002310764112 1.373577154024312
P 8.761798433058145 0.6498775812023737 4.722739968681193 1.250020477615873 2.872633398290756 0.23382949122377794
P 3.573644061877432 3.7542209721604256 6.525586687063123 -1.1982862824663751 -1.3272366190865594 -0.4791690399696844
P 5.453217806996832 0.374858667454716 6.339314014101993 0.36614977275745975 0.5920186143732642 -0.41052907020378326
Ni 1.2264794921887263 4.318023249031618 6.07192701257594 1.5269779103773766 -0.03842462252478544 -0.458787648099855
Ni 2.1312359342157046 7.872687643907671 2.8231872836118126 0.4536138172083994 0.7936517233701557 0.6555022367492066
Ni 1.3159856646863977 8.836320167771115 10.436966379790316 0.8651119361936713 -0.2454274804740225 -2.074225134072221
Ni 5.690053877414924 9.378358223944456 0.8840119826326838 -1.054022969638204 -1.697003419771316 -1.2741999030755538
Ni 8.866223853120198 8.00457677250116 8.887086586199926 1.1943211271710399 0.07433830570225906 -0.7503062665049852
Ni 7.219314004318488 2.5861519173773173 4.514850218662358 0.4223471458846339 -0.413491752376533 -0.2878257429345753
Ni 8.144102469760563 1.9629520369071076 6.799624953639415 -2.4687177196384322 -0.7347194678103218 -1.9559872987735345
Ni 4.534147455165575 6.292215942499405 12.44169137858883 0.9843270478039629 0.43708085255038276 -0.23642039187940575
Ni 3.923408219664868 8.260001368598719 6.098901794454985 -1.1807544442301987 -0.5528622558887769 -0.5218341829383787
Ni 9.44261715540153 3.3833538087669415 7.772027424713459 -0.7924998691538997 3.0115974103932004 2.721322177476868
Ni 5.511162599971602 4.355163048836083 4.6643751644297975 -0.03858017426604323 0.3583788705627892 0.27798895934981155
Ni 1.0211116724073661 6.365648069244191 7.693149120705469 -0.380630482872138 -0.26584358223652926 0.6474261446092915
Ni 0.4538934279914697 6.21788977844739 2.4721239778623096 -0.7829644188596386 -0.6776636033375941 0.44774990222845473
Ni 1.9710263113380182 2.1199300874347062 12.85188314545632 -0.6516247560716714 -0.6893793491126257 -0.7932814845149305
Ni 5.862621703487326 4.451141678922547 -0.0629029748744431 -0.5947882066986016 0.5475925228494053 0.5192826201611186
Ni 0.7383481604858385 5.42288572877137 0.37943595220995535 0.213447070912684 -0.27351832517296765 -1.035187839209572
Ni 3.019452686058949 4.59545420093107 8.686147044955934 -0.5732361915594386 1.506306240960638 -1.975423038900643
Ni 5.210067598096437 0.7151758310291009 9.19585447700661 -0.32615754863523827 -1.4924191985659008 -0.051605897101749836
Ni 9.376681903993402 0.8499743060265306 8.34382109130687 -1.0821138143371491 -1.6928312906714973 0.5878711678637941
Ni 4.414430271994463 8.151161639332225 10.811201083707697 1.054560073088597 1.1992432470630057 -0.6370941665556641
Ni 9.190982904971076 4.342907287416154 4.189303296434483 -0.8342887801652277 1.3861753024042964 0.9056101534180339
Ni 3.072685157393533 1.3212846983094522 10.700509020895286 -0.5064229905896311 -0.7266603449512712 1.8709989695565972
Ni 2.5820635592744683 9.169451506488649 0.8619180856777908 -2.1683426792839366 -0.2453112666111324 2.525778983427798
Ni 7.499492258359945 0.5241964241609549 10.089283652608772 0.3632783647469356 1.4228418045873947 0.7383971737722251
Ni 1.3924724188975492 1.0548243292007873 2.493823008339843 -0.7216387233669636 0.6700654792753621 -0.653741545304358
P 7.6358143219351104 7.31305754113688 2.0411048668918346 -0.5650819378834204 0.5490577945410222 -1.8045974022029112
Ni 8.144987194179174 2.9184637218965572 9.777747971305125 0.40527322112148273 0.5145299359674816 0.8665257858220625
P 2.6544340167169205 5.8559443623489615 2.758756063715325 0.45117564008055205 -0.9494207228450812 0.02405369851509406
Ni 5.47379929084033 8.011477622966334 3.172328409150774 -1.0363029266506216 -0.03226605912255733 -1.4332943673792864
P 8.088206512281525 6.168382462559593 5.600575643583104 0.45148648645275147 -2.1879655957211868 -0.5692165288770842
P 2.174959946272365 6.950879302823026 13.33781942931219 0.4236280694795866 1.298671405854357 0.21746673359503835
P 4.294936598150157 0.6248901697541891 2.5032690712640324 -0.11536565595721421 -0.12883515119855876 0.9440108646834194
Ni 5.284561394143557 2.107217994472546 11.11412234304065 0.9641192053975203 -0.38654941945973426 0.7097304019651519
