# total energy = -381163.75178144645 ev
CRYSTAL
PRIMVEC
9.31245907797223 0.00000000000000 0.00000000000000

0.00000000000000 9.31245907797223 0.00000000000000

0.00000000000000 0.00000000000000 13.62972517841194

PRIMCOORD
 96 1
Ni 8.63271461075607 3.7330015971640873 13.593197006309515 0.21583048354319603 -0.8417845743216406 0.8397228066966054
Ni 2.6813269858376305 3.7676439443653624 3.116831577435856 -0.3332388809620519 0.6317598988269442 -0.024550178535538363
Ni 8.944495735567546 5.425364070076709 6.673481277444031 0.04789116725432398 0.922723930280185 0.32015710807742925
Ni 0.8954804627597605 0.022372251321597765 12.678601790360148 -0.8677041224008798 0.3290430977131495 -0.6820933569741737
Ni 6.3469808800555825 1.7228607758922396 5.774069094526104 -0.15212883161917673 -0.33027234213456025 -0.39816206399799814
Ni 1.6038009885351687 3.086744885140727 1.1897262274153233 -0.5811508184208248 -1.0094917199950486 -0.6405623276099226
Ni 4.27387852399131 6.082218360356803 13.032824446722648 -0.6124095193247905 0.2108469142856756 1.139550202077747
Ni 3.073167320027969 8.282985215824915 12.687720550139579 0.5900231812097902 0.229284809275889 -0.6151109774163535
Ni 7.114029496796077 7.630396031732505 0.6220154501955 -3.636844447802291 0.5523251524383842 -1.8487306450766998
Ni 7.016257990541725 8.635824972037044 11.956008058790278 0.17339545430743686 -0.3228153716358828 -0.07665872630531959
Ni 4.437023491899681 1.9953340115809797 1.3241320158350238 -1.7397372111944165 0.009231545900597006 -1.1172291699830434
Ni 1.1343878714989637 4.752473725527637 4.912357470320448 -0.26930762952572973 -0.4754584238873167 -0.9229573864472298
Ni 8.418602555150768 6.438224352603457 4.4524635487974535 2.3343467262233086 -1.4190167744143498 1.4412025664827695
Ni 4.57465232235335 1.6452507432106729 3.461091765240314 0.6095046869731696 -0.36205400542153127 2.0265170293629806
Ni 1.2980915869428393 7.352754381340349 0.41254844910202554 0.08155333539345955 0.8793499341699242 0.8169286916202253
Ni 9.28598360435001 3.8974409968630432 2.808949579176307 1.3159304500451208 0.3272281559915977 0.2997944852606772
Ni 4.075495211510458 6.481275850214074 6.352092488759555 -0.7771179873811906 -0.18376368491563835 -1.0069378432249434
Ni 2.569121168249414 4.089044839246441 6.671587123298671 0.8558647065637904 0.8188958426489252 0.5095692495280966
Ni 5.037099720113599 3.7815008832458723 4.788599547435677 -0.41582271450255476 -4.4248564563881665 2.585448117153657
Ni 1.9487158422020592 6.341384092241613 7.776057789254942 0.7933797006556916 -1.0592027140669307 1.5441145700576633
Ni 7.031185862198619 7.2166434816914675 3.0817757570583075 -2.1335795647711384 1.6983612193507913 -2.641593039776341
Ni 3.5941062722966084 4.327797661167488 10.71042849648004 -1.1150334478833055 1.693550171115393 0.8329908872894106
Ni 6.384193465920178 5.878433821699409 6.957620230428212 1.3442431809468849 -0.5139691783680052 -0.5696142785361351
Ni 7.6709704152690525 3.5725013675904367 7.175341795112871 1.4494948883985488 -1.475924029124355 0.44617535865248326
P 5.679016826277874 8.471990882168217 9.844791670837463 1.1857778655867193 1.3150655309416641 -0.3363252331968595
Ni 2.2213008273979002 1.22326597947987 3.2145844587723578 0.062087256249047915 0.5142712829894563 -0.9612544822552155
P 3.1931117909829223 8.643908186384008 5.231020502277555 -1.9212565801605686 -0.006716235677911014 -0.22140283542465095
Ni 3.1224116028237603 8.340228900837346 8.199465496709497 -0.2583927823854389 1.4168344220510503 -0.11871348938352458
P 5.087833996337403 6.539115532597709 1.8205773386389337 0.41739237298251985 -0.14095507439054433 -0.8131921073959285
P 8.176990808339724 0.8332397122881358 13.329857430334487 -0.09320686047198787 -0.14563422503376855 -0.6899372784986247
P 3.7409637495450254 4.744530198064549 8.394615523451563 0.3489418935196055 0.3281375551797446 0.7221460020206854
Ni 0.48470976206653144 7.913867281411758 10.086637160367527 -0.10423894991643337 -0.7367940909511632 1.1874979336016194
Ni 8.603659738909839 4.571355711893873 11.460472563223348 -1.516693497732233 -0.3394182702998864 -0.04583634160782429
Ni 7.562862079607869 7.052027145272935 10.074806612549112 -0.6310183926752294 0.5220876937100816 -0.401552834847102
Ni 4.092602198555819 2.0928727063622046 6.707160716392454 -0.5982874781011115 -1.272482663274131 0.3199462776182038
Ni 6.728866195655017 2.2219713244405055 0.9123900256759098 -0.3674283823595672 -0.09939807688436429 -1.1332384009271061
Ni 2.274642592120724 0.15699595128014499 10.572646010454106 0.12904289633399066 0.9340367841898429 -0.41375451911961647
Ni 7.160386917325096 2.0096751983255934 3.2467636605879506 -0.7193396429201419 0.975955793021132 0.579239460330725
Ni 5.10454986010791 6.9550565104861395 11.034080212683309 -0.7263042471634331 1.8130948981509616 1.7112427032991495
Ni 8.827503314091842 1.7496527202196774 1.5898527875571926 1.2265434775398554 -0.39285582129373636 0.0743547607624913
Ni 1.2985944597247934 5.074563742369172 10.708643298104102 0.28756503307402087 -0.8601098549933898 -1.0572044526899793
Ni 6.546248876134316 2.5967512338801084 9.280003143228328 3.5437131777632453 2.883632320504421 1.6138524008734336
Ni 2.7995114020557446 6.198707909050555 2.123879469599131 -0.12346668779779382 -0.2946779899697183 0.26561603960675545
Ni 3.8424323019926314 8.356237017729548 1.3667616590563352 -2.0141129992716733 -0.9879790427342532 -0.0011590533051076813
Ni 8.806969342162054 6.9394581417866394 12.1012740368084 0.9048820170027577 0.12173453559803553 0.8182998609361392
Ni 1.5185919893707414 6.976903539124363 5.699051650409279 1.5714037447909195 -0.1154168209101238 -1.2750889905487266
Ni 8.825640822306827 8.302876628088875 1.6198659114268137 1.827460422844014 0.9406424624318188 1.5098435646899353
Ni 4.466367049972589 2.7490099373050683 12.718659332426352 -0.8306462983166341 -1.148403281593003 -0.09639939926735655
Ni 5.938853055205289 5.672395667982147 4.567716402945955 1.976664110396596 1.6734143195974664 0.12094083605214655
Ni 4.459177831682432 2.666333926968261 9.596621159205489 -2.8910674366262272 -0.06876698226206866 -0.48876208297475826
Ni 0.9685236655844708 0.01985323118236525 8.416505389400841 -0.7420445407168252 -0.8097316596511539 -0.19735556466746013
Ni 1.296759905316554 1.8216939024640497 7.218261055806753 0.44873514895985944 2.6094699339895513 -0.46243270105161005
Ni 6.873907743413045 1.6547680762320984 11.498662957275076 -0.6049497206126355 0.9148612397026566 1.251784254384515
Ni 8.563374041599968 0.24057992636214662 3.916583687429426 -0.01580534246337278 -0.7069291850709309 0.2292603837958568
Ni 5.167315833262909 0.19512302061118292 13.208743314538545 -0.6213744418275622 0.3841251262889578 -0.9258851016169861
Ni 4.90189212898045 6.730151314986677 8.486385149928704 -0.6587850212655364 -1.0191446697037803 1.7831315190196517
P 0.692444645799942 6.1888553275078255 2.9365516851053486 -0.17243231906321915 -0.10285235398155189 -0.306314288657066
Ni 7.14646479123211 4.407018749243092 2.520749462854902 0.14950682061529735 0.6304707477018755 0.8003327349347572
P 6.262945250715714 0.06844564185340136 3.758328691702611 0.3193981184242177 -0.12244184607770527 1.1590353073855524
Ni 1.4750096816013953 5.303138046685112 13.317591059438382 -0.19166854158501181 -1.2057836192846847 -0.4360930347158167
P 1.7497830946446287 6.815825937097357 11.632670172452785 -1.1278956485579543 1.3914884870870938 3.411159697172835
P 0.38450491029505773 2.270088799706363 4.274022867104648 -0.5516798055449015 0.7069798358032082 -0.6337023672652957
P 2.872465205274774 1.3867555083684688 13.269777170333478 -0.8586394410954501 -2.1071645651127193 0.8944531083599498
Ni 5.982733361660238 4.504883380086695 0.589119189042676 -0.2244979294102069 0.003723728708490362 -1.077666062978441
Ni 1.5169995588945537 8.259499194415879 3.582777666014256 0.14248179544771591 -1.114538767635074 -1.12238500315237
Ni 9.117083536825943 8.16914971792481 6.2280347046973965 -1.937437046575173 0.49155738633170826 1.0037620166001229
Ni 9.158496041665748 1.7420444412778922 11.18960852043686 1.197564830919318 0.46251497635277117 0.10844810290177452
Ni 6.722598910798442 7.86446468681424 5.448401230965557 -0.2363931381858961 0.832436043227205 -0.4620686328439719
Ni 1.4953387794348316 0.3753628693683126 1.3283431097609424 0.828297081358167 -0.14038994591569373 -1.1530281819595238
Ni 8.289941622641946 1.063315184982799 7.046404282573975 -0.06096394127788211 -0.11434518511249986 0.5410822325347133
Ni 6.606900921113323 5.917946584918498 12.50992056562082 1.4487145585890984 0.031300866995810604 -0.390299887641102
Ni 3.0138655815930977 7.169196503468216 10.14235546460803 0.4614356272456634 -0.5307150303677763 -0.9903089764190106
Ni 2.1828683094141197 3.2201365467834866 12.49327827027582 -1.2023103160241035 0.24468803120483665 -1.256494772486307
Ni 5.553717691441004 3.623654704465868 7.486180499081132 -2.087161382517915 1.0649550431696755 -0.19368865733883414
Ni 5.740059994531735 5.061209676270615 10.418820951437949 1.5903345202571515 -2.519665414330893 -1.749443125628271
Ni 8.40194256613381 5.911800362027949 0.7115137679408161 1.4858001505874863 -1.2379951710202226 0.9832327862985196
Ni 4.891192113675539 4.12730973296957 2.6293373901507273 0.5693509975724195 0.33306250328518766 -0.43989466785009407
Ni 4.6925014900501605 8.810172828032279 6.678347037232382 0.4622095292972105 1.3553786287384142 -1.2431186082897172
Ni 4.500562399145461 7.474142283428688 3.972914751467198 -0.008850251301778305 0.25316727232044145 -0.6662551043903364
Ni 6.493223735014944 8.19664009667163 7.8274011002924455 2.9001647709418052 0.03861719815156575 0.09366580238627739
Ni 5.7076153876367774 0.02231078909269228 1.6306879199436422 2.775790483728078 0.44385468093910657 3.028653851654855
Ni 1.2457555677839236 0.5669676429976025 5.229194329082349 -0.08366138287539786 -1.3807973259218347 1.7846950068520295
Ni 7.547701396477848 3.8283239267211444 4.977207571782879 0.638213624872088 0.3990043573936354 -1.0863890446737354
Ni 3.6454644832683916 4.203513584353451 0.7720065698722043 -1.5055063707671619 0.7119844881066513 -0.6651050499462933
Ni 0.9130325853417398 4.219838324849105 8.433733438412228 -0.8555016667974169 -0.4312598749932315 -0.19428283927940732
Ni 1.8581428666967894 2.8095967950715997 10.032731060633843 0.016574102308597263 -1.3330313713914654 -0.1257662824652479
Ni 4.63760454468685 0.8068258537930559 11.051744084772388 -0.3247624680599246 -0.9687626177068026 -0.8912875661477746
Ni 7.784237853174728 4.953343464541483 9.069873095059387 0.5586261549557476 -0.055990913543322925 -0.3766329316769707
P 8.618941484005886 2.678365623899457 9.033426924564326 2.063266835288505 -0.23796819598249985 -0.1432595541540049
Ni 7.884328161701423 0.49265887700497457 9.604976297353065 0.02566680863848483 -0.6615461289504414 -0.6066137385786198
P 2.967266037132027 1.2892633758818695 8.524575543980433 0.03194081457265467 -0.3448988337984834 0.5733241232875546
Ni 2.536806935779407 2.49749904665667 5.025511296227237 0.23069454513922208 0.785126459507964 0.7812194111440739
P 3.7416528715054804 5.34051825681036 4.5053601779836585 -2.0354333580160042 0.45812353215329493 -0.6581589576457633
P 9.28904740333636 6.998545693666235 8.213272148311813 -1.3159083385579338 0.23699091967089508 -0.1835266292041678
P 6.0399397968369675 3.6442445511492068 12.012422003712484 3.2048885751833 2.1097917183229216 -0.9103762073481096
Ni 5.594552823827454 0.9180110258830844 8.603287240552834 -1.989389014162432 -2.4610103236918457 -2.006534672703783
