# total energy = -340858.633153064 ev
CRYSTAL
PRIMVEC
9.36294508416596 0.00000000000000 0.00000000000000

0.00000000000000 9.36294508416596 0.00000000000000

0.00000000000000 0.00000000000000 13.70361655167035

PRIMCOORD
 96 1
Ni 0.9377832159308815 2.170546016501211 3.0422024965338363 -0.1826948773314918 -1.018394421801317 2.5578468104966205
Ni 4.041047095076514 1.7874236669103027 7.618155580133127 1.0190168858766644 -1.138106784763001 0.89268984581194
Ni 4.094912118102406 9.100483000248676 9.835373068957852 -0.37172392441112756 0.9426993449608474 -1.5217624276147081
Ni 8.715300802740908 6.143131257177354 0.33307553556726804 2.570873561773592 -0.3145772999968066 1.2012672194715697
Ni 3.120079728503272 6.4237948987946245 2.766225945221931 -1.3362365085923247 -1.7062424218710808 2.4545427136896305
Ni 1.8422343473889355 7.934655894031224 13.37941631347632 0.3477956957303042 -1.3136768781242536 0.11256546750425775
Ni 1.7759540591914225 8.096644206802122 9.251105633991042 1.0898358655717553 -0.6488356233623084 -0.37765854472800764
Ni 6.778229184670717 5.615154784305796 3.281029690665169 -0.031929501718745014 1.08465072182639 -0.43506356501003784
Ni 1.8669150706109505 4.2900733452798265 3.850400680015047 -0.09632586571694379 0.37032215896759446 0.14695191540392757
Ni 1.4676229148726907 4.922952254790026 6.266019911308216 -2.212294145164222 2.108673288447762 -0.34018085949752386
Ni 6.448466259071562 4.995721063925648 5.805824606729954 0.47682059434216584 0.4753820621234265 -1.7268243597874906
Ni 1.1217369978515679 1.3083966708994026 8.140318600406601 3.169446946546238 -2.2205468720913175 -0.92770055755917
Ni 8.963933809251003 4.43074223211122 2.1179215836979726 -0.16557570115270195 -0.5193926633764216 -0.18432829916985674
Ni 2.1087131272151 8.78489557349555 4.180000690369868 0.5867223989713315 -0.7419072438080125 -0.06684045466331714
Ni 4.325821069582426 7.283200901488978 1.079446447529414 2.0470025509108423 2.0713221014928136 -0.6339857028336694
Ni 0.36450694218953833 3.499616070129828 8.154200102777224 -2.4551096419366942 -1.7867182079296455 -2.160171456327054
Ni 8.94475849773405 5.450881912936201 4.481068998192652 -0.5122568236625887 -1.3386924263319848 0.9716975319654103
Ni 0.2318143482689316 7.312740993205767 7.364666014011781 1.2768409402428267 -1.6328004027308458 0.06935576488600313
Ni 4.186388091501149 4.714804622791309 9.782806686414085 1.6137840095293432 -1.350009651117017 1.275249427385991
Ni 4.775654402844373 4.222482244771585 7.157563286683617 0.4442663145552284 0.38845255001971807 2.6099646142377826
Ni 0.3147428891072128 8.975806023608177 1.3245440059785707 -3.3993927864448934 -0.001501781356507091 1.9464173956969122
Ni 2.3924759036527363 3.233886325909794 1.629524152254374 1.4692368469121666 -0.6585646777246142 1.361606354815681
Ni 4.722716311381068 7.44130359205307 8.215578889227118 -0.3118005085826178 -0.15669228262014304 -0.05627527755296115
Ni 3.2892962348733317 8.345221035641755 11.73968280591038 0.6790764245247208 -0.9440939113155289 1.317836665928898
P 1.4182614684286607 6.577581271678387 4.649020570682858 1.1813416841922366 0.13190787658661154 -0.2450821813194618
P 3.0250739248106364 9.256263680433761 7.641300780362574 -0.680162458500048 -0.5049708315241368 0.7578249434795336
P 4.205516588292718 2.429141196572847 9.90957815386823 -0.755504522876473 -0.46893733493934725 0.5651945522018846
P 3.0402606217249417 1.166688497164502 2.6471414556757087 -0.33139771398825507 -0.4448427558839887 0.7119091547840255
P 6.094022610250393 0.18150349919413053 9.539004959563536 0.4114158436841108 -0.9739652449536645 -1.3502827022727455
P 0.5526206806077745 9.234766358537803 10.52885832194912 0.35605613596688357 0.4486104504565371 -0.45093986992066204
P 4.915649157630249 5.383328264208266 2.1075343324299514 0.10349153022744757 -0.7085381814292635 -0.7448884379235235
P 0.33331241807770695 9.195058108467785 13.033934875682508 -2.219869643518635 1.8207542144684319 -2.0092862673069916
Ni 7.060091283257796 7.464664140019279 0.022617130127124248 -1.841836489060028 1.3388911726063522 -0.7034268283446272
Ni 7.808359127892468 1.1146024337031706 10.231572643937296 0.9202782969531699 0.13759721366190494 0.738632943932115
Ni 5.349752743163444 1.4164169682485632 11.908401203602363 -1.0423056812012756 3.4138755534421015 -0.24372206774714156
Ni 0.2663832777863829 6.89676406934094 2.652896858014317 -0.32681806503737265 0.21585927989860243 -0.1606389259727169
Ni 8.388384212445052 1.6915471093255403 7.7176846225922855 -2.570721866687076 -0.6859821505056186 -0.6968154936756967
Ni 4.598357674873175 6.277423978411559 12.679079257277968 0.33057444675601133 0.09585483961779621 -1.2250000443121354
Ni 2.2635575128925223 3.208231856399809 9.173885680765986 5.1412362453490354 -1.6709452892316836 -0.9083722895442035
Ni 2.969645289956946 1.7125481951324368 4.855068094100885 0.42624031029145304 0.2056777113799103 -0.19863648826241273
Ni 4.770907389690518 7.929375193008001 3.559308590171419 0.022510522397690264 1.059119410324505 -0.6035037321947283
Ni 0.7423027123263475 6.139723145169459 11.932218663288312 0.11702941681288233 0.6194731110397912 0.17484967025546017
Ni 5.933710264648216 6.381539927663762 10.44459462514291 0.3002734817796248 0.2462054962906276 -0.43116500128658003
Ni 8.555119538369803 6.301814450336198 9.901452053836216 0.2607366000272671 -0.595357191828194 -0.30011972981057994
Ni 1.0245683538462296 4.230749725274255 10.493160221255426 -2.4491372264033435 1.5386895423873501 2.4396999922498432
Ni 5.12225190369132 1.1001928612302263 4.289094917519318 0.11229755855485174 0.3124324857396619 -0.4498486937390124
Ni 7.096775302068059 9.36114739118225 4.2728839144136295 -2.2719208556879193 -0.8080290751377505 -0.14467983154029923
Ni 4.425030835614472 3.0062263163713663 3.052083212473211 0.37533683857336647 1.729762359369892 0.4760325512232317
Ni 0.9208025787398928 9.34170991720315 6.044171481778855 -0.768916939627637 -0.12797100342605056 0.771904047280419
Ni 6.593666811320049 5.034989255577064 0.4201162818832082 -0.369975317151137 -0.6309098921218231 0.499756634313049
Ni 2.9572112988951718 5.564201637198738 8.197297738964982 -1.6081494369513851 1.087203570155231 -0.907403754983347
Ni 7.9168475724954614 1.4723792909716225 2.686662446844193 -0.029311861590239845 -0.4386556532366704 -2.052292852775504
Ni 6.000786403177243 8.736208259097038 11.776120579265129 0.2681102667835189 -2.7114473415653175 -1.0731224094718164
Ni 0.12454495911491723 2.0915133971093183 12.14176043780894 0.9215059987126839 -1.5482746149726239 -0.509004121053246
Ni 2.723821166969842 4.720075960869456 12.276261952718354 0.5354620581344585 -0.15137267017944253 -2.9510353325394276
Ni 6.078789098610706 8.998192825286417 1.7716311874495394 -4.347446967959751 2.4632852357689514 -2.467979041700195
P 4.728128093635363 9.214327049435505 13.431407811192377 0.2104926162700504 -1.5591796919209018 0.919918599620906
P 8.838498434059296 0.9654132668520372 4.563496621469333 2.625394575639607 1.0754456582883543 0.5575678888945623
P 6.776646846952765 2.962576266424085 1.5164282023791686 -0.018598846048109904 0.469212957198237 0.6024760622611623
P 7.267929938068983 2.7406557422176356 11.965285776415472 0.5317195603728908 -3.387708922349063 1.2891778645416248
P 6.340043355084107 4.896455120223143 8.693930816897991 0.18517213522739076 1.5387965002788595 -0.01718216820624138
P 0.5905087741548937 2.1051926598662845 9.97727411936133 -1.0036157208302456 0.3013839412349842 1.046284977563998
P 0.7675480211364837 5.335764503218949 8.611393647163915 0.8132630698431801 4.591158751294247 0.5050453935158141
P 5.312628665934579 6.692071364075503 5.083452795588244 1.227856282814008 0.8342586982582406 0.6905833967230558
Ni 8.305025912427752 8.226452077344616 11.477587756969097 0.24778543918323778 -0.3313627469852616 0.7084109118227799
Ni 5.913392673831913 4.170939232124698 11.613048037454359 -1.6366606570172006 1.5530692081477897 0.652278073384954
Ni 2.634077338410277 5.97509448188695 0.47150293334731486 -1.6084826519210877 -1.2719630433252351 0.6183477391860963
Ni 6.995870842977143 1.8853507094668487 5.6084246993847096 0.11604339875052919 0.9137327825251683 1.3302144707679608
Ni 4.084303901330576 8.898777074462686 5.8104564556593665 1.7003525387492069 0.9354007544169051 -0.7736410845761837
Ni 7.740693123823614 7.510870273972482 5.12538568140847 -0.09139011897822324 -2.1733411609397923 1.5647340460802277
Ni 0.9727538157921206 2.351719003734136 5.601750792134083 -1.6600360985183475 0.23361069034475251 0.12489776381736556
Ni 8.109134375534355 5.2453559055589425 7.32359639172762 0.9339393393800303 0.847795556402411 1.4585084047510688
Ni 5.981826439397053 2.773088983963106 8.775741422094121 -0.33474143364950737 -1.6934164737510062 -0.5610838724676207
Ni 4.763754099651967 1.5894254673746608 1.1346513079957734 0.026772640108153892 0.3727783338175709 -0.3838060523866422
Ni 7.646398903956802 3.5390434318475457 10.070143298987475 2.4536145454484064 1.3247835295603767 -0.9139328143511163
Ni 2.7135406532756945 7.35491169783094 6.582053014246988 -1.942473837668132 -1.4244747122051273 -0.25519972936943786
Ni 0.2208709380633583 1.9421837860820352 0.9664038664411454 -1.2225585247501782 1.714704693705821 -1.5686624346003566
Ni 4.285569768697965 4.1110257465792985 0.1693232439439335 1.0586730668157058 -0.6398547600199368 0.9362533322251877
Ni 2.2839780961046676 8.411903930477564 1.9121062613178466 2.3490958595080254 0.22631672778650058 0.46907360340689536
Ni 2.6820343430928113 1.2164525502468277 11.39416017115823 -0.6675661098922762 0.7348395383279538 -1.149785249542194
Ni 8.685124030758907 4.10834794428738 12.770427894623667 0.1612372216783481 1.6435491566069178 0.5460071806401564
Ni 7.258913421960181 7.474944653713426 8.24213594664249 -1.6081684631147788 -1.1033392993748288 1.1084653077474846
Ni 2.78126283501501 3.320306308967153 6.743207088611556 -0.3193238135428565 -0.693466888918438 -0.4409835300388987
Ni 2.149395123573088 0.9701977317861988 0.23709973076469315 -1.520206138871182 -2.90306471819742 1.6123169380655136
Ni 3.754906130589411 5.310493914457106 5.272342722153334 -0.7107058785045437 -0.5050027132033367 -0.3429139421579707
Ni 6.222107698898787 0.11342178036387252 7.157467784643835 -0.46761604502476245 0.2159911774907764 0.4754381121723425
Ni 7.6221676020984654 0.7653299394478283 13.286683832848292 -0.12442956593169537 0.16541577853606995 0.1156839585285814
Ni 7.281478119594877 3.390434767591164 3.8700516291418925 -0.42041084809386947 1.021704974231789 -0.37300587644734473
P 7.773482157481995 6.0330042971859505 11.956528613885293 -0.7037312469589234 0.276060374868531 0.32684660428246287
P 3.363787825903055 2.1931762547514424 13.142781921081935 3.650566425374074 4.095372157372541 -1.7129717701751146
P 3.48009432964504 6.635088480339091 10.44063503567 0.41210232822817416 0.07706856014922855 -0.15203575768473818
P 1.5108516322915237 3.9747387180437705 0.031650499537063594 -3.692123937100886 1.0911676970093014 -1.150657110624186
P 8.652597159562669 3.6145649468356997 6.0850500999834525 -0.9278339978132408 0.024927616479615135 -0.8446755227161904
P 8.303153323412426 8.893927068912987 7.273358573624416 0.4249529589385972 1.8899348872291517 -1.4543421891885213
P 7.603104645922433 8.276262945152324 2.506569943473112 6.099746332089896 -3.2628846920821095 1.4112489575434728
P 5.084772034549542 3.2681734307804384 5.320333433438145 -0.4339073399184075 -1.5651695909557495 -1.7706598689152022
