# total energy = -340855.7608034663 ev
CRYSTAL
PRIMVEC
9.40040796898041 0.00000000000000 0.00000000000000

0.00000000000000 9.40040796898041 0.00000000000000

0.00000000000000 0.00000000000000 13.75844727040069

PRIMCOORD
 96 1
Ni 5.682264730813059 1.4603534103128504 11.81785944576279 -0.571307607078158 0.03226528779160895 -0.5857353524677138
Ni 2.174737429731744 6.541659446771934 5.6790328704817705 1.241727127258829 2.5507287113946004 -2.36204264947668
Ni 7.621794547545525 4.22330258091042 5.848647255343683 -1.9202211969175187 -2.2721152310869126 2.0425257460864112
Ni 1.9387589832619436 6.313323532150117 0.5956484037747313 0.31330743214544754 -0.9890460505461869 -0.44272802353383106
Ni 4.644769881530804 3.2334584006778964 2.815996613981776 -0.2734327074376968 -0.09424430059756671 -1.2310904734805894
Ni 7.115996185168356 2.842993646225596 1.6911193304484475 -1.2331486415611987 -0.5246821939101352 0.3603267383177794
Ni 8.361587870267126 0.461944518190169 1.3990138668756222 0.3797177412498815 2.4455351108743817 -1.2200326730045312
Ni 5.821353170201466 9.042741446779964 7.416862829162241 -1.877254977768638 -0.8510567436521859 0.2022458028802259
Ni 6.494610403845536 4.857360112455973 8.48275725158834 -1.7304778973796777 0.9576467102992992 -0.5186131048979198
Ni 2.7328114619817794 7.000117353569215 2.5197634311783847 -0.3255402267662135 0.018799649205006336 2.517609560243129
Ni 4.435046775099651 7.410463971316087 1.016214205250931 -1.2891143582935412 0.1233047082986328 -2.067163856350066
Ni 6.92685057223688 6.760933367911023 4.147304981002636 -0.15018482051892845 -0.7115129477868714 0.2693767922007683
Ni 1.4530210919347109 6.521674178987413 12.27878119954329 0.6957078624338148 0.10713375496572516 -1.7223727517740401
Ni 3.3288819440836623 4.2504509597258915 4.88529436539505 0.33255959550684017 -0.21268473882536276 0.6472605655657047
Ni 6.028227952954957 4.636807735804798 4.233859239293306 -1.0733982888410223 1.7970951802885953 1.4291294373683192
Ni 4.001481149155336 5.747682171317514 12.459471145319464 -2.0445430336267565 0.8677118357103637 -0.6408695744376963
Ni 0.7663193945157484 9.133549389770772 3.980594382226632 0.1081107741670138 0.5536333297268465 -0.23350321823261078
Ni 5.037791547007276 7.8638644585140876 3.1111017478039145 1.164273158745724 -0.22724875268246672 -0.11459921010483488
Ni 1.5061521989516933 0.8481537078606952 10.140759884069674 -0.17936889828205238 -0.5503688000429618 0.628642436243885
Ni 6.273785415357224 2.4320548027635667 8.037451455871642 0.31359642414077604 -0.4455978888824583 2.6691061575949453
Ni 4.73782452207594 0.8795473110089462 3.6547527337878214 1.5467923740001426 1.81016949697405 0.4734493638770878
Ni 6.895725820762493 6.972292145364992 6.525094987523062 0.500096534150971 -0.11930330044872357 0.764002275934839
Ni 8.943482536837939 5.827942856333615 13.534432261432379 -0.48390218377929556 -0.6043776501592495 0.9759979591129772
Ni 2.3373644911956144 1.6027601937877742 12.174520332410232 -0.35948084537771635 0.013477208550828401 0.4874464494871283
P 8.478340939826738 5.656554614448685 7.30841878039037 -0.08420208587021627 0.2532498047319187 1.5793011452611252
P 2.481153134672572 8.500516502716522 0.32276113467917383 -0.6328305061833037 -0.36038355969764385 0.29593191698147747
P 6.321417283590603 6.801082511235427 0.5381235459757711 1.8964924858420114 -0.42459094761348815 -1.426749110061601
P 5.229259060758497 2.2750491853896033 0.25868889258486194 2.7034116157450345 -0.9485570892932053 -0.23163582600656882
P 0.12154915781156883 3.0792729057570636 6.275475608747468 1.435908922183998 1.546999347804626 1.9718206662613653
P 7.627810808778871 1.7073209339416835 10.386788306921613 -1.1826336635307826 -0.8911721236158329 1.6308466214385848
P 8.806039168880526 7.550934270706527 4.074935938651214 0.49309233491899596 -0.11823192176141573 -0.15976423667724743
P 3.0157261464798513 1.8499251259883263 5.0712259787707765 0.03864548028633989 0.2679562577041579 -0.5876968470694588
Ni 1.564340725567957 5.232426998314181 7.133534526704375 -1.0082527053816248 -2.7064627438665325 2.077022237201384
Ni 8.049625924501807 8.786646126811164 10.460369061887064 1.1339020026530342 1.641444194448773 0.6079375995963658
Ni 3.254834928872627 0.8152795404245506 1.7452036388545884 -1.0457519878786634 -0.9463001749382283 1.0394538135747775
Ni 8.453241849993875 3.8082087570341114 3.4941777814290123 -0.04719594095951226 -1.0777573371406666 1.073567981649667
Ni 0.23788578928893442 7.664312593730559 1.3388427941748078 1.756543227008162 0.1576507898786704 2.100120256671428
Ni 2.3395923879335876 3.5116822814955944 2.8938968565046053 -1.1141204491507328 -0.9477302225165355 0.04428288107777535
Ni 7.901475491630674 0.048303057377222736 7.38239811266253 1.7290097974745835 0.8468396202470447 -0.4596659369397503
Ni 7.382601161479156 6.840348016191184 12.011881050415731 -0.6921175739793951 0.32237391322308995 0.5099312608532056
Ni 5.839138742472543 0.5999030285156878 9.646859618322264 1.1177305350994942 -0.8626596179984368 -0.8146949171937001
Ni 7.470109561199801 3.641201105359711 11.35685590843115 -1.336535527889982 1.1352826850506448 -0.011416983587690015
Ni 0.5880303129880075 4.221102885396978 1.5535904187766225 1.0385703825285597 -1.7813500016391968 -2.794804820047051
Ni 8.530832819087676 5.601985244980605 2.3075257155598563 -1.9514469877010197 3.8469421426267676 -0.09822231140870825
Ni 3.198235071238294 8.894374804520757 3.8810929417536393 -3.061412791253431 -1.193803564104673 0.7023353950526614
Ni 8.819735563594563 2.0216893842003403 8.742214157521271 0.21033243654310224 -1.605513799100751 -1.625700815571587
Ni 0.15394484447149898 2.5543729139640226 11.527680125825455 0.20300427831280524 0.7088857945766694 1.1607957417200847
Ni 9.156082168171286 5.493983955433876 5.214754230941228 2.626505292205283 2.351920473441014 -1.657060303719475
Ni 8.09555631885513 6.614522010552654 9.581561563001657 -0.996090358987478 -1.0242652787597972 -1.5902684429059064
Ni 0.19546362726730693 7.527884469856272 7.742649015192805 0.5683942900861051 -0.25655701472828074 -0.20459167740458314
Ni 3.2790409799286655 2.6881031206914803 0.47287907298177445 -1.8737749896398377 -2.1097282120748373 1.8318878624877482
Ni 6.642121608960626 9.055159385981915 13.151287604827587 -0.12990807254776335 -1.4081993720838715 0.4191988300636394
Ni 6.322347924000135 2.544417881704471 4.180338955377792 1.8319421127644513 -1.9495621119734812 0.05551757345133019
Ni 8.784484032930429 1.8820275199131307 4.871728636354675 -0.9508075758902784 -2.282492203445863 -1.4841528447920505
Ni 0.19537244330798906 0.47598120768021823 12.236157868786675 -0.4725366222548313 -2.0572532821045733 -0.01784139905679508
Ni 1.1162608693981961 1.0167199472108592 0.6361904841609383 0.6690398662243252 0.03361974493697435 0.014789756714664853
P 6.273644409234568 7.792994781266914 9.870337401998151 0.4419543785926001 -0.6825659257352179 -1.2867139763821647
P 3.4322394319909026 3.715802744653195 7.075927885354274 -1.577879068102618 0.09544963375957755 1.5739452802658505
P 4.24465090788062 5.50347836769275 3.3143413927153205 -0.811507520604654 0.696506189965394 0.037980078788199104
P 1.075660506481291 5.518161805265383 3.297693269833672 1.0692575271997713 -0.16721169409422815 0.384459369699925
P 3.9576658466418615 0.675957970913352 10.580892635166512 -1.7723105171447477 -0.428817584100326 1.2896622603772112
P 7.178819113015931 0.8954377609915201 3.1908454103702737 -0.1007515055884652 -0.5858261124093073 -1.5720436923677636
P 0.5063849478474204 0.21442143043806927 8.401527384489182 -0.8218194440536235 -0.987370462615977 -0.13144636356916073
P 0.7789469628200499 3.592168576307945 9.88859487475972 3.3882624808596873 -0.06528725124358434 -0.34095167622527733
Ni 8.50889226640232 4.103390974203302 9.038887279427351 -1.9861998178011728 3.2439186925025685 -1.2422230930586415
Ni 5.505631061165306 0.3521712517020563 1.5067839063811943 1.5440070979455214 0.33882794501405517 -0.3609276051265719
Ni 4.853111127959924 7.090408274110283 5.2584097265156915 -0.9412957797451014 0.3202972331997193 0.4776829423424612
Ni 7.504045034719141 8.088722222110377 2.263044864147443 -1.9128567861326478 -1.7555124717508024 0.7376988621536198
Ni 4.323492131261977 5.75392404234711 7.117395905945926 -0.17665561311594738 -0.7344027079008513 0.5284416609525673
Ni 3.911321834328747 2.76145450569741 9.740224472337244 0.6342731521671012 -0.0031699130875493795 -0.7364783594829574
Ni 4.102432132569238 3.0690828632930844 12.121000048494718 -0.13797310894408496 1.1910699672235938 0.5850565812331344
Ni 1.8584230949804268 2.2295512098124277 8.449296498681944 0.7277594915527208 2.2767858970897046 -2.003753253303904
Ni 5.276486711440259 3.3191807228448926 6.159148377678279 -1.106714643604965 1.0440440040486212 -0.16118117162943207
Ni 4.073187462730273 0.214350927376741 5.944570900464471 0.889086701841714 -0.7245373850709973 0.23457871068497665
Ni 4.053587611681014 5.757439795005347 9.774867796592318 0.8147949331066742 -0.15143129133151984 -0.11113284882278925
Ni 3.644444246180811 4.701050125287116 0.9962289374664114 0.9399636911972392 2.9246858960116207 0.7319395910723394
Ni 2.4479414925828693 4.426022383249632 10.903775975151987 -0.8068448250216621 0.05082351040977053 1.2196020132250156
Ni 6.679281422484712 9.187291523319265 4.9692071089879555 -0.07391870166633721 -0.0646771284634112 0.6465121174354542
Ni 6.023565350499115 5.2524310669150545 2.1159388166247863 0.42533373931678364 0.6679373771887658 -2.2250948964733164
Ni 3.6968421213599796 0.4467045764534507 8.376803370942584 0.7086898765157794 0.6627905428805037 0.5868290997525248
Ni 1.904278286068332 0.34896853263611755 6.915903796914644 0.02723929533192728 -0.5530869703050733 -2.2045872634382677
Ni 4.769485096816421 7.617742971621195 11.205416272738848 -0.9072716002808568 0.8683656672442787 1.007214751035414
Ni 9.206769169062222 5.2615682636631975 11.210396608991077 0.6559642639872896 -0.4955824483307014 -0.5005282223717509
Ni 2.440909987266397 8.006750662806043 9.18207147665852 -1.2991105502743048 -0.7553399722741507 0.768351039821838
Ni 2.4423576501256705 8.588476122029668 11.52824415031608 0.0329905959934077 -0.3234391212628107 0.8295322393168487
Ni 5.7867220664770205 4.733396929824524 13.097216456992895 2.393852852008742 -0.8527487866426281 1.0803893754468747
Ni 7.535000578846339 1.830362876571776 12.938223593330292 1.9325966877637362 0.22283545410611943 1.6026135947348206
Ni 4.076646812939447 0.20189444650126265 13.173438726656112 0.551812988688656 0.02171630863116905 -0.2436883862957287
P 6.858829218667367 1.9370575093818878 6.187957808618645 1.5915267407930396 -2.372061724275579 -0.6924718719950204
P 5.345579711541961 4.2194578139659855 10.861124443170839 0.015467756618295941 1.2876822538327048 -0.8583715321460442
P 1.0210911370132116 1.5894022137681116 2.8094059878088093 0.24443991974977258 0.3308760371568301 -0.1204662104085732
P 1.8069088581699058 3.6578304274250053 13.189095106475076 -1.004967863982766 0.8734227700522119 -1.2574892751890925
P 8.118060896031112 3.7326388756983855 0.09290893421839111 0.5298503683746358 1.1622872386639467 -1.0536036227125984
P 3.317808263251036 7.6809231149795 7.312174243457123 0.5323983316074702 0.34838910633992903 -1.631008858048062
P 8.712975127927212 8.336385375944316 13.473771427465536 -1.4584461840545657 0.3409179947738645 -2.0567280057287225
P 0.5342750188680654 7.286989609909848 10.410398372099223 0.8475808692884435 0.8975826551278672 0.1895576658895961
