# total energy = -340894.64507507725 ev
CRYSTAL
PRIMVEC
9.04370420943464 0.00000000000000 0.00000000000000
0.00000000000000 9.04370420943464 0.00000000000000
0.00000000000000 0.00000000000000 13.23637526214456
PRIMCOORD
 96 1
Ni 6.219382446689973 2.3827718526409623 11.53082854997629 -0.28501681273087043 -1.6043308345362435 0.2232056929613446
Ni 4.652940545424054 0.20463008412754446 5.812436562316311 -0.3878889642067642 1.215281788583107 0.013272805849506174
Ni 2.7211601292775316 1.7661268879868077 4.765426137128511 -0.02422801930942924 -1.2659566892301553 1.0195614455262247
Ni 3.6127789173577995 4.288651100220066 5.003323486820039 -0.015510436930773286 0.7098990663325322 -0.3611178667605071
Ni 5.358403728130104 4.4609517508997 2.8121741586870277 -1.2092242695351174 -0.4125946944835604 0.242313360325073
Ni 7.314511708329125 6.0774505544074735 2.503223138924393 -0.12331087894621988 -0.35502460937857566 -0.10545919547677965
Ni 4.912042668139336 4.604493422513556 11.258225081397075 0.016611640414752035 -0.09908234541615839 0.4263585810368722
Ni 5.762413121779661 8.037302628107513 12.404548038884545 -0.3668835655996907 -0.7198664619578893 1.080426142222081
Ni 1.79909118946315 6.432551596236987 0.23303545436267292 1.2697945749190067 0.694702818208068 0.8501350031688649
Ni 2.905660736799852 1.6900060305035782 0.419540146715489 0.0026112123706019544 -0.876781916332432 0.5379889383213702
Ni 0.5742914895721225 9.078703243636664 4.713499901247382 -0.4432376161803979 -0.03489964009066248 -0.6168315596518861
Ni 8.836051618695171 2.3368479231768013 1.2479877572258262 -0.8197075399169431 -0.2624371276581416 0.5743831606796882
Ni 6.973989117522894 0.6969611964734267 4.725743267869788 -0.8339851328818797 0.13037164244774324 -0.9668067795320122
Ni 1.0925065874476176 7.4734005458155055 2.561318085378091 -0.6378477568922369 -0.4077198828897623 0.06079399135892111
Ni 7.65014165521253 4.00417234377567 3.7483557987630913 0.6382789308923845 -0.7589546862086026 0.47187507741143253
Ni 7.745670301713107 3.708976797962423 12.491987996430272 1.029560722830782 0.898226459359453 1.0221878274054783
Ni 8.034490036129695 9.216167546089448 6.7292275964128345 0.36112172341524906 -0.811427559296338 1.1026106487389205
Ni 6.99898591567944 0.6869335373576603 0.5790195380801697 -0.4119007537403293 -0.13486413100145805 -0.862299920666173
Ni 1.8610405626079907 6.344122257461768 9.19791735119802 0.451977310046241 0.386912716336424 -0.10496040146349019
Ni 0.18499168065542454 4.721763133691534 1.4255310431772958 -0.8396405313954444 0.7646854180447927 -0.24903808064341626
Ni 6.201575393299873 1.726569726215197 7.161024675306893 0.5193684950067056 0.9186222494069857 -0.5208720761354256
Ni 3.4592529964079 4.31401869024507 0.48758588080002846 -0.37850752299186424 0.054170058284500264 -0.4955217702960949
Ni 6.04764250566508 5.625491441573399 4.8338580373784925 -0.6214325487590072 0.13625021271570728 0.7722555170825668
Ni 5.288296933879183 2.793554980667962 9.39633079312122 -0.8888792138165982 0.18649291092134335 -0.8304092426051634
P 0.13870419428609268 5.5544802769116055 12.518367576945042 -0.8919377981372638 -0.6774607432981686 -0.5077229403479772
P 4.039433746095631 6.15145518512926 12.638435410174262 -0.6872782436092228 0.304810707528346 -1.2733694367544586
P 2.519802057296528 8.485002156306372 1.3081139196223457 0.3797233976768364 0.35288879398249545 0.009307907664487195
P 6.417376260742528 7.889627983715965 5.823686930227578 -0.867444698091906 0.28644068966159053 -0.6856196249598773
P 4.903306449970297 1.0412830473757377 12.652717227702778 -0.21730629675777413 0.2189111793510488 0.0464498068221071
P 4.0660403235835325 6.080516370100335 7.9302694856102125 -0.6685948082671067 0.002604527502382611 1.1122759397428263
P 4.735618088386118 1.0584027792535746 3.6340198651979874 0.014432887595878368 0.1418631880271105 0.766263818275506
P 0.34063654147800126 5.553313639081578 3.521272910444788 0.01963448640147586 0.13795228300847853 0.18358165081181932
Ni 1.5262516802066979 1.1251181844637193 2.488703471977818 -0.33995691641217585 0.2641461399294483 0.3113785905538508
Ni 1.9281991093194633 6.538815119514633 4.745703627208179 0.19179709674307616 -0.21791539109668276 -0.9161269937889576
Ni 6.021831774138748 5.822879327450668 9.00957678691113 -0.41891857981905917 -0.31671902893015774 1.2540509389315049
Ni 8.74098420110414 2.319131306827788 10.304822419957155 -0.4131173997562498 0.31547847165483733 0.5212094048701862
Ni 2.135209496368427 5.331109829129939 6.802835208524247 0.8393232572653415 0.4774042347597778 1.1976957000702275
Ni 0.5165239252071614 0.00477688451023428 9.37010947742835 -0.063321128656149 0.07045748259061414 -0.17889041598373706
Ni 1.6408173238561639 0.9235882821046493 11.625428408064897 -0.8742000145378686 0.18996261463749867 -1.2088481171426213
Ni 4.006152914975483 6.682790888925709 1.6609666966104273 0.9881600483968077 1.8022893228950252 -1.2351497311516275
Ni 5.5391692858555155 8.023465760821146 7.976702575615694 -0.09481868504379799 0.44648697635563106 0.09672232982441407
Ni 5.352760456766252 2.7094033139361753 4.841323615120254 0.5397802258938381 0.47654317231106313 0.5039351911707708
Ni 0.5612577032106124 7.423054245042173 6.557220866116733 -0.10095230874536162 -0.3523468054360964 1.2386104360067185
Ni 5.187287802688712 4.269388010468457 7.281051811867624 0.7060609235333647 0.5612417382017237 -0.6798235871033905
Ni 8.079310633692591 7.1977484445812365 9.118512724752907 0.016670261566829353 0.961619321793802 1.009760657385719
Ni 4.492460016014537 0.39039771459549855 10.382732122113094 0.13659499764963573 -0.643388227094492 0.7711427436343623
Ni 8.059134129826 6.955286737426028 4.627754733851635 0.4066387340104416 1.3173720675876537 0.03941732545535792
Ni 7.233769518046332 6.438809839480232 7.033015565499791 0.4099078916800166 -1.7005898515709936 -0.3929357826020523
Ni 2.4183226534924027 5.279596890526578 2.467075453601776 -1.3782437062620456 -1.2116074250553133 1.1088329754995483
Ni 2.3270988101475845 5.038564088620552 11.439762067082963 0.28998084160436516 0.9560942782105146 -0.38549243895012963
Ni 1.1511007463681173 3.4400622562891625 3.906914541049503 -0.4388718830125345 0.08586199007114245 -0.9061254024915555
Ni 3.5486138367063185 2.7711085070700796 2.8399301909671486 0.4084858145215094 0.5635881269467132 -1.091607355649881
Ni 1.2552842177007544 3.4811839788715844 8.203455368734028 -1.2998790530092128 0.013625561203234597 0.03553881633655815
Ni 3.6483206745051313 2.593888081355292 6.9827832153982285 -0.01006741153833105 -0.6743021430645291 0.48839364389174594
Ni 3.9851172592185637 6.991995132403387 5.9450651961821555 0.42586312945769234 -0.6333874071280382 -0.31030592631496234
Ni 0.7063684574873336 7.307086827255853 11.396611841668951 0.606820198162471 0.48640181027269785 -0.669967263134601
P 0.14142544485241132 5.703620001368769 7.99069409024232 0.4675162862221045 -0.6380130788255077 -0.43768351913138814
P 8.271923443800446 1.7078040401895704 8.245388311575004 0.7383483228121607 -0.4420348541215484 -0.7992996656845526
P 1.689734719380316 3.2482452921428746 10.384492026932653 1.1404266911454295 -0.13016081198851776 -0.5907004097824731
P 4.061626995978469 6.0375587755838405 3.6940999047035525 -0.1682452775650651 0.2633853505040238 1.8765299266771556
P 6.807367913023545 4.023607263905343 10.216072934056488 1.1917225132059281 1.42263225967975 1.1726649823538449
P 6.2993287910112 7.833674586395216 10.339038370082147 -0.7000689676159878 -0.9877476434497376 -1.5825322506039134
P 2.2885726306443694 8.594774636778208 5.879703633477088 0.895494919360903 0.135577869239031 -0.06673915319876247
P 6.997945889706935 3.9549926808323645 1.5676103478367687 1.2904125082796742 -0.12613112200383436 -1.033319932762898
Ni 5.285972701923238 2.9211073834175725 0.5844493780270547 0.02329445175156633 -0.765531825205488 -0.37779481319555575
Ni 1.3816699826203378 1.0806683787692823 7.277967908766546 -0.8265065651166474 0.3778436641556202 -1.6137325874661177
Ni 6.635257180130193 0.9000728426811143 9.53953513457182 1.3947964684144043 -1.0301420492555484 -0.7523204687215366
Ni 2.548072676340436 1.4830951241998105 9.200697385841044 0.5507179558522645 0.630657924012017 1.0540630788475203
Ni 6.468735456376039 2.0694075052732646 2.5114040736611556 0.583120540552686 -0.802280088469115 0.9903292881339847
Ni 4.0957398478766205 6.86256163919916 10.33534582569455 0.1850309816638362 0.007922597281186355 -0.01590201594223713
Ni 8.09755178487991 7.230739877169905 0.49935264421590464 -0.32451975592149923 -0.8446742371646099 -0.9923566029766586
Ni 7.616318201845859 3.8979540390185674 8.167306779041 0.717610576044177 0.03946129131941591 -0.17347387295385608
Ni 3.31223854241629 8.396337681224326 12.321172321965289 -0.22856104373598699 -0.9227794661084688 1.1472010337547855
Ni -0.03127493754883034 5.131424842409051 10.222531947530946 0.1520385858982156 -1.4922410211168236 -0.13496029025969017
Ni 8.67602327449109 2.3437663568199842 5.678153834968978 0.31962360417146246 0.48553663405892517 0.28823300567532295
Ni 3.5681030190606444 2.456993532261357 11.499895464442769 0.4239530569191731 1.0606150210334249 -0.6622768364688787
Ni 1.224752672629662 3.1998162566405943 12.500472799625086 -0.9089235340619831 0.0181419610163494 0.8821231260396872
Ni 2.968351693681609 8.300935646581271 7.987252056458535 0.5675447976016161 -0.3452431045117796 0.041064374140477665
Ni 5.348817401774843 7.950736292378693 3.645694382831955 0.8037481883742094 -0.7413125476468071 0.20239286998105144
Ni 2.96526779058053 8.629041231646209 3.693359225337047 0.6793551321074042 -0.5235305968041951 -0.06324091023751689
Ni 3.4532298894714817 4.147849670951157 9.204178307552496 -0.7042665506371032 1.2199771371762473 -0.1484827502261572
Ni 7.122387258243141 5.929188069248857 11.510987567532133 -0.15860544048245587 0.7104084018687831 -0.08700561675728241
Ni 0.6533813951142502 -0.18299663952903744 0.31111427378544393 0.0214154895612986 0.2713390581334617 0.4161505301556188
Ni 4.647270142947876 0.3087746675325139 1.5845130308159963 -0.1923650534314042 -0.3926581034606334 -0.48939740256591197
Ni 5.826686726880446 5.409663443018418 0.450144945789862 0.48238960378951107 1.1078664978212212 -0.43498026126761213
Ni 7.928778178802682 8.7853526134616 11.345214662478183 0.5346840423178534 0.27913181470500315 0.48162238660618345
Ni -0.040475097738647325 4.997315754180607 5.768279772634997 -0.3726875738759775 -1.0159678146376954 0.11333628423201125
Ni 7.997437980396205 8.489569226881283 2.5847195741298554 -0.5105179865946111 1.062852909225008 0.4091805265956888
P 8.565979482895994 1.534228227230603 3.4566664970328014 -0.10974213912284972 0.5201668225382848 -0.16261456164184898
P 1.8019037814409669 3.266757754453457 1.5345592268009827 0.824238080797445 -0.5112304392806034 0.3525370670700316
P 4.516914191924558 1.0436524978522266 8.30946566829663 0.03812997410250207 -0.6354463465395959 -0.9935580794839276
P 8.650764208915392 1.4270512898379744 12.494542842840989 -0.3408138650958324 1.0032344262314272 -0.5828323198883059
P 6.129234804134095 7.653487825732762 1.504525989826282 1.1207322980402956 -0.09920061616157755 -0.21830362767403694
P 1.897622345727827 3.3306605676857846 6.0082417999745505 -1.6562383220388122 -0.15318889745257488 0.08801323208619037
P 6.994400757696311 3.8582973965017606 6.022576975357309 -0.6075925575521214 0.14783123268508733 -0.8595830359556421
P 2.465259477816742 8.421651009024677 10.204570246800586 -0.9537787427034604 -0.5230695980073766 0.22101485595761292
