# total energy = -381172.14028604416 ev
CRYSTAL
PRIMVEC
9.22274438771314 0.00000000000000 0.00000000000000

0.00000000000000 9.22274438771314 0.00000000000000

0.00000000000000 0.00000000000000 13.49841866070378

PRIMCOORD
 96 1
Ni 1.136740130620885 7.648735452710184 11.888881094756652 -0.6905918813634881 0.8470064848422123 -0.4865753597360846
Ni -0.06779454907887777 1.145178941690044 13.214169166072258 1.0657394867441838 0.13767794630116933 0.7159162190608896
Ni 4.537645550702283 2.4205922561752713 4.663852351045115 0.8581583876939737 -0.5788499382017902 0.6452929003163725
Ni 3.8255759058633543 0.1605218652007765 5.563737650678338 -1.1489516978973051 0.5102271948270696 1.0489805221182902
Ni 8.556806860217709 8.816288772163922 3.166728874049456 0.27643421326818196 -0.06743052283883226 0.7929757803490537
Ni 6.277663833952482 7.646226866250282 10.941237658118592 0.32373865478110053 -0.360095853253896 1.0659346334741253
Ni 5.460916040878631 7.58784689459151 6.7837656185913024 0.993559107925192 1.3373737075205614 0.3396897787937182
Ni 8.25217961473758 6.4433504359824685 12.485929283585728 -0.742356158419973 0.3097783359462665 -0.1848368633751591
Ni 8.309747984894617 1.9561994105300715 11.0153848334974 -1.521923635782921 0.1071322123038284 -2.5049106246192214
Ni 3.0898222535647535 7.405771475873111 6.690815112056427 -0.9803343817048019 -0.674146077102639 1.0159822128153986
Ni 1.8857007528113279 3.6416098245556907 9.036745563718837 -0.9660112802139106 1.1966114658671134 2.008010485918361
Ni 0.40191613095154255 5.446233431892728 3.3084354185265257 0.027322856184669075 -0.011962828788831011 -0.5444616905299074
Ni 2.644188469902799 5.99478381962107 9.144071561853163 -0.9848042445506977 0.3973153997269867 -0.4859122722307889
Ni 8.885533136652715 7.942839546900794 9.654636232477085 1.2553660581985027 -0.9762303868387575 -0.3087884612291714
Ni 4.63760165383621 5.489322093439297 10.148542782277929 1.3532333002606372 0.10937601403268259 0.973170259856195
Ni 1.2152533531692453 3.318177403370627 2.308998894235808 -0.8083959715588658 -0.6501008632279771 3.105065752056691
Ni 3.8487895533617946 7.86247255274052 1.9866031095143222 0.32906752319318167 0.4565890977866394 -0.6260404798446637
Ni 5.601350768911508 0.45255545328753244 1.6289081931140397 1.4093784799936373 0.2587360246574705 -2.8516321134487406
Ni 1.8084787144702708 2.5669110950957146 0.3951752271149871 -1.1877519585939544 -0.2654504605631686 -2.231317223233944
Ni 0.6907844731815386 1.3416141733425195 8.402212452802887 -0.8303963870893569 2.706317733648236 2.1006568459011885
Ni 0.680539848771023 6.617355953405225 7.664699100884619 -0.320918411723486 -0.18750001202961902 -0.892221905036586
Ni 7.203968607015991 5.624887212461774 1.8934367907619405 -0.26955496964984543 -1.549576878723815 0.48553586272797666
Ni 1.8708060207056538 3.9078981218232585 4.9644215890165775 -0.34969034164985585 -0.9347487226552031 -0.3822343370241481
Ni 7.845428921204121 6.7212409456270885 4.078830620832632 0.9716939324209846 -1.2512340383079998 -0.6049450926269453
P 8.036044601179395 6.74501718053014 6.23991421910311 0.9721045375958419 0.300965622750643 1.1077762521002599
Ni 3.144264113391251 2.4904914355120527 7.058943719126152 -0.6285917855116078 -1.0234942049217275 -2.098069287679671
P 7.5790207282601605 8.981652578142086 0.29972443459011283 -0.9175133326135232 -0.14187090133659438 0.3529816108066179
Ni 6.279351596166313 4.42062737054328 13.248684364482335 -0.39469698826753313 0.11500235908052453 0.699047468330009
P 8.836551141474242 3.340625563089023 9.058842336877959 -0.18489188498281062 0.016133929447385117 0.5408138093646752
P 1.4327533328894355 7.710352607631551 2.007066534651207 0.4207954851267979 1.0590106526607825 2.2113016993439656
P 6.4596839162048525 0.761884453831112 10.904224940541818 -0.9086229721024287 0.07252773485608154 -0.9770927348390527
Ni 1.0463111223879857 5.1651887436845545 12.139748963491284 1.347496654887176 0.6218015020626517 -0.40369404955982086
Ni 0.26036360630491473 5.5619973188217795 9.868910096227884 -0.5649394987682851 -0.7678666439862518 -0.04067176668774931
Ni 9.0855744613413 8.955026515238629 7.439396679454583 -2.313873031749989 -3.704526424530297 -0.01727652769226057
Ni 4.211566201892248 4.7071964826098425 5.223037485269463 -1.511310636153765 -0.3431340285885768 1.9038077885565021
Ni 0.9713394336653708 2.810050304075207 11.570642000908247 1.0292411347078338 1.5929557599300825 -0.46240107648272627
Ni 2.7537454498924587 1.6337353775004853 11.973043248211962 1.712580962494599 -0.7528858543067033 -0.43638511203493874
Ni 5.733208344710158 1.7159653660170107 8.949127647960122 -0.655255153735407 -0.4766136205376824 0.19553496651895358
Ni 5.649060025371353 3.3529102585470776 6.721119205401829 0.34551307034371465 0.07354820570079591 0.1861661237095439
Ni 6.330897514270716 4.018515717411774 9.150847512118203 0.4238111320246701 -0.18191377619109317 0.80671678408423
Ni 4.318393249557896 7.981353727255775 12.409312257273234 -0.388972169968614 1.1836921867022838 -0.12894519441386182
Ni 2.1022046761430273 6.708771795282276 0.3956631102904609 1.4432887595878368 -0.19793611976127845 -1.169565774603231
Ni 5.777173166968825 0.9563063603946288 6.485895877887537 -0.036903043673936445 -0.3732221062232088 0.24320039091571666
Ni 6.83943963706134 6.394534450202078 9.04960944752131 0.17746936726649434 0.1324084703721139 -0.2831211383700543
Ni 3.1721721377576717 4.014568382835162 11.20526638302338 -0.9617982705738274 -0.4588231293234808 0.037635550964586796
Ni 5.9339044842467334 3.001164012244727 1.95689296090428 -0.1579166419455474 -0.09817654577243737 -0.5721727832919308
Ni 0.4041803146864917 8.241029316833083 5.369953958023001 0.3953222805563579 -0.2793848112560737 -0.7455281283900514
Ni 4.732881825590835 5.642355090237715 7.750022397852068 0.23145430612338205 -0.9314919062808023 -0.38659312821347613
Ni 2.46259263388997 1.480582485025674 9.58506538283873 1.5345451812016733 0.7796276411769218 1.2890829908349735
Ni 5.316257295939005 2.724334118198964 11.277361497787009 -0.31329354818837657 0.5340070708554868 0.03858300247952065
Ni 2.7571578652974735 5.928675188207156 3.033796848535443 -1.2023002887217744 1.3286908350345825 0.14169452365973015
Ni 2.5139079833859266 9.127584061800336 13.514482011751127 -0.8056603177952577 -0.40250517145804227 0.7899079400570074
Ni 7.532879338337755 1.9469582207035174 7.648918985322508 1.6960896497077953 0.7849966187983191 -0.23101927546849246
Ni 3.216413642346475 1.6998624544030747 1.8544799186787413 2.1611592741616197 -1.7700541170104034 1.2186149667213981
Ni 4.09983265423885 3.1767281734605834 0.3621679474041535 2.0501462387461467 0.764745838969083 -1.2211606159613873
Ni 8.173159141250636 8.856868847250588 11.585422370984132 -0.1576037386908189 -0.3587912755098595 1.3868967539513535
P 8.072142422517851 3.4969049658943763 1.15013524449722 -0.6867460252548366 0.7897079082310593 -0.7888499311061382
Ni 2.28852255725685 1.7894890838785786 3.978550799372445 -0.771004161173969 -0.552674565358003 0.9373424515243083
P 5.006400754419299 5.322510316600087 3.4393024715832876 2.0675191828069552 0.8875802924995164 -0.7856134264467115
Ni 6.752552162654187 3.835610251702966 3.9582626063779793 -0.8623587989285665 0.6717724346641398 -0.30628472097071124
P 4.3808220059809955 1.062238801859502 -0.14898974568069315 0.4966592263346478 -0.602081397925905 0.04013903411273087
P 2.7635400043792857 4.992123946184263 7.103880618638031 -1.1213223662158107 -0.4270774614807677 -0.7424852277986697
P 6.557583347351433 5.376297361578595 11.236988012173512 0.43155349497425033 -0.12356567526950332 0.06220012767782836
Ni 4.451422113887456 5.520891547307855 1.3560108772539479 0.5693522831240001 -0.49867188588930245 1.1918191866847927
Ni 0.5518143169495167 5.0292454921442244 1.0325221973284233 -1.6143910469857228 0.5793340769270603 -1.2165801956795563
Ni 6.865770572145983 1.7793071741295605 12.89274453632955 -1.194151691472711 0.04974184730981756 1.422646143636821
Ni 0.36498088442720644 1.5030675357214218 6.194073490646119 0.9280628259945952 1.1282010956135151 -2.776337614480799
Ni 3.4968772976613622 3.7777283082384403 3.0884517537561447 0.39535236246334493 -1.1898016420341315 -0.9853356915741351
Ni 1.6676012947091754 6.112106350343223 5.182110634995694 0.07598046929137238 1.261921342818517 0.9790017789363074
Ni 7.529586818609132 1.9318513654780722 5.054293543491469 -1.308402774209508 -0.7200623800187793 0.3803787718726481
Ni 8.566804315079969 4.5835840402492565 5.207649336341714 0.832783913484927 -0.789211428210615 0.6345153500848943
Ni 4.944128784649943 0.27592422055178345 3.675646362534631 -0.5219642807583398 0.3436065973496211 0.9633355331539603
Ni 4.328123244834358 0.5679347517776946 10.495979240151188 0.5544887357486064 -0.4930069742940413 1.2165709397081756
Ni 4.284379768439799 5.6793198495439325 12.686353352164335 -0.049680140833946694 -0.17166150233546565 -2.219979943844254
Ni 0.8298754473643867 3.646876011572619 7.13282066809586 -0.5075643032829258 0.6592892145954645 -1.4186671043844148
Ni 8.26948148311544 4.035596239925526 12.18604806234187 -0.13237736002386236 -0.4052194850654118 -0.0126264305147589
Ni 6.181378383065029 7.731186787090818 2.9526579106740884 -0.17031424427895187 -0.7782479872205758 -0.9032673642174701
Ni 7.085133546222425 8.543470771905136 5.149713900960028 -0.6025166856911107 1.1683558134555296 0.7064841271137123
Ni 3.9494926987870906 0.13255758209389487 8.047379353970648 1.42855093915703 2.4933370608490093 -1.8730206279723163
Ni 8.045276568261611 1.7113263256150577 2.4677269356628675 -0.3899749002015155 0.7579794667795269 -0.5276988692492718
Ni 4.290586675379192 7.1153841476506665 4.642092208054324 0.6110512055246831 0.3998057702490082 -0.7057086824002684
Ni 8.641840563012948 7.435090580123227 1.3475969675945012 -0.18041430882743123 -0.7365588350119057 -0.37483778744976093
Ni 6.350034708771814 5.561766750213332 5.6315405002271195 -0.2085501478316989 0.15395611463590259 0.5601176518996096
Ni 2.218116126981485 8.453152436604292 9.022140425785372 -2.1831504337207304 -1.4622889548394236 1.1660598183325015
Ni 4.0451694485482435 3.3058650396795595 8.83158377137386 1.9925918373704459 1.1661516067153594 1.6966596632786521
Ni 4.643485764723777 7.829012436282697 9.397099397311727 -0.18475227408115277 -2.3051834743957915 -0.5482437832801591
Ni 7.94899111737416 4.695437483579047 7.605832168324807 -0.24164513061345483 0.7578714804467529 -0.7042878907933419
Ni 6.103492307131644 7.148918046063194 0.35930612983610977 0.4437230404572487 0.6692946625476086 0.025332051006885407
P 0.061888303604900344 2.5340227887868396 4.100266123222729 1.3592604802913237 0.7097517421213906 0.37969382999048157
Ni 7.05029001811392 8.938028997423919 8.76797911504768 -1.2784620207860176 0.04443766148808476 -0.16494912331229658
P 2.575598920261996 4.581490477284557 0.2019282981801161 -0.5121246689600987 0.4531777581122453 -0.34125506639830905
Ni 2.423488197897365 8.671325676661146 3.7587156207859036 -0.3598978783104769 -0.9582887147586723 -0.2730442137500266
P 0.8589981071601058 0.5288884190744182 10.942439381705816 0.9251428241343228 -0.15553117243250636 -0.3874711599430553
P 2.8977493799840945 6.74697240232977 11.195723609456975 0.9864654343032043 -0.582304472409294 -0.39813583874575303
P 2.059300469483216 0.20376731340108908 6.889106882144117 -0.2898432875852363 -0.05694659258837289 -0.2470616736433358
Ni 1.128919243422364 0.6820468451958324 1.918489453481354 -0.6258157654283674 -0.1011274008706452 0.17004453555733295
