# total energy = -340888.40071392065 ev
CRYSTAL
PRIMVEC
9.13051688036053 0.00000000000000 0.00000000000000
0.00000000000000 9.13051688036053 0.00000000000000
0.00000000000000 0.00000000000000 13.36343438119648
PRIMCOORD
 96 1
Ni 6.327831546568528 2.015735038719713 11.370491738390617 0.1183674188980155 -1.1578523428210445 1.4241831491066375
Ni 4.805838328275628 0.2280793938175856 5.890588450356136 -1.7630388620348347 -0.41437338365053794 1.672884158125609
Ni 2.7521294706500217 1.5577574521602682 4.548685543219729 -1.1456588860786463 0.7519384027917695 2.5372921262737207
Ni 3.4726459340596882 4.654463492103275 4.945526103087187 -1.1612112319909484 -0.3141232431785235 0.17082923624215743
Ni 5.101310978819901 4.531466301797602 2.8664964965820836 0.6071428716092124 0.20044963021175155 -0.5860194593670359
Ni 7.341620206000631 6.217954908743683 2.8150341653728286 0.07661013245557129 -0.562893929093166 -0.4548610593519392
Ni 5.126657293146125 4.547088615850977 11.703467986231345 0.5888199049303084 0.3753530365232826 -0.09749391788311597
Ni 5.731544893217431 7.440786747750309 12.368980391008437 -1.1561947526129637 0.779228091745658 -0.10629326134230081
Ni 1.4644253105742986 6.768652892270994 0.6009605648437458 1.126009487278835 -0.029065807017704778 0.2817329997732761
Ni 2.5989833142401735 1.5962243189673206 0.30589878755043814 1.2727935096463305 -0.7238254466056373 0.08538736442756907
Ni 0.7846272993869748 -0.2014602854650386 4.920429964918219 -0.014692054794535989 1.9760097646420485 0.0014896971716490473
Ni 8.625206503050011 2.414848184190844 1.5685597664539837 0.8991451145189805 -1.0180079849961756 -0.730760997383206
Ni 6.599637897857192 1.1633830448502718 4.880740521926626 2.61529039732607 0.004853471437559383 -0.6898694013751667
Ni 0.6920822083395213 7.64745599298592 2.9965232716859416 0.3919276530525121 0.6457878376749201 -1.9746997875813734
Ni 7.9071004960460085 3.488350422763256 3.6736752591370476 -0.5460750577636144 0.6542007443289636 0.5677265745951191
Ni 7.479098395773663 3.4676880634980387 12.89992358862933 0.64784729130711 0.6591575741136066 -0.6341286561694369
Ni 8.215803265271369 9.26647008160679 6.6244016852187135 -0.8646000295542594 0.16429066379269122 0.3848010693100598
Ni 6.5817512156651645 0.27203552725753616 0.041458937125749544 0.4542864177953918 1.0896736289622782 -0.530170470718216
Ni 1.9360073669990432 6.690760454404636 9.253523008943034 -1.4253843685035903 -0.39449849910348184 -0.9745069763897474
Ni -0.034816486235141754 4.791138196407753 1.407677323254291 -0.13533232888712823 -0.3383558904736431 0.844494774163952
Ni 6.406217032336044 2.0734490347053236 7.153179124281183 0.9747180639592891 0.6435751462943174 0.13648469732401658
Ni 3.6042440710855717 4.265010433288176 0.6789443078769846 0.96235928528362 0.7324612679037643 -0.34900719953990217
Ni 5.964327416181067 5.6880927642986645 4.916660887629362 0.8305861345026598 0.41537045745648465 -0.29342663406112046
Ni 5.234580000399711 2.8237218520015754 9.523424734450558 -0.2183599348332691 0.5362799260500635 -0.9035581559850115
P 9.400597371755282 5.425846063982462 12.781336437884018 -0.834747464969201 0.10861393905567746 -2.187213033825878
P 3.944237121001121 6.212997038182034 12.844358003220432 -0.10762817810364045 -0.898102532187079 0.11900839491612408
P 2.382809201132228 8.627087389487764 1.4981214824118079 1.0030055980500725 -0.5297035583841264 0.49954631807445576
P 6.595684384131236 8.054713559342856 5.904646706900835 0.07834665553070377 -0.4475115609654035 -1.890105865589377
P 4.4923237767556286 0.8709928567399082 12.29997194587962 0.9675500854559401 0.5527923218827899 0.7799875956195018
P 4.330293627608239 6.229158052720008 8.439476271735266 -0.8459158228811948 0.25493284886129647 -1.8273089848678143
P 4.670341460623917 1.090603696329262 3.9232506283934754 1.1880795171367022 0.7896320606878013 -2.285971420243715
P 9.388088563892559 5.623476097696835 3.4773664111874467 0.44844410008200186 -0.7688943139198178 0.6642164766937529
Ni 1.5731971558798803 1.266904843060184 2.4462699443213425 -0.579025544547706 -0.29614608987481256 0.728547791781971
Ni 2.070070743530719 6.86797465280437 4.889800733636249 -0.7063373171232029 -1.3347645520324884 0.3537531988653198
Ni 6.335574224720054 5.856340795310664 9.220702453655916 -0.5441616427909854 -1.3720365490100692 0.4350213989181927
Ni 8.923144393100078 2.721113105460476 10.21373927475926 0.19074345866758116 -2.4412881626725693 0.12446787536879853
Ni 2.3355222552044514 5.527779152288642 6.977329938126323 -0.06337923558759406 -0.41479555878962115 1.0041330267862967
Ni 0.6710491500967665 9.25505693574664 9.440998995048549 -0.8793183096010405 -0.5583394769532642 -0.43990160982862947
Ni 1.3724079633914184 0.9941489180359552 11.53034517235956 -0.08895322740195648 0.016930457206751487 0.10497325697929663
Ni 3.9842470451284657 6.870567719543797 1.6472967771139924 0.6392392379231249 0.5656475805789033 -0.24447514386308217
Ni 5.865973490416631 7.947877383575155 7.899526732453212 -0.8673107436172032 0.6474796235550462 0.9318251212505049
Ni 5.089916093993127 3.0836128790122426 5.075499008142584 0.6122393122955133 -0.6707799888438836 -0.21733483600286443
Ni 0.7412728669967714 7.787764642932271 7.063483667492092 0.9866428404213331 -1.2874541969822988 0.5832971753398664
Ni 5.217460281609485 4.462010461351068 7.273102069617966 -0.159553406218022 0.4678356172347362 0.21456318679499822
Ni 8.152026606204846 7.484302790285892 8.866398231883407 0.7646941597955411 0.19819502984961995 0.5719095023282151
Ni 4.915998012117804 0.08788031007149268 10.098440023073339 -1.280086186653002 -0.14659736027798626 1.0495153115758378
Ni 8.531719142680343 7.0532510974397145 4.9324165072263835 -1.0371357069645621 0.14169195255656886 0.23369373697686205
Ni 7.3450806718254285 6.237247690505682 6.842452119506067 0.5135614014066252 -1.0193593568177477 0.5972160994138038
Ni 2.433784875802006 5.432958736482509 2.622961877166516 -0.8165893060029357 -0.28872922858545114 0.44872615009879496
Ni 2.276767380316395 4.927858553295673 12.03597766466931 0.4944997567894839 2.0269350907370063 -1.2063924565132773
Ni 1.3627843988021393 3.51092106001629 3.6467338435454097 -0.7683286712243348 0.028543615965647615 0.3750776713747089
Ni 3.571072903957629 2.7220992012627927 2.623723362258305 1.3928097770016787 -0.09618445504307306 0.1478829118586292
Ni 1.1744583615929622 3.7021962541157296 8.337981448230117 0.9152942134750172 -0.47908984999231685 -0.29852821695374393
Ni 3.381450333378739 2.8296749488822304 7.064539155221239 0.828229204234709 0.05597420137277456 0.5770864185434642
Ni 4.126463973062633 6.898753624560025 6.072210862212895 0.5930632535876946 0.6774244907435946 1.4040791792679108
Ni 0.830314578790993 7.26471386393659 11.464904020100791 -0.11022267830369405 0.19009502645030488 0.08233237965132917
P 0.2559283827680225 5.820046991475385 8.057642629096405 0.7896127774140917 0.19497960823611582 -0.5296233399654944
P 8.462829394268473 1.6970252232041727 8.1466030792921 0.3203568827930612 0.5539174366261687 0.42162080924157064
P 1.978062526864527 3.3262746210324257 10.472856033954773 -1.0177033092715633 -0.6174591659335559 -0.491454799315573
P 4.193911099837781 6.3972417344316215 3.9364798340228933 -0.7475461872613448 0.5337018809102422 -1.7276594540942765
P 7.136229233101356 3.85275847430284 10.563313888887322 -1.205756622701491 1.5668505782025983 -0.63982930609864
P 6.470413695170221 7.63866330541526 10.335320321926606 0.13338908911782832 0.433300302462028 -0.3713459722464185
P 2.5496511325742577 8.747427599437193 6.12347323510668 0.48941257207456357 -0.11492445465473757 -0.23987184076311593
P 6.887313087149811 3.785658307161841 1.5610362207029724 -0.9377180896961722 0.5668102334284368 1.2759945330821316
Ni 5.2364700173541525 2.3435479793733096 0.545054411162383 -0.47440838535624746 1.013031357717191 -1.13762470292026
Ni 1.360949164947827 1.2777975494691118 7.354673192657968 0.15593226452566694 -0.02807233275618391 -1.075344871044432
Ni 7.114790779917649 0.5897528556090776 9.530934584426536 0.3990871469154288 1.0338097279151228 -1.981715042556942
Ni 2.7715592101623425 1.4231005920438644 9.348270380615663 0.6310510456853776 1.3632942840410651 0.4875922310363731
Ni 6.380888979043196 1.8376077886511666 2.4870422665921454 -0.8313091287116134 -0.2503678551984333 0.9215569065552773
Ni 3.753692368236731 6.656502755790807 10.54596773328323 2.030253613587278 2.2873677863706092 2.5336103065467594
Ni 8.19023781854463 7.17925222773578 -0.003606554091807666 -0.46664442514011245 0.7006140414861804 1.2270893227409962
Ni 7.935332053645677 4.276496623281832 8.273488956655246 -1.3260297432626518 -1.8580213263500063 -0.7624614138102803
Ni 3.003547378174112 8.402714072393886 12.639683775881174 0.6342880645654367 -0.798930969491224 -0.15959531519955095
Ni 0.06062663080912127 5.032813842625621 10.22985554976546 0.8352544865126066 1.0966868270553176 0.8721870978728977
Ni 8.738004906215053 2.3929075525892896 5.8296376862045864 -0.5902180708294157 0.14160196394592386 0.014634204973407054
Ni 3.5715202992753468 2.88122584610336 11.867076801714111 0.20140865169091118 -1.3313375286288103 -0.5917175381930777
Ni 1.022216126335238 3.1138805418333626 12.671207797798582 -1.5273594620865114 0.10676171633828709 0.39998009104334337
Ni 3.306570966019461 8.485409162038195 8.197130445592492 0.47621458532705085 -0.587833372647323 -0.6365575773259037
Ni 5.792381525910379 8.24450047922213 3.4117243875615406 -0.44572258738578074 -0.3417816283257404 1.5504430833788523
Ni 3.0818232977413706 8.581617416380922 3.678619433923665 1.2177636744646962 -0.9069108745073284 -1.3242644238321128
Ni 3.594675289596421 4.6351524493079 9.724303406002562 -0.5350095439780721 -2.188019331777258 -1.1366114311643973
Ni 7.275606570345518 5.845804179052573 11.62239265024751 0.8603463964842281 -0.8729329748999869 -0.5117528874429768
Ni 0.6166166618088663 -0.019266303263603436 13.820597412772639 -0.9111765917622179 0.1774652535014363 -0.8918655501384317
Ni 4.621767111843115 0.15071835202247677 1.402745931191037 -0.9664949047185483 -0.08403085039967463 0.3963224396860981
Ni 6.0054238717942985 5.555462878887024 0.4835868597662857 0.29077736936373144 0.03231362453104112 0.9509780400298719
Ni 7.943951261399263 8.76037467210095 11.40491561240817 1.3282210944870156 -0.23653403463913455 1.135662694097883
Ni 0.31423768844169875 4.850440902297097 5.619097101893211 -0.527345342564595 -0.01585984985039204 0.4232262060554776
Ni 7.943111253863956 9.183838905579298 2.007053743452648 0.5082582440261569 -0.6422793103010294 0.6697402347254594
P 8.858783380965514 1.1843010585827562 3.6144209449861506 -1.1782640737081773 1.2793223119037838 0.5284601728953285
P 1.8676471885550838 3.3446452206089243 1.4695904438647684 -1.2946201186031188 -0.07738069207300867 -0.0827085320438253
P 4.754250908987747 1.1913863395327378 8.139413710451876 -0.7882269528101586 -0.5308538699384857 0.20424920646349984
P 8.461450686248567 1.4369698468931196 12.652606196149874 0.14574401113875543 0.1806120266605341 0.01525461216622534
P 6.441479087785566 7.700422120293709 1.4626412076134396 -0.6666891066039615 -0.6675576252518438 -1.2369489891438956
P 1.6857946876777843 3.136022044802055 5.872681681027394 0.17208033504043913 0.3477990381644139 0.31833239616386466
P 6.97787868217928 4.045266288155177 5.961855785313594 0.7735503246345903 -0.5873988562130658 0.0078043265357672035
P 2.5730343858125346 8.503359757847042 10.402351097140775 -1.0178655458810404 0.7796672361656056 -0.04192363681697941
