# total energy = -340897.9369267974 ev
CRYSTAL
PRIMVEC
9.00191754166906 0.00000000000000 0.00000000000000
0.00000000000000 9.00191754166906 0.00000000000000
0.00000000000000 0.00000000000000 13.17521625000758
PRIMCOORD
 96 1
Ni 6.329563353106303 1.8894304952963343 11.252543769355151 0.481385588005029 0.5297534377854554 0.609919148802769
Ni 4.636869767624069 0.2980174850746119 5.97793854835043 0.1833134847520972 -0.44515514491808494 0.0013680839921202245
Ni 2.817096110952376 1.5436758410272966 4.752933292017351 -1.2440822577545672 -0.005276160797274785 1.2798311332194021
Ni 3.247405777524496 4.29410375000835 4.753881193943841 0.6998889903946978 -0.004385273551889222 -0.054394515590480516
Ni 5.018641094332652 4.471135462129335 2.6859786797056455 0.6569204572529719 0.6957106906472922 -0.3064047914883433
Ni 7.348571426958807 6.103003090182427 2.594305851132144 -0.2847514748846257 -0.5490693645052479 -1.2370369208720116
Ni 4.767802659559376 4.49192989185574 11.373439523132474 0.5098068194601995 0.3153347469881215 0.033475248939310094
Ni 5.555101373603371 7.908346672892464 12.320961568697824 -0.29231874570892236 -0.14277798653189602 0.9636882885076888
Ni 1.7071776709496724 6.627976922556655 0.36630153126060444 0.34150754872874733 0.17309772056135997 -0.43268580880648067
Ni 2.8857447348024032 1.8228253067484261 0.4988817741222877 0.33410071474171493 -1.3126371240058297 -0.802007808644335
Ni 0.4416079733901331 0.09154680172667436 4.824382412442221 0.7829438500343484 -0.15532754106213248 -0.25707072113990564
Ni 8.618345920243542 2.3213965147124624 1.3938191178491994 0.030521565627624852 -0.11907010139199493 0.06528750835390047
Ni 6.902067310569457 0.675358968117235 4.679402028044554 -1.1842015222385347 -0.3104105702136267 0.0932845077874587
Ni 0.9332828122574599 7.524162832258916 2.612948822544865 0.07811911290092999 -0.4867270548226004 -0.20408388453022916
Ni 7.69311982426536 3.929436066797678 3.790602191758102 -0.0538008478705396 -0.01681887132955168 0.2266921088480483
Ni 7.67240641179763 3.6654548322839045 12.567865265274817 -0.12109638779340434 0.6170351910222598 -0.5621670782294705
Ni 7.835521159261895 8.740312902218893 6.914314419505722 -0.04358354101790558 -0.14726558998960446 -0.30530821599005487
Ni 6.948526207460355 0.7887237176048992 0.4831653261312358 -1.363614129274329 -0.3320278913730862 -0.5635004523289134
Ni 1.9452963961110825 6.4130471372113576 9.155036648605602 -0.4787026418562272 0.13543491590326354 -0.5512743425763668
Ni 0.044020277404801536 4.6707709894204505 1.329880297303439 0.5252750902991277 1.3342058513155408 0.09745843665949022
Ni 6.384141979699892 1.97273424104878 7.01466959763382 0.4891706312670866 -0.40230359697019746 0.24560360104057055
Ni 3.2474957967008007 4.4128210397190974 0.41544840075596334 1.0483310614597494 -0.13405629038818204 -0.5736331698875411
Ni 5.948863254595748 5.595718025952088 4.897438375164129 0.19818988764329737 -0.7745383995794726 -0.44219220563501904
Ni 5.4197845477820215 2.943915126530553 9.22093878738657 -0.9496778331612095 -0.7729857103803719 -0.14020662626029404
P 0.18168840411123105 5.4869118475524985 12.290803344252195 -0.12410123605799918 0.6474688249217688 0.653693465675242
P 3.8125101586953964 6.257692042744565 12.558036971605862 0.3088997899960551 0.12015922069111565 -0.04764434135084053
P 2.381871397354015 8.691189437709372 1.2918642989581661 0.9012739879365251 -0.7323414544964485 0.5772512262561026
P 6.2425958268782535 7.634742388431709 5.674961006661424 0.4250136369732035 0.6031743738797677 0.6420530532228362
P 4.9015621536306515 1.0717773150023673 12.645822772146524 -0.7279505245176043 -0.10212576022817252 0.22476532413898065
P 3.9495553527017973 6.032148996512933 8.143311126116155 -0.22039110633068498 0.34629828524917133 -0.27532401092313874
P 4.6835807182086215 1.1044812817538947 3.893236655430236 1.9377028986420501 -0.20079955735200258 -1.2821070737377727
P 0.3864757288622692 5.439003641923093 3.5367949245502945 -0.8503635742399033 0.4503963387123663 -0.5690542922676071
Ni 1.407566846454466 1.1413171286978117 2.6192591668038303 -0.2717488919773707 0.09196347498319 0.018024718712194764
Ni 1.8207278599405246 6.512644353874969 4.689323041465103 0.7773576141958226 0.382821834096502 0.3673131969379416
Ni 5.8173902476026145 5.641456769432548 9.255615974482698 1.1633904990304544 -0.2850358388942639 -0.6678178208917661
Ni 8.518478646051017 2.3304704476839846 10.097248462960733 0.2729675948758202 -0.11664837932437976 0.19995212175004273
Ni 2.2700495765482147 5.0534785155626025 6.965802687776768 0.07800495592056887 0.618527202186754 0.3121157258301915
Ni 0.5701985663579884 8.987019456799779 9.088686214326636 -0.2716473334024999 -0.38704795636270756 0.7112974893419557
Ni 1.4100873833909997 1.0140750229910018 11.355231344341306 -0.8490129737492796 0.7806810221421007 -0.370075333064111
Ni 4.1056756101671805 6.9381559983500445 1.5531998698803424 0.13522074300992842 0.20148552767543362 -0.1565364737685691
Ni 5.57053066042201 7.765423226673362 7.909332382873002 -0.38448945160691206 0.39330936389138715 0.14838376275444765
Ni 5.209553763439834 2.845749214770188 5.135975689495357 -0.08670762590088937 0.4008288121968839 -0.8791481025717635
Ni 0.8907748570145787 7.380564242217526 6.949873794529638 -0.34925531099496626 -0.1568169811234654 -0.30393858933603785
Ni 5.195051674137133 4.377938608900994 7.2570804371214415 0.0823128392673034 0.7921430000351132 -0.8985504183577752
Ni 8.112438149410668 7.1672007905399315 9.208738488421984 -0.1464271532487091 -0.6197410199891972 -0.1838171638613931
Ni 4.5485249479985566 0.2942330789027589 10.401596096513098 0.11583771049762631 -0.11175942666319462 -0.2714007646093326
Ni 8.15109238371594 7.108337251154235 4.526793418646819 0.12060659264117939 0.26185245879926516 1.104739522156465
Ni 7.246723730887576 6.249014194148784 7.029030356829722 0.29875781646604677 -1.3749796907987932 -0.21023190640949602
Ni 2.3106302212264107 5.3721373977639 2.3630276831781347 -0.3395319130596153 -0.7295926881067177 1.395330229430687
Ni 2.2348340747777837 5.382696647144451 11.29133213223312 0.01359419374466691 -0.9053345311591441 0.6287787047114332
Ni 1.192601053438646 3.2115241338494096 3.864475528600858 -0.6273856810186486 0.6833711952453329 -0.3114338692718185
Ni 3.640060422648325 2.649174339473435 2.701841858954074 -0.4376588365410398 0.18010706199965756 -0.1648377945454129
Ni 1.1960307840558582 3.179324274485189 8.24754072959241 -0.9584506942578332 0.05207255232552322 -0.4383157533987484
Ni 3.6491613613727387 2.6548545494982667 7.252758616467049 -0.581666838825295 -0.4615839798980696 -0.7840311695612562
Ni 3.9934757088209003 6.6750569517640574 5.87961150226448 0.26958607999809703 0.5421176157777631 0.5267817567516412
Ni 0.7721043772755104 7.41132379476087 11.207194808908092 0.005292615857507014 -0.22692659345635757 0.22274983637084864
P 0.15950227791915444 5.568910315248523 7.939069317573523 0.6202866080800221 -0.392707211531014 0.8932652586994357
P 8.58534489021021 1.5101887074419176 7.93773883414774 -0.8732759600617024 0.8287351973368501 0.6215554474901167
P 1.7350386060160026 3.091735615940636 10.451358697174381 0.03545808369729378 0.07491628969291614 -0.536140829369038
P 3.9824933693117166 6.083072844548549 3.706069684249096 -0.08003792719019764 0.6548214086320981 -0.17251767968817386
P 6.799274413147026 4.042590171412789 10.430634482405495 0.5648878195947433 -0.3874999562984617 0.15276415121033046
P 6.246574674470924 7.805562777387664 10.189752168531529 -0.32476889581782775 -1.222444110659501 -0.2731953946159102
P 2.490992642870672 8.439063728714938 5.66485545392945 -0.7696671875301003 0.07454399395516195 -0.3836597566167651
P 6.935554444154836 4.11694601104054 1.5311181659327793 -0.5595522663144428 -0.3918767452099186 0.2605216558029836
Ni 5.315137255327713 3.0645408227789614 0.3556495621284596 -0.18584087915964123 -0.3868201566226177 -0.19895659060599286
Ni 1.5341518121742506 0.8371621361827396 7.102350975929967 -0.18024795845289604 1.8110953512224293 -1.5341474315426225
Ni 6.86260290367744 0.6120502818056076 9.144469297499183 -0.1256950629076803 0.359372087713994 -0.23668572972565044
Ni 2.737780214710232 1.4196654237498287 9.18154459545207 0.34418689533312335 0.08836675877086717 0.05319612440700516
Ni 6.266747971880826 2.2185856134547706 2.501762537123776 0.3174037137020082 -0.4333239566111118 1.0013639486815915
Ni 4.196820026175772 6.7784529776677305 10.407222295032147 -1.0012605903345078 0.9415197228304494 0.270759788591224
Ni 8.174470363802293 7.238270930232558 0.29899689371280797 -0.5874106832876078 -0.9637762202358048 -0.2226181958889908
Ni 7.613695905011652 3.7945333291873315 8.165076862754889 0.6989762487724414 0.3975707102709024 0.2610145362790021
Ni 2.965807790207876 8.564676487330631 12.310184472910615 1.194049618677208 -0.7609375209665862 0.34221794453221066
Ni 0.09227505686298004 4.727879154868205 10.181846684468441 -0.33413850995818584 0.37819333418555506 -0.34027316210101394
Ni 8.568502302323584 2.136263076724047 5.829176458356199 0.7687066233890438 1.548788578494565 0.10563763003617291
Ni 3.5983815440192113 2.4198504878370026 11.413202793689823 0.22640311685271977 0.20193392806676191 -0.19090055307073575
Ni 1.2582520387177236 3.337370942323495 12.625572958436763 -1.2090298941361242 0.15391754808848332 -0.8166810943857936
Ni 3.0855512985284976 8.220479164811666 7.7849582881232635 1.0436706798696027 -0.5215752728500372 0.9143310782307995
Ni 5.690796279965198 7.717406998032391 3.544884047733042 -0.8833955649942077 0.35974489767238044 -0.19145565424325736
Ni 3.1479705953782333 8.478762185465348 3.3833293325941387 -0.005278989010752198 -1.0024193865292994 1.2489897223585134
Ni 3.215971081158866 4.206263037770144 9.234429961339368 0.855295721434198 -0.06328127655714907 0.25094172542403237
Ni 7.100469575145196 6.039260511441011 11.353229317860286 0.5997784608243412 -0.11036614586009379 0.49069221011793557
Ni 0.5676546244356152 9.102739107939577 0.3358282396979096 -0.35937183060367783 0.33383666244705085 -0.11290459601123136
Ni 4.53824475806455 0.46142119409481563 1.6940033644974677 0.9103016453564323 -0.26623824657178663 -0.7036075768968657
Ni 5.841533390687556 5.6030275830680365 0.329246937718267 0.10832571839129732 0.5919574221180256 0.11486531928202798
Ni 7.826528243549048 8.687786712845051 11.364203555643604 0.24213981086168623 0.7104281993631248 0.2417744571024675
Ni 0.11425233856602957 4.910636086602174 5.764855056311143 -0.579373414805428 -0.7682762207198446 -0.08335979247457902
Ni 7.992991704371851 8.693529936293297 2.405992035644881 -0.3474023169466275 1.218531405868656 0.8194213761350921
P 8.392676847165085 1.8128151743433343 3.6055695752471477 0.10764026228849849 -1.41325878888465 -0.7788239143287039
P 1.7803542593678299 3.2298160304745416 1.592514844939693 -0.29248741007630275 0.30344982262507736 1.0542739093067457
P 4.822570326423205 0.9494862639923207 8.144839651729809 -0.6336828268812699 0.10556538203734078 0.5802910415236909
P 8.44341165493046 1.6030884973884527 12.297101085826478 0.36996631829007254 0.08797800797288075 -0.11239783157814191
P 6.286336144644746 7.792014891353794 1.38326616981099 -0.003593630888529295 -0.6268580906499527 -0.26744255129253297
P 1.7880869066124108 3.1464132636281605 6.005685159062853 0.11946168040345877 -0.5769329236847355 0.44555777967314236
P 7.000224220412192 3.9546414361630173 6.0347631533928245 -0.3544160292602993 0.2727289965024529 -0.7250027547431901
P 2.418806265391867 8.39446822877355 10.05618171473049 0.5403121871379082 -0.03718663635262628 0.6537281755679193
