# total energy = -340885.5976231453 ev
CRYSTAL
PRIMVEC
9.08524867463447 0.00000000000000 0.00000000000000

0.00000000000000 9.08524867463447 0.00000000000000

0.00000000000000 0.00000000000000 13.29717978633994

PRIMCOORD
 96 1
Ni 6.809103212420356 2.150850875036169 11.53832224486405 -0.04974184730981756 0.7974980936994394 0.8067358102476235
Ni 4.485132922395596 0.5571301666564114 6.18667282035169 1.2052760835206469 0.8977070965208733 -1.1443576507687196
Ni 2.6127812626341727 1.8992258255728243 4.911246533834611 1.318634222129529 1.597130203022746 -0.9451064117404434
Ni 3.3062037884588524 4.872100922532519 4.676551845422498 0.6978467631536884 -0.0373118490765809 0.6417077540682754
Ni 3.8250078332506945 3.310419343880249 2.7393651249849755 -0.6914424022892414 -1.0404424027402919 0.6567965300805978
Ni 5.538394895580714 4.97460069896397 3.1687176276044386 -0.5170151642831805 0.12615143371880855 -0.6282680836236019
Ni 5.315188504216781 3.3413909568792577 0.9272268598589972 0.14408590671004218 -0.13541074753354745 -1.236771840136083
Ni 5.785268359946235 8.229309297490767 12.405697302987972 -0.2521259755401206 -0.4758911405493611 1.3161857605890366
Ni 2.419665215140207 5.469628647769186 11.694138803602534 0.12398965018079935 0.7597892662947561 -2.018727615225549
Ni 0.49990218476120596 8.977915624241225 0.6903680651939182 -0.025541338804214078 1.1783142102198223 -2.1864417028774925
Ni 8.425505244312001 0.16637452631435765 6.973746090322391 -2.2848432201765423 -0.7605407997487998 -1.3876729699957457
Ni 8.749903136286951 2.7270191804545116 1.3970414263248623 0.40596896163692664 -0.08253858212486431 0.6297971186736186
Ni 0.9892291399739089 0.15965053371225552 4.535202636798305 -0.6462066703798935 -0.040943275181581106 1.1803695500869542
Ni 2.0397382827868653 6.862052042152894 0.44015940601116754 0.5534708360070533 0.4693425407975659 -0.24771319118440566
Ni 7.901995040666101 4.232935502260811 3.7528364342065395 -0.5749603733393969 -0.11361319204248176 0.3848740886398404
Ni 7.842641110562692 4.279679107095044 12.8808321911236 -0.28329314517154436 -0.023123216281024695 -0.5325909072342504
Ni 8.57760139368613 7.718981789785482 9.64481649190612 -0.8725622218241295 -0.7299829815666009 -1.0318459193205327
Ni 6.883593166946279 0.9615827280185019 0.6190352346096659 0.32521883887105285 1.1961756638812755 -1.722974389913781
Ni 1.9351398138934697 6.874671452670825 9.19325782428455 0.14043236911785492 -0.4286926284866875 0.31570961382903695
Ni 0.48590181643281866 5.178491851479004 1.31692316019645 -0.5344963517870794 0.004681207525753228 0.546016436611537
Ni 6.141628157034271 2.4850244946693563 7.242056199120636 0.8324134175193857 -0.5323271120499026 0.15471998938512063
Ni 3.559064431752607 4.752221065236562 0.30698510421493164 -0.21150743068780994 -1.4590259678174355 0.20721420262909473
Ni 6.460275086548565 6.180294975727078 5.025150114500838 -0.20396227135070033 0.14685627036632773 -0.2880059772661814
Ni 5.346487186170899 2.857056345856333 9.529091318864914 -0.9955601975156209 0.7670341207826273 0.19308316254435132
P 0.40717086778899086 5.949329781928077 12.45655834255707 1.1554419336073392 -2.2807986177935233 -0.7861847255691492
P 4.363881192537933 6.354086699123393 12.534068233768492 -1.0938107910591033 2.1190980833255115 -0.11974424464088408
P 2.76958357086236 0.13219672903041207 1.1560888185716773 -2.3198297635540563 -0.6859592676874832 1.005590328058113
P 6.435935705139253 8.30455332766319 5.9118867462423 0.17957098699052945 -0.06595265274172511 0.08279543533067678
P 4.957047998373156 1.7921652542673627 12.661814099434805 -0.017748068012040402 -0.07233824455309477 0.4190756742222137
P 4.233544213927263 6.22286845138368 8.203708883554537 0.17933058884494923 1.712359333402096 0.255463781664102
P 4.74581596486569 1.6440575290958057 4.0272372937688035 -0.1579546942723344 -1.5163710813958078 -1.3276670217557585
P 0.3421650044363342 6.19623958728861 3.3690927888520585 -0.4299290719969499 -1.0697990015255383 0.31695454197973155
Ni 1.2881883354404322 7.944023401397522 2.526530453597479 0.5498229548418209 -0.5634325752054554 0.24189787005420918
Ni 1.9053401979835993 6.907342007186646 4.658573955190043 1.232649333327277 -0.2172085948376453 0.5690272956844136
Ni 6.232344365833068 5.425883175023447 8.830763667238484 -1.8468732801529868 1.4162428112136383 2.6364372066070145
Ni 8.750966110391053 2.9373063480916644 10.11923364539026 0.931935421576124 -2.12454470826238 0.49355847592213714
Ni 2.5733603682948654 5.567295071864036 6.967083877411808 -1.4665137915540485 -0.55953452570263 0.006803910295710864
Ni 1.0293495984671979 0.23569679134956903 8.730608793510186 -0.5044740943933763 -1.4343276937398073 1.717706199536306
Ni 1.3560278878791525 1.213380397208154 11.304464307862089 0.5683297553967568 0.5610687029589693 0.11692348736263734
Ni 4.123494595782061 7.684067178827668 1.8018873789579581 1.1162089562486455 -0.32592743490230325 -0.6150793528474697
Ni 5.760302096372966 8.160842862888089 8.158165440080577 -0.633702881485928 0.7589292322873058 0.9141526436714061
Ni 6.709919551783754 1.229352264515944 5.101436222705232 0.18259614697009843 -0.11782543035161643 0.10874557953753529
Ni 0.9243241228824107 7.654422012146599 6.991910228154282 0.5375539076664807 -0.9009569709167387 -0.44279358666444385
Ni 5.21009034664197 4.811738529817526 6.871370781798856 -0.7846988850522422 0.7258154804524727 -0.11119584085024076
Ni 1.0447127541085366 7.743348426941053 11.539931242418207 -0.12983068234260867 0.35340352883538495 -0.5788928756245837
Ni 4.902963512546492 0.7447959734234463 10.77535668245946 -1.1014035158046966 -0.7552422703540219 -0.8360168185999278
Ni 8.36554260254214 7.776137089690664 4.665435135048316 -0.6073303050296701 -0.6373317364877669 0.3500356408044165
Ni 7.2770662051903585 6.838321372410034 7.248957354073423 2.612720579716365 -1.3729508332942226 -0.7551286275942931
Ni 2.8842394101253372 5.516154206633347 2.3802752106466603 -0.4936813746532465 1.2615647308100466 1.0073263369126135
Ni 3.5031992371703526 4.698636268091313 9.41450997864171 0.4704321743173189 -0.857005247926137 0.037032627273265256
Ni 1.1388904426822308 3.9096278401362228 3.779204551662398 0.5460349485542983 -0.22119894694396097 -1.0441309073354728
Ni 1.3755611726981225 1.3420456900482711 2.5826182367741817 0.28739199783126634 1.5842703163409426 -0.7614645971146498
Ni 1.3462339897234086 3.5414299639230156 8.010021373914007 -1.6060784133549695 1.3062846994252406 -0.554094071413349
Ni 5.189057995778754 3.352238743890351 5.07961618077513 -0.6403702662037746 -0.14096304481034433 -0.9797664250164738
Ni 4.2509606357867815 7.054704741960456 6.114893904053666 0.6073884119611151 0.49909328969743727 -1.4536731881459546
Ni 8.021229845300596 7.061137098077587 13.250067602744402 -0.5199649909401238 1.1575908616295418 0.19897561676938635
P 0.25911492853532575 5.712213874723288 7.73873221204965 0.6201472542886804 0.9883855341440525 2.408777334529058
P 8.7234832329132 1.8000512501849748 8.153059530281386 -0.5684896780133887 1.4313436714108188 1.6148538455547545
P 1.758767879851301 3.727177874678291 10.115377865819482 -0.497513346804827 0.7029300912138668 2.4021138064659535
P 4.278498024757153 6.822867364281165 3.8027008219874308 -0.023692201410617262 -0.8237593413888136 0.1779995287383515
P 6.916245550964594 4.026773037557525 10.4353076324577 0.5518993777548753 1.5748022289495074 0.3733491187193763
P 6.487022058877424 8.10928407621476 10.35883527665387 1.1496278980287233 0.33578273042982815 -0.7249983838678159
P 2.571043629862848 8.697417654240816 5.868563737563575 -0.3247706955900407 -0.03307055730172369 0.4442344328760285
P 7.049017376241072 4.114672819242889 1.7457469013384879 0.8567918463637502 0.9520080239562829 -0.3696927529137117
Ni 2.713981848493943 2.090960915256332 0.13283996464212514 0.0735659463126088 -0.563771703712429 1.2412082786408818
Ni 1.5123759336696891 1.4394032156855185 6.854456774195379 0.5062556117738314 -0.4638339522745109 -0.18005332594358667
Ni 6.87816018819198 0.9564404772242986 9.389670908550983 1.074203815461453 0.21905618956934533 -1.2116498482574745
Ni 2.508927784138524 1.9262544406130266 9.18348482220094 1.572510347591537 -0.9569214020975004 0.17414904464400977
Ni 6.577956313646294 2.0433996380343284 2.7385147457016936 0.21670311595613648 0.5551641645490761 0.8585090861651731
Ni 4.665647729869137 6.914219540492674 10.453271894817027 -1.0703278774458147 0.8077737645938347 -1.0828836026236381
Ni 6.960890463336883 6.1517582093938765 11.286738987544968 0.08456872518101564 -0.3121851456155462 -0.21097701210563666
Ni 7.8680071250810935 4.153148847711884 8.226500138576336 1.1428628113907477 -1.2623239775735746 -1.626272371804341
Ni 3.100159431989355 8.689286356606873 12.407465292395306 1.1507972357464762 -0.23200812174432298 -0.5750519046119387
Ni -0.004098355712482485 5.267627226994779 10.209122188027658 0.6365493497957876 0.7507582664407393 0.196881453244519
Ni 8.609145377356578 2.614752761613576 6.162697757417374 -0.21503704110762323 1.3768113446908932 -1.3639049210418703
Ni 3.3855452658188825 2.715162930831834 11.319424078458795 0.45748487012803146 0.6334457711697993 -0.405019967460096
Ni 1.1789473044342487 3.6343629734175478 12.487620808043607 -1.0078194744989482 -0.2360385830599548 -0.1688551432349221
Ni 3.451068079825586 8.434417873338704 7.898085658127681 -1.8648164948949688 0.2056005782850717 2.07431820800666
Ni 6.1625060586686855 8.312802733530921 3.5930305427406073 -2.0942041482973095 -0.31193857682237885 0.19802070905528477
Ni 3.2019142180230595 0.06230118479888581 3.7339681895962893 2.1337957945470025 -1.7241396138664757 -1.129031047713978
Ni 3.678562708600938 2.9693591056922806 7.027426282579546 -0.8205146091992708 0.36910499873104174 0.042534530928100944
Ni 4.969358510433484 4.636393228884447 11.431771356013632 0.6457456715830749 -1.363380158886652 0.13222515071671423
Ni 8.010282120553219 9.0601098697097 2.501332516181008 2.307056523048788 0.8718988772085177 0.980382461333918
Ni 4.575776449204369 1.1937199189066419 1.4802150616089116 0.4129659617800501 -0.8657665390585348 0.862014271104954
Ni 5.942079753423174 5.751171421376191 0.4738520510117024 0.23625944082150926 0.3483914203327742 0.7018337728258945
Ni 8.266822289591941 0.3084260246671589 11.307257113328765 -0.473283784833501 -0.9819804019486571 0.613714354179143
Ni 0.10241437509317237 5.461161195931382 5.656181511563978 -0.5516661786981467 -0.8136680185910825 -0.7941541169278711
Ni 7.482483679495898 6.45340663849129 2.3737329230196185 0.2668553113304953 -0.8785680616985773 0.9024785497675877
P 8.673405341786612 1.6727487446578089 4.049337161360499 -0.9158613988323969 1.1478684921354554 -1.1272636714009103
P 2.004932694814087 3.625005167201948 1.5456106821330724 -0.5593563482535527 -0.6753424114035853 0.3713955945374313
P 4.394898231780707 1.3737986344400388 8.280659123442774 1.405470660298799 -0.766847458693118 -0.2272415535936151
P 8.902617082576285 1.772650139945899 12.7685239801384 -0.7320684033407199 0.2196017776601702 -0.2759981541720279
P 6.662767110755636 8.067846256652286 1.2487501791284943 -2.2508874320563885 -0.29970732486350965 0.22021447154350463
P 1.77075132295652 3.6396960144355646 5.8349492257023154 0.4191612919574845 0.35998992380365097 0.39171142327664793
P 6.938468069414456 4.153721218383323 5.864321834920795 2.1386472091020328 0.42847974114493304 0.2424635127496921
P 2.701098965762176 8.831724886556552 10.174483768631934 -0.49690888045160864 -0.330833871064985 0.07226008301699167
