# total energy = -381174.4294735083 ev
CRYSTAL
PRIMVEC
9.15040594613300 0.00000000000000 0.00000000000000

0.00000000000000 9.15040594613300 0.00000000000000

0.00000000000000 0.00000000000000 13.39254403937492

PRIMCOORD
 96 1
Ni 9.057849458693122 1.1023859899751942 3.563448026193485 -0.46496369500357987 1.1250126705832044 1.057727415072985
Ni 3.401279044123209 0.9587612203265509 7.491721817130499 -1.9068023524084514 -2.332060244181977 1.3402929380498851
Ni 4.823398514033603 3.18373729631314 11.003568874860512 0.4527450414502009 -0.9407764169065217 -0.11512140115689204
Ni 3.1437500229081596 2.1812828882271424 1.605605237363791 1.699056959866235 -0.5017183860251102 1.044922807109149
Ni 8.32319997755073 8.585505510600425 7.68083782928094 -0.8847572212284246 -0.4049603178667542 1.2386993961760988
Ni 8.507232939271773 7.295380644549721 10.517539579833151 -0.03499322824573328 -1.1020935998931858 0.48326069354055484
Ni 7.968612601871921 8.53650508746915 5.494183652841276 -1.2725029749891053 0.5778924593845274 -1.2078052777004038
Ni 8.90669390505997 2.130736046513387 5.918218948482198 -2.5415107923407585 0.09982230890597647 1.5025200344453287
Ni -0.26752675460687586 6.15063742606385 8.235276473210586 1.0129655374762618 -0.1862489132313373 -0.04560185699951501
Ni 5.527458188541475 5.935035564286242 0.6691719222627532 0.41889543989060757 0.043317688951028624 -0.014395606600039725
Ni 3.6927926725295848 7.417309802014563 3.7993308474161265 -0.9325139197874133 0.8712496736602932 -0.974335998029522
Ni 5.49918343457777 4.7545142590696 7.174412279695295 -0.2567436768177901 0.5499178285484723 -0.21641360974017568
Ni 3.05543030599629 4.295502452247168 3.4958420829216275 0.45143583572047413 -0.6401067281297427 0.19314795434401574
Ni 1.996087824967784 3.2890950688497402 13.39843687542397 -0.8527043065579379 0.47822056001348606 -1.3726986080741006
Ni 6.435901327299608 1.8811129759211989 2.850669845026513 -0.24059817740617917 -0.5500618103255043 0.01310388437180969
Ni 8.646593619811329 4.755740413448609 5.805238887902955 0.8879065654906838 0.9483444590617666 0.7249780721528417
Ni 5.819301231557136 7.8608757238238125 2.0405551370590524 0.7171534339021004 0.0165087962883006 0.6613101016802353
Ni 8.448423281108433 3.571412539413552 8.45032016023357 -0.20366016672924925 0.7276383925938242 -0.3628687880133428
Ni 2.2825412789592963 1.0295030076706935 4.0313165108027995 -0.5211716096537153 -0.11509517590464693 -0.966568181158645
Ni 8.20546170594847 2.8342832982957034 1.7846100510903191 2.2168552821723435 -1.140171380601514 0.2998423077794771
Ni 5.424113505283843 8.85231304331036 6.87285242074628 1.1495345669839685 -0.8846330369457346 1.2455058775749712
Ni 0.8743734327927408 4.943708049669456 2.657375757581629 -0.7487530630852524 -0.7603986177439807 0.7334164327281821
Ni 6.8937418821779115 3.777946349029985 13.65825166801123 -2.5046550569649897 1.1996008875127404 -0.7173321255718097
Ni 2.730883712603191 4.066550148387669 11.141203788863642 -0.6475863243362395 1.892597778773295 0.897754661929357
P 5.278045577282997 2.2232374988820247 0.8009066545973391 0.3774644264393306 -1.2325549738412578 0.6106758244631354
Ni 1.2942974511016592 8.21205914854 8.202959984999058 0.809222067004587 0.6604063589190433 -1.0252690374339632
P 7.781230591623137 0.582187249559073 11.944046669331117 0.3492182871094437 -0.26561732515833614 -0.7344603006116641
Ni 4.719175391817877 3.888437499227957 2.0022652639324754 2.2473187408685233 0.9714777026451203 2.8063542154475476
P 5.813911642532988 7.179829319936884 8.367514477864914 0.28904418872270865 -0.07705364775089311 1.4398856474435588
P 1.6419122175505831 4.655095099905959 8.781692041322955 -0.43431408843852304 0.2816769497243601 1.53731811596112
P 7.560001230270229 6.827877261132364 1.0988008609774662 0.34132859994872183 -0.6990155866508091 0.5422718819674403
Ni 1.699340164436088 5.72329517376193 4.647158952943914 -0.786796133900903 1.3958686184326607 0.8961423231369148
Ni 3.2026877867528913 2.994973574786518 9.035869268888522 -1.4119074170630779 -2.1585948558685537 -0.45404653387044386
Ni 5.299393474045885 5.361799241693932 11.631143052295112 0.5879974090290132 0.09137520657988779 -0.37226025653057176
Ni 6.4784232631149266 5.018155751368066 4.83875289498865 -1.0435454671456479 -0.7804311109148236 0.4453844873200717
Ni 6.953704491473755 6.557400415691217 6.759163203716492 0.8854665885906233 0.608859597190003 -0.8953841048146515
Ni 9.16056276394962 4.598353433456467 0.5951661851649366 0.14254195926169 2.0826817494800065 -1.0521213817401172
Ni 7.995761855920566 3.273191663545883 4.126925440985701 -0.6037451587815731 -0.05589038340971665 -0.3370446278613872
Ni 2.0054029380859237 6.174309525903365 7.149729975053968 -0.15529745915514542 -0.7295659486338403 0.022438274398858128
Ni 0.9773731457512032 8.066906261120502 3.9300691005576223 0.8492788258161568 0.5711448562480487 -0.47921146317184565
Ni 0.8859852977700681 7.110002573174092 1.8356894464224203 -0.5822075418201135 -0.9143305640101672 -0.614785989976767
Ni 7.004315386028205 0.8676844861430748 0.5875420670411311 0.334372737456179 0.18381073610348989 0.20448780483686718
Ni 3.659613301049846 6.743007247212182 12.71868433891907 0.7344950105043415 0.03194518544802886 -0.29551745515187816
Ni 7.790829367321496 2.0434228742410023 10.21959596126163 -0.8577482967397485 -0.3659309718784343 -0.01194637372859878
Ni 3.202861644463348 5.752558171553492 1.667385117254195 -0.4276425899556183 0.7352473152893337 -0.656162753151341
Ni 7.148800293823318 4.8640812182804085 2.578922008217871 -0.2035120711871592 0.7771910067109712 -1.3937847393204381
Ni 7.419094131148195 6.190514894599069 12.374791042514493 -0.5971459082975007 -1.1124919124083745 0.12499803684065569
Ni 6.85997688472611 8.932607854323793 9.800597048980457 -0.8267467061519117 -0.3942226197342759 0.017003733646848134
Ni 1.2776071108978413 3.0884907222004534 4.592638089985356 0.34547733200977276 1.8954275349126068 0.22088270125512283
Ni 8.509795052899554 8.971442176596273 1.8413947244471354 -0.4298156863475372 -1.84148039127219 0.5419358387842602
Ni 4.9368269444977075 2.8916746435579546 4.328898688344687 -0.2707569603777466 0.5933206210141394 0.7658182460976554
Ni 1.1745003381913612 1.2423780485158793 1.1227923099798731 -1.541497187039474 -1.0664557960849181 0.3511545849002081
Ni 5.964399216541753 3.441888545123507 9.009056749773812 1.426771221548788 0.64138070974616 1.5926659966038055
Ni 9.307975801605052 0.0009919039901830358 10.092205841607294 0.8516825501616428 2.2772834055514135 0.40897998054910856
Ni 8.574149856985875 2.9441339200867307 12.447592586207255 1.5859585026766427 -1.8537584373085947 -0.16536281381094747
Ni 2.0897788300921762 6.686549243342908 9.647238992668 -0.21186712802007385 -0.9013945726747895 1.2361956559176388
P 7.220173459168591 3.9397895766533 11.21262636640031 -1.2202679289437888 1.4968193845161253 -0.8284940278603216
Ni 1.2383244187405003 3.5075610076469728 7.048014064031141 1.3754435178090891 0.10874455109627078 0.2415947369914936
P 7.065467548079803 -0.13699164047443954 3.579760454637205 -0.13268177863815858 1.2124193794336473 -0.5228068312642932
Ni 0.2177604425090117 5.300070604076083 11.277700392383572 1.0570224185861603 -0.9708855775870764 0.24840018994910124
P 2.5475644825355994 1.971729444692256 5.967302640306375 -0.25356373642791175 1.2573571204866023 -0.24643715268545943
P 1.2719704609167273 2.825160343699647 2.511838553117965 -0.5865164536081124 0.5846194936957158 -0.4467800821160176
P 1.964802587491439 5.596031329707819 13.06506929082666 -1.4813464856915068 -0.8847399948372441 -0.28169031946079875
Ni 6.444639964851497 1.309770787332282 5.615801696508459 1.0260110578063104 1.107153016693964 -1.796665291840028
Ni 4.379219515034849 3.9362758208209168 13.293801069906053 -1.3570724715010691 0.22977331887653332 -2.525453995988212
Ni 5.668081625083291 8.204308754815969 12.420325291923616 1.7461932512324057 -2.505923125044136 -0.09377147472620624
Ni 0.8951247230965885 0.32860479837138457 5.875000666784472 1.7326209118646094 -0.9696344787887946 1.4589663182240937
Ni 7.1032495736837316 5.768507328886417 9.711897590227327 -1.5155347015374414 -0.9872555343046675 -0.05271789921900598
Ni 2.6992141580826794 7.877547763216003 5.777985319228036 -0.8200818925372263 1.5751269592787775 1.0189713773507096
Ni 4.852917723187943 1.3532901173812721 9.388910225984848 0.9124207485819642 -1.4309333233462775 0.678706957000444
Ni 8.76132140790095 7.963277915282653 13.079412551939315 -0.35605922129067713 1.4339916505566273 -0.27396518290239913
Ni 3.797052396368566 7.805799431232376 8.293399850937917 -1.1407881882499062 -0.11301695321937955 -0.7869218608454899
Ni 1.0770942683066895 0.8863311831098183 12.249209043048904 -0.27042348829772783 0.5338540902173903 -0.7085998879051344
Ni 2.185492074901351 8.325322871699461 0.4326970697839783 0.4792456588438908 0.49079839667849673 -0.04349740906200251
Ni 8.237844992122435 6.618708134641643 3.843901559093087 0.4348267664088834 -0.5803725454939037 -0.6590989529615294
Ni 4.416205455333002 0.6841364959301458 3.098512246647395 1.1908663358532199 -0.5349295826697561 -1.7668078421589637
Ni 4.521224662854503 6.56693513854888 5.959641920559316 -0.012409943628578626 -0.7546128643001391 0.7947812089889086
Ni 2.665119746021591 0.2936392676768512 9.780413998877627 -0.829222935606546 0.6008773503154748 -0.21554740508513848
Ni 0.8238092053079398 2.8784797583748922 10.346034438711364 0.8127622189473616 -0.334840678231533 -0.28318284484592526
Ni 4.916430689939423 2.4950686043835693 7.3217841405245645 0.6493781261293397 0.14796801537326776 -2.307356313677394
Ni 4.449961302378991 0.05709029691098689 0.7701274345624803 -0.8496521499951755 0.689178031735097 -0.2483580238572561
Ni 0.5649506301281892 1.4029402193253049 8.345175592152424 0.385577028244136 0.4990480382817986 -0.9312651349819768
Ni 3.8982192830425846 5.031561095884838 9.06691293565139 0.9631540132707733 2.370119255837228 -0.015602225313631196
Ni 4.268911372953148 0.6886760122542215 5.207355947251991 -0.6909073557213778 -0.09533444833795193 1.8605317514766861
Ni 6.037355402092762 7.290988449759242 4.371045457521652 0.16684505478342881 1.4505567540041597 0.7821946305731496
Ni 3.2043989126400154 4.519852101982479 5.8812686947667165 1.0974021079547873 -1.4439801292279066 0.497785112408975
Ni 5.552996971166944 1.2290916592746821 12.293604981974827 -0.7163761894164437 1.8587669462667793 -2.19620983800785
Ni 7.234621949948102 1.4642204870582918 7.78204589278112 -0.3671913266480966 0.553380333175776 1.140008115550772
P 7.0454922121889405 3.384067130788022 6.488969105814982 -0.21727287241667742 -0.46151044634765687 0.05978329070621961
Ni 1.4689603972696832 7.726181750249142 11.842959391187675 0.3743909297203294 -2.09392518360431 -2.4939096455230274
P 4.877321855492538 5.745896676121267 3.498869037164732 0.026503959827799517 -2.3796300235411407 -1.2539853758008919
Ni 3.5440345252195704 8.961010713968886 11.82139737492875 0.0949212720599333 0.5781847938139656 0.4903001168858394
P 2.615359839207796 8.782056227474332 2.4024079349537772 -0.01732023644600243 -0.3300872227069476 -0.19044315381834298
P 0.2128594851553029 7.0021284390387795 5.663171517323769 1.1591852026998553 -1.2466417909516272 2.0897039464341107
P 2.8864863634617013 1.8878385241941187 11.496105938502433 0.19953226060380472 0.8695062086066251 -0.6844744556118405
Ni 4.652285925321215 7.261396037358394 10.387525123791503 0.18466228547050775 0.14790399490455175 -0.22826099599706495
