# total energy = -340887.61275238136 ev
CRYSTAL
PRIMVEC
9.10251931406556 0.00000000000000 0.00000000000000

0.00000000000000 9.10251931406556 0.00000000000000

0.00000000000000 0.00000000000000 13.32245711289158

PRIMCOORD
 96 1
Ni 6.347987875731851 2.2340131581918774 11.197072056092294 0.6712875246079212 -2.6475903950103565 2.658766980452466
Ni 5.103864611684931 0.6777326413439188 6.065621348781696 -1.04007859164297 -2.168389987582104 -1.2067434120947929
Ni 3.049471470975168 1.2540632153513582 5.024724576312978 -1.4887432923762103 1.9694660499862597 -0.3134385584066731
Ni 3.389414164579133 4.4971361737753215 4.665458144042173 0.8036898243324481 0.40598695935905565 -0.9304251555791847
Ni 3.6484900748601814 2.4345871755849946 2.526350585012803 0.5669452163444042 0.47264023771223124 0.5644869846118988
Ni 5.29471713824184 4.2267185241853635 2.537514825191276 -0.5855690020931786 1.6536523064791908 0.4665305252700675
Ni 4.958433657480718 4.7319720746024165 11.426245279532493 -0.21343858627225176 0.40277050930428704 -0.5956528686917419
Ni 6.026040863198284 8.027284392491735 12.256447853417367 -1.5327958026107342 0.42299249277811674 1.3600541798372123
Ni 1.7392821203278734 6.639559780662023 0.3616676769174275 0.49152833286598574 0.47840696499267926 -0.6366053998447037
Ni 2.9108856114421426 1.732200360149437 0.33226744915350515 0.3907788841600496 -1.574363341639876 -0.09320531781009109
Ni 8.164422951422742 8.96407929033744 7.150295778579683 -1.049853925862179 -0.7636114682543236 -0.7956363579003524
Ni 8.944126567572487 2.2587629087383663 1.069128236727613 -0.2242323344536461 1.1088149777774192 -0.22640388818366813
Ni 7.1855289008453305 0.8634431546298784 4.676715229919643 -0.5686611705942464 -0.09629989757501478 0.6774121494484204
Ni 0.9875687516700193 7.620975229143582 2.3763401532433313 0.3842356837248931 0.8246294026985928 0.3610589884981137
Ni 7.780333038197418 3.921765915576141 3.7139417413936604 0.7231230212219739 0.28076446521241966 -0.6630815917583612
Ni 7.670247167248821 3.807529295731184 12.731153348360342 1.099461047366345 -0.06890273650898456 -0.7735513530758549
Ni 8.409444571581032 7.254717151637483 9.237445245996543 -1.7706601260255181 -0.4068194825626801 -0.2845470721833035
Ni 7.073922909138637 0.9644028395181935 0.1883320389047124 -0.5517564244191078 -0.525833791016075 -0.1336611118322924
Ni 1.6152420869711224 6.866412771879235 9.097159946071084 1.9218209373044708 0.13921135222656025 0.013243495273467513
Ni 0.20859151657713634 4.824462775339039 1.137668388130685 -0.22808461832020072 -0.09120834198472033 0.11166403873591092
Ni 6.411368719076906 2.089801941601945 7.032938815046849 2.0857321062705565 2.478820869510705 -0.015720753169366473
Ni 3.4010016719148 4.30324340570222 0.2761595188965877 1.4400018613064491 2.085295790064086 -0.0829414739902378
Ni 6.433314893614451 6.020524736375491 4.632272178414225 -0.6184127880960769 -0.5566548901619897 -0.9686631160144608
Ni 5.403646989212724 3.12093535164471 9.37698504957417 -0.5518217304394045 -0.10703836703844147 -1.5148741851353074
P 0.3113471285646872 5.6862529124259815 12.221049975548597 -1.1208672809562632 -0.8630347419496684 0.7943605765117222
P 4.205191065545258 6.317621870647965 12.560159788617437 -0.4429547948326565 1.1754821400876658 0.6750624182693212
P 2.481601688851863 8.795973960034916 1.4063456359904156 -0.04712652117415755 0.000380780378186441 -0.5641206024114156
P 6.438831020437243 8.033201030172949 5.455079865449533 1.5685477633993632 -0.2633508977216626 1.4855288992039706
P 5.0075326477152755 1.0792675332093098 12.722107264471743 -0.6250822296964526 0.22440356992418775 -0.4362503862292874
P 4.166996893683152 6.382013093658581 7.987585574154698 0.17516488750303383 -0.5114073311780999 -0.2395964756145422
P 4.888280539620552 1.2807244949948542 3.864724977069494 0.9458114082272678 -0.39303656984597474 -0.45792067211386944
P 0.3116347681811893 5.848787500788654 3.2778045318646343 -0.5488266523668226 -1.188545143919211 0.9142374900757287
Ni 0.8340911702193567 9.382148908891944 4.6039214711497545 -0.6298680811208701 -0.9211925812373233 0.24532566478883558
Ni 2.1306722541998617 6.602976754753108 4.7712248694834845 -0.5482972622259138 -0.6129723338067959 -1.4502682762294636
Ni 6.02941789793633 5.731401409193391 9.115265767627546 -0.526703338105222 0.33696620921496806 -1.0685952110254242
Ni 8.795373193747285 2.6778064968803923 10.035620604987036 -0.05620688620887094 -1.5590925315237343 0.8084227110317432
Ni 2.5208790605356075 5.219193533871034 6.88310133114806 -0.713405536823894 0.9346137397392354 -0.1731691972292437
Ni 0.5040902484237316 0.18847312795711058 9.282288808360383 0.6673941030907862 0.4862981948152979 -0.2744482931864048
Ni 1.5724693477957077 1.1843561209471607 11.312245325194784 0.8451457774843896 -0.08810424913809987 -0.3159561826222042
Ni 4.100120682846427 7.037895136919805 1.3498044258048434 -0.041058460603206705 -1.6641012697266566 0.20396407112291323
Ni 5.8241105703982425 8.186405536038325 7.838934148548004 -0.43089786366812244 -0.20896460966129815 0.35970093180832247
Ni 5.367418961564683 3.312206594099059 4.769639210584921 0.9642765569109908 -1.8357177777568 -0.7992850103965331
Ni 0.8302599197577837 7.488861260981852 6.638407401692113 -0.3181423916402456 -0.09517015484594578 -0.06662139667397558
Ni 5.405558518309731 4.650131321691978 6.648266340572916 -1.364529956220379 1.0481793663732337 2.1367664471395527
Ni 0.9300226233305917 7.605318895587141 11.506859923064995 0.21113179251594608 0.5189609751556417 -0.6953797896704347
Ni 4.381306613016193 0.5845947514701673 10.583360165214952 1.3163670233619071 -0.17006176194851358 -0.07362148214089256
Ni 8.282883140320132 7.64243897014712 3.9406900536365126 -0.24006313083831557 -1.2290029948239414 2.2195657391249712
Ni 7.296443101069299 6.445758037784017 6.934392208080519 0.6517350563972905 -0.6672066696703284 -0.35582293691015493
Ni 2.306168830344146 5.53749043608127 2.380150467910032 0.7264880810394649 -1.058235722167971 0.3808554543987505
Ni 2.389529704012681 5.65186359371887 11.531932813054073 0.5587004598371088 -0.6525657798287019 -0.9743570810754446
Ni 1.2743982439357113 3.559786022239536 3.5954251168753095 -0.8466120776172711 0.2408393468827078 -0.8693838240961479
Ni 1.434101948730912 1.306411805050828 2.537208980535755 0.6855640891315934 -0.11918914346836249 -0.31595078330556553
Ni 1.2150498167333912 3.169451780630656 7.875317829279659 -0.3438840193807239 0.5074820279817647 0.04828634581021362
Ni 3.8658764457874533 2.7075717356766487 6.652915907538398 -0.9681450387274616 0.7868007618865933 1.001696392320346
Ni 4.4978643753360865 6.91165229384174 5.746455155958298 -0.7763957645031854 0.7633715843293757 0.6515874750758327
Ni 0.5315989726335678 0.09686082035316095 0.05238317927360617 1.2310951014662797 -0.29469393080931827 0.95665246470683
P 0.1952053513863799 5.812058834567587 7.800938411611205 -0.15361621479798063 -1.1524885074059699 0.47579189596733534
P 8.433757401191063 1.7818819116326061 7.907690939915404 2.022242313247027 1.4695908878174755 0.5421957773138661
P 2.219640279886285 3.736784514102897 10.328581554394365 0.27846975564097204 -1.2213269663359223 -1.0537889992505272
P 4.067988788977686 6.4114779493110206 3.5322099393853286 0.512739162615646 -1.3511764177316083 -0.07931827541535373
P 6.832041658211143 4.114165870449675 10.654208715565648 2.1634624683735 1.4594921088205768 -1.8232877795235631
P 6.25877408201867 8.093851117665135 10.057256383609305 0.3887752234664595 -0.978112948573451 -0.3842585665430286
P 2.6252758567907315 8.363658898447953 5.7489601693273285 0.046436437085668414 1.188966547727346 1.2395496599915363
P 7.182998400421673 3.9334990632239615 1.5453119808389404 -0.2032873567708628 0.18678987333647185 -1.118833538355686
Ni 5.375156103147806 3.033432831599326 0.47841386139116954 0.277512019713393 -0.909617474805214 -0.7356723186418943
Ni 1.3547825937246207 0.7362773160735451 6.952244069342664 0.5425446760128527 0.8474718545144049 0.3302435457791538
Ni 6.954871056473123 0.9826078785373101 9.152820942620082 -1.1701730691699266 -0.7697623183470679 1.1394661270043729
Ni 2.838748144328893 1.7412391620224283 9.0231801290091 -0.22372222758644694 0.14303432551707626 0.3870443568182818
Ni 6.613126064006266 1.9906572991038358 2.4815343302074924 0.08571363741873625 -0.3563695534422443 0.4066158511923062
Ni 4.154735799903777 6.999427889472412 10.185644690535772 0.3683735198816559 0.42933668982858963 0.2077633902643454
Ni 8.33817184382119 7.25808508385602 0.2410074090545754 -0.11509260480148566 -0.799676589407997 -0.5403630949805016
Ni 7.765951057372316 4.154890542735439 8.386100250046818 -0.01776118063816296 -0.03604712343154437 -0.8862841993959122
Ni 3.136691812915756 8.51043702553958 12.593958353808377 0.8719317873289821 -0.4100549587808422 -0.25543935618406977
Ni 0.3996625036022749 4.87018473083555 10.038684513053953 -0.12205798037572527 1.3603064050573348 0.4982494536399033
Ni 8.903911636379258 2.4540665673354494 5.8387137424474265 -0.19895761904725734 0.9088859959558283 -0.0309905348442434
Ni 3.8506570331674714 2.813024424194881 11.628587006214365 -0.5621804479659093 -1.3769411854005384 -0.49513867592506333
Ni 1.6259557524338726 3.3315767556153992 12.446625883278617 -2.260124377273624 0.5087727217687303 -0.4693721084839207
Ni 3.305634575013158 8.48964687097975 7.884483156173833 -0.024579232001260897 -0.09276720183140798 0.5394711792938516
Ni 5.941715122461735 8.329579065404168 3.279602279467772 -0.4581667266864045 -0.22877110286426405 0.4192456241411748
Ni 3.3997091141444433 8.515452513789349 3.6943840679754234 0.21593435611091197 -0.6120832463336233 -1.6319578522248925
Ni 3.613982423399446 4.321011523784878 8.678568753148681 -0.4346498745113869 0.2647801739690214 1.0170232524854033
Ni 6.991171904277241 6.1621235298661805 11.205838692631952 1.7132471353236882 0.3105362971582136 0.804465526156208
Ni 8.393096446541865 0.03753514944961465 2.3187739993609826 -1.3419394725143727 1.7712707630263236 -1.025420475410163
Ni 4.63669600289587 0.09820526248472271 1.4424225618145992 0.9347659490463835 2.586551377520165 -0.4660954946151779
Ni 6.067803222708137 5.628242555591567 0.24036932243695536 -0.23857163389445363 0.38760357175586146 -0.009598185211396373
Ni 8.047974419336962 -0.35349452464979514 11.132565231083907 -0.2542890446297104 1.058917321616028 0.6365925443288971
Ni 0.35041241154385866 5.0984122024987055 5.577886507412739 -1.3225726379519869 0.20409416894287433 -0.07758997987033735
Ni 7.23232495364397 6.005978910199217 2.361272752699159 0.589732646552565 0.4386373984042252 -0.21423819935541166
P 8.721660990758881 1.9311996416674007 3.7044159547269078 0.6686300323804162 -0.8987201111664199 -1.6767009607685381
P 1.9734535372307704 3.3522030648240584 1.4251295952503402 -1.7122179227282253 0.1323778742444946 0.872517227518807
P 4.8205213843914 1.2839740944597666 8.237021916275125 -0.5436317384294443 -0.46512978826779894 0.10327350067937052
P 8.742423837760184 1.549977022087589 12.141461185964822 -0.8028475309368108 1.4568834675531361 -0.41015291781128715
P 6.6203625670163655 7.97690194700633 1.2577815945710127 -0.1474098288769526 -0.34922677174987593 -0.16138968809581236
P 1.7998502851444744 3.4727568332086487 5.629018090253781 1.3074370678621288 -1.4246477474478818 2.2998417504679036
P 7.167997448269921 4.260206693461029 5.677631916198479 0.8698188547510374 -0.19843234267140664 1.9347404735796165
P 2.5898488508595308 8.559262940188852 10.319215972070982 -1.6627704667303753 0.1721816365049938 -1.0375306284101358
