# total energy = -340898.71146155946 ev
CRYSTAL
PRIMVEC
9.01878383775086 0.00000000000000 0.00000000000000

0.00000000000000 9.01878383775086 0.00000000000000

0.00000000000000 0.00000000000000 13.19990177919336

PRIMCOORD
 96 1
Ni 6.288896987513786 2.0247259294544793 11.216167794148777 0.8128020710463614 -0.22879578545461243 1.1142232932771843
Ni 4.591679164491839 0.3120472057645451 5.943110512427103 0.06378367011486434 0.5551693067553988 -0.5731426034043677
Ni 2.7431351720082113 1.6589601431330114 4.639659994943777 0.0494561977485987 -0.6213549014435363 0.7565710164677745
Ni 3.496528276016253 4.215298269912644 4.906627712929716 0.04241728862394631 0.5181006840378756 -0.6550268397746849
Ni 4.993393822109228 4.697433420592183 2.730228390846247 0.8907864581416401 0.5318344886842001 -0.056700795126153954
Ni 7.301994983101692 6.139960795697218 2.6526127394732675 -0.20808452104919004 -0.46642870958488064 -0.2726858019693433
Ni 5.108085692723936 4.639541848879057 11.429912964673946 0.48110250954697137 -0.31965085786497205 -0.18564393265748674
Ni 5.562713553525763 7.800363944200863 12.38975774893696 0.19165748584141828 0.5813251392151602 0.012783782028229596
Ni 1.8128566659111336 6.496148633871102 0.43167595850353513 0.34499602149798003 -0.24484384005641058 -0.7889378628342543
Ni 2.65838566283416 1.5604840453708035 0.42424357896641307 0.5430303574000196 -0.7938345288049231 -0.08108873705221518
Ni 0.5544522667072207 0.06015979578009053 4.745048088431323 0.32127708061448546 0.19329142190041548 0.41711520806173324
Ni 8.604803363195085 2.430571189945308 1.3287545185357499 0.1471714876139014 -0.6433231781845115 1.1020984849891924
Ni 6.991352001938445 0.7153167016687921 4.809450320001078 -0.7794710609943996 -0.5277888578599168 0.35740956467098445
Ni 0.6333585060085609 7.347124976068272 2.4089026605485246 -0.0733887973047962 0.05671210798006362 0.7019985805385328
Ni 7.504890556996407 3.931792808500884 3.947892239045377 0.4301956953947752 -0.2582493148290391 -0.7836118226356504
Ni 7.701932940356487 3.708947685357153 12.677990856694262 -0.21812442178369532 0.48076106704715266 -1.0058448672710807
Ni 7.872613419351798 8.591212056360424 7.14661126291346 -0.34456073373277435 0.47857871468385316 -1.1137101010861916
Ni 6.901055940871019 0.7497441041770508 0.3267730755718657 -0.38256523800100567 -0.24344310305414205 -0.3355173925835835
Ni 1.7817869565246691 6.3781468696875026 9.289866555390176 0.3635570723296191 -0.47311460624548846 -0.4448995772638532
Ni 0.1708752847203453 4.861593319068939 1.448028833080578 -0.8428047880560388 -0.2693330834470265 0.006399218658124463
Ni 6.363527421526266 1.8943323566505592 6.966525094536686 0.9516339284463159 0.8146923460905388 -0.6067019274170519
Ni 3.3890153571204498 4.392057409031749 0.5098228162285793 0.05890731585916952 -0.036188534105415095 0.13918872651874092
Ni 6.029426584306649 5.705102108473079 4.946293224933375 -0.7989283983880627 0.2922354419664967 -0.6455831778632818
Ni 5.267122922134942 2.7949120084632746 9.248431558050777 0.08897276778598226 0.15902838695248742 -0.7443423356120665
P 0.22521976885678055 5.505723860169284 12.330199506020753 0.6252501227328845 -0.49240687881619716 0.4328963821553899
P 4.01191568170534 6.195895291376421 12.631249207104354 -0.07141958939356732 -0.06295268957313674 -0.007033509808013694
P 2.3535958722055472 8.381678657760794 1.4704161595276086 0.3220671806159485 1.0018997665804035 -0.2824022579261588
P 6.1637523467455475 7.785654308203963 5.841893606339046 2.00781199675431 -0.829992723893035 -1.1061916812219594
P 4.781858253557841 1.083606845510513 12.579135970022262 -0.14466903290702182 -0.007349498386535729 -0.3309858232618171
P 3.8755697117475543 6.1838461965316265 8.04244883832693 -0.040416456143833615 -0.244416779821321 1.3507195326998478
P 4.581036999883413 1.0160561565977062 3.612285264970161 1.054586555451158 0.0764718071054941 0.05098780390177671
P 0.23508902371356086 5.564995305768077 3.6829312004029777 -0.2862589126680876 -0.2227719478580357 -0.42768295627525055
Ni 1.3357269401109821 1.0148205832491008 2.655608779374046 0.5322132121798576 0.5448573833064294 -0.8466938386977999
Ni 1.7370718276021462 6.693921538700066 4.83412030056878 0.36605104239606634 -0.38036334525368043 -0.33852378351007506
Ni 5.831509378940621 5.600980252198264 9.240709675561172 0.9362818714702779 -0.5089303303925171 -0.82570746625412
Ni 8.648562501059562 2.2325096840422174 10.164399058384593 0.280303209305285 0.0611446898301205 0.13607383503884307
Ni 2.3063645026679813 5.259925932848905 6.813129114246503 -0.49603367693550704 -0.3363658566268078 0.9567411677658942
Ni 0.6518677555220126 8.90471399191424 8.978374906693327 -0.2844344578648392 0.5867802487924605 0.8670549188526551
Ni 1.5841763897999013 1.1109067033661961 11.391739159472179 -0.3891935419508007 0.1687697826099674 -0.07861250759758073
Ni 3.9974315152976008 6.8663065677894375 1.624524623719543 0.6741828438778454 0.09150504728953274 0.2765278014232528
Ni 5.600763801392669 7.76541615788082 7.887666671002581 -1.075574984777367 0.2896856789614495 1.2614192063711178
Ni 5.352350426838016 2.7744032946331383 4.685846087465991 0.035796955093951255 -0.1077958140297563 0.6618824292439375
Ni 0.839568482863951 7.398423816994313 7.043361523009524 0.05387592408284915 -0.7688112672877082 -0.3529132194625277
Ni 4.847460885220292 4.53394993088291 7.059636819833562 0.8715906019394797 0.014794384700355169 -0.25308036903358994
Ni 8.182958780657351 7.100641621196843 9.1758979912175 -0.19175313087901816 -0.5302116083687965 -0.13371716188120844
Ni 4.520629187555244 0.333294557968775 10.372786169592926 0.3756230023552176 -0.6416151943544692 0.0011356562663399794
Ni 8.231597080431285 7.207649488212923 4.774879518834113 -1.0685026513116178 -0.0816726345801432 0.43310412729082187
Ni 7.23364162245147 6.011713693382116 7.078644808078239 0.19974746193840437 -0.05083996547000277 0.0521334874704457
Ni 2.253830088393335 5.254307230686998 2.603522598642653 0.25968810415809473 -0.19030534268889807 0.6673236548641669
Ni 2.5050032107193263 5.130632651640093 11.432619501622241 -1.2900286425776943 0.0664578745129178 0.12563438487307393
Ni 1.061979802518135 3.3511905788427043 3.8349274654836467 -0.3677140319207861 0.3603588771072955 -0.6819786857731803
Ni 3.7956632893486937 2.781528133650644 2.5473040112811067 -0.7529228781922259 -0.8528459743421247 -0.20218615328688408
Ni 1.1628368591418892 3.272763236948743 8.15167803173543 0.027933750295790604 0.14364856206230742 0.21590813085866686
Ni 3.698341595882993 2.506888136484717 6.985625074373742 -0.4311079227963995 -0.21974370255467315 0.02432674967082262
Ni 3.997359365029069 6.948061840819423 5.955109102083925 0.256725421985345 -0.14794101879007424 -0.12396085382539296
Ni 0.7790551507680552 7.487610567683064 11.51596388431664 0.06568114424789333 -0.48373429074286367 -0.4827459586876654
P 0.2467917972694031 5.357328795366703 8.06220899312105 -0.1958735808052949 1.4202213362454121 -0.9117118954403975
P 8.52791823329099 1.5429244737669003 7.962867092136461 -0.4623401413378037 0.5502520719594395 -0.0622158114071122
P 1.8581760533326095 3.270030545528105 10.428569149708212 -0.45230306881677584 -1.1642906422472208 -0.4109157641192407
P 3.8285457742320173 6.144542337748981 3.899277388108715 0.5217884173021079 0.20794799547132575 -0.49409712203442646
P 6.998089033262593 3.953609245948158 10.321108539757095 -1.0388357203748044 0.030595870508986017 0.5200817190236463
P 6.234685079495778 7.658741985856698 10.128944416428112 -0.17266448967868328 0.236700899234302 0.26701009174080464
P 2.478064104206301 8.61047617805839 5.814095009752139 -1.1984755156590456 0.11690214720639867 -0.05142643410109207
P 6.902057025846896 4.014080189761291 1.6792785606298957 0.16548057033573435 0.48724898876434153 -0.4462442642172056
Ni 5.3660409402919065 3.161787105163418 0.23671511039059412 0.13191224746198574 -1.212452546664428 0.2788397373858811
Ni 1.378277560977554 1.1185365942634236 6.966551249009029 0.5501880514907234 0.3066457038545558 -0.6046316751515846
Ni 6.859145653637666 0.6680591776588835 9.100949194145123 -0.6486463901696378 -0.22795503472087195 0.4008223844389807
Ni 2.73702043675015 1.4680324950309926 9.187448347331069 0.11074975445175765 0.7901866476396907 -0.11203556314271673
Ni 6.250007992775198 2.0643183893112513 2.4793898653905715 0.7820362506184145 -0.21032986543994098 0.09485545181900439
Ni 4.105323223103196 6.690584588780475 10.353038641095798 -0.3447016301860128 1.2877619580307047 0.03928568497350008
Ni 8.145566903990796 7.001696546689178 0.28461747742550497 -0.3119619738611466 0.5729474566744261 0.5226561646190419
Ni 7.665560186232943 3.7602645638503267 8.19624074321568 -0.18955972277212516 -0.3805345807242221 -0.40043980428858134
Ni 3.0656198159942245 8.251871305888693 12.229933179720602 0.5437340683352636 0.35370409079493925 1.1086486274028842
Ni 0.021840788162903118 4.761051919870011 10.170801492838423 0.7394803795340747 -0.46721212471812434 0.6523330949926056
Ni 8.565905349672931 2.4470214511705364 5.702871763297091 0.2912977606435757 -0.021354297306059998 1.087631658831585
Ni 3.7142417113106667 2.666746075200271 11.457567260723794 -0.17088245807759603 -0.07890355647543831 0.04344907232257034
Ni 1.1607805764887356 3.413014340190807 12.811494106071898 -0.08519453169047263 0.060782935615327584 -1.3797562862518302
Ni 2.925305581267195 8.28775704569965 8.05935815563569 1.4697446397865204 -0.12373639651941272 -0.6837897708399902
Ni 5.796038503173723 7.964361504573424 3.5613462735084216 -1.0722806302968113 0.15664188899818185 0.036417876507401796
Ni 3.112896279449622 8.34106707536101 3.6428823900977427 0.4204805249895404 -0.11667871834168292 -0.33090894727729464
Ni 3.4639343922070562 4.281829836282441 9.283913256357955 -0.23297485653296648 0.4455536659080842 -0.571637222503435
Ni 7.344500510050431 6.132439130202788 11.315892993434941 -0.5643460881586604 -0.6282120335746858 0.24771756205977982
Ni 0.5292564910575934 8.964346188855693 0.34738460353465994 0.21613207394401487 0.07177208763697962 0.1237111997084321
Ni 4.634022353336382 0.3432981927006956 1.4217345695925554 -0.27625526448815646 -0.728913402651506 0.5486081085981132
Ni 5.988833039474 5.608339579588498 0.3946322068826456 0.04191386662496652 0.4614821642128827 0.4105090155991252
Ni 7.857173261886013 8.787451767983091 11.126104417697364 0.10234893198257212 0.4621313677611073 0.6887622843539171
Ni 0.07286365431181012 4.927619833559014 5.8097650917618795 -0.1614573081089542 -0.4717285245312392 0.0880055187767065
Ni 7.924029504464202 9.006545077163173 2.5129180951772536 -0.2260380202038172 -0.594679191924563 -0.290466522991532
P 8.481597760893635 1.7158416110866928 3.6106745102251905 -0.18336439259469067 0.6286576057525367 -0.09858278007192055
P 1.8629199334885689 3.178138159769415 1.669721355684515 -0.6026449837388589 0.13978265134899798 0.29941319066185856
P 4.852267896861217 0.9339762073593276 8.0825634857522 -1.4203583760439087 -0.0665730599345434 1.3097919412475507
P 8.60494766373215 1.519015678532207 12.383394997130821 -0.08898588041210483 0.827267097431756 -0.4103269814953062
P 6.341305138818502 7.759734324233948 1.3971701087925805 0.06981907767566685 -0.18617049458491808 -0.34033975367289127
P 1.8372795318091153 3.24796158214097 5.923231309689906 -0.43530781981036 -0.4031281497540218 0.6750084251029342
P 6.779085911918175 3.944229711039036 6.073604193728611 0.14911318472130447 0.24167804073391927 0.02752957287883646
P 2.371272687995815 8.2604211127097 10.175526433548894 0.04003310466248589 1.4453009049218593 0.7746348159480207
