# total energy = -381171.1136334567 ev
CRYSTAL
PRIMVEC
9.14606139065326 0.00000000000000 0.00000000000000
0.00000000000000 9.14606139065326 0.00000000000000
0.00000000000000 0.00000000000000 13.38618534327167
PRIMCOORD
 96 1
Ni 9.143939382401738 7.504288394531862 5.347834641648204 -0.13665901811835174 -0.7167379436312366 0.034874186169365745
Ni 4.958720038005568 1.916529700654689 2.976257296271552 -0.2310367589699892 0.6993107492937246 -0.017491986137176327
Ni 3.2841402421508477 5.883295371649965 8.419549379380301 0.84892529913148 -0.06635297350393735 -1.593133166048211
Ni 6.0539791670448775 5.4828076408198045 3.8540029670083813 0.14715528966398528 1.2594212021044828 0.27477045241251385
Ni 3.617569051759515 4.728595990425919 12.924589108823566 -3.0300191074334974 0.5969052530416042 0.21878468107551355
Ni 3.1993196699457025 8.559560943704783 7.764884374440159 0.1020249729842501 -0.8141572995226753 0.9528708861772107
Ni 6.621611167558996 2.0295292876284403 7.252500986231371 0.18740051033727725 -0.723249005276877 -0.591996245775761
Ni 2.9184990047541155 0.7928007120984307 11.908136102099158 1.4556046008407124 -1.956998256536552 2.6647759056507074
Ni 1.139708986804784 8.796224425091493 9.596837702725574 0.6474793664447301 -0.28003761434872415 -0.06874949876057193
Ni 5.608282455363949 4.6566439264257165 0.03528458976819389 3.8301078446782486 2.5047103356829568 4.026821661996651
Ni 0.42906002623331646 4.159473181925017 1.615806291536466 -1.8115537789160865 -2.2206309471646914 -0.9740117819208838
Ni 6.69335287215002 6.613315689988362 9.293332061769439 0.20257284720234145 0.39905012302990633 2.0163431741537727
Ni 1.9785765803009803 1.4795308932402136 7.914970325252022 -2.2038303306675853 0.5749151219237583 1.2100421374507224
Ni 1.42780991676619 6.2846245401168375 9.579970536533995 -0.3118863834282048 -1.4848534704035008 -0.17047108157179028
Ni 6.379725285187907 1.657943110407107 10.541259074716743 -0.2711863346056813 -0.8823396129258675 -0.47538489033690384
Ni 3.2157368499228687 7.575453897262965 10.103878876547366 2.8562148477234164 0.49672864612000256 -0.31978892610473314
Ni 8.317867128620335 4.376820181912408 13.020113316531372 -0.5983517556801436 0.07816539275783313 -0.04454153405580071
Ni 8.873453766443687 6.855658875422881 10.992200137929096 -0.43449200877728394 0.7273324313176313 -0.932541173480923
Ni 8.814443379138575 7.2143856905005395 8.421797481240127 -0.05627630599422566 1.650865744872989 0.09968809732095735
Ni 6.735269270944087 3.9730124308417407 8.466306788403848 1.1310277664290327 0.038813630433088 0.03712518698707154
Ni 7.133443048273287 8.579764593047157 7.247936187052204 0.20197866526176828 -0.44005304780482923 0.4611152677917672
Ni 5.842256994737685 2.2742595950540685 0.8519418880796827 -0.10941586613168253 1.0691909356278941 -1.419409124756762
Ni 2.7593941229252703 0.5406611804390965 2.9593242784388365 -0.9311527777738285 1.1768831342002504 3.4301416375919764
Ni 8.313952614397369 1.8600710644435219 0.7093913771470329 0.6644825858709459 0.04605617092811423 -1.5167189516535298
P 0.06778420388009418 3.7082888334829174 9.189000197059956 0.33538343810888044 -0.43930202857141765 0.8060734940732763
Ni 6.7688810461062525 4.033394727337144 5.891822244570696 0.09332461699677476 -0.7691036017171464 -0.25366863743689216
P 9.27630118108115 2.155497989481089 2.6121672308659774 0.7345055520273028 1.1684530011550265 1.4804121468026956
Ni 0.590413924528114 0.33190873422582295 4.35907773765742 -0.06041243964978628 -0.022727523504502797 -1.6750315434859153
P 7.756527618259025 5.904130099219872 5.546338011603866 0.1967549549689837 -0.427747748074915 -0.9329265818447998
P 2.0335261164028258 8.872365385152722 13.638782168136622 0.8705055964054169 -0.7949115639191858 -1.0375586534345937
P 5.004578389206409 7.2555338201480435 8.169026871353259 -1.6057490550400086 2.0290948173924863 0.08962274266515534
Ni 7.720245193206425 4.519599344376774 10.665590631602308 -0.17001316809876527 0.7821434656202401 -0.43328281896053117
Ni 8.649082591401998 5.168091672566726 7.6194034654770455 0.04737771795301518 0.9529511045958425 0.002886577519175674
Ni 2.6930211562989235 3.563305470252816 9.280387641255967 -0.658286227252247 0.03656802893202089 -0.9589068079586454
Ni 1.5508061487065385 1.914599881727011 10.652685539152293 -3.2626401801714713 0.7942837005271998 -2.6088112173596296
Ni 3.607105957668218 5.996871160483638 3.420692766103539 2.275408042905571 -1.7265708490157878 -0.44142241734853005
Ni 5.582700921995629 0.5893932240905365 8.694621745064564 -1.0644068839756893 -2.153489416321188 -0.03505159228749447
Ni 8.47902987423462 2.4314438040165047 4.765401570183084 2.29791933663421 0.4173000703790297 -0.14274507641143158
Ni 3.334708814905026 0.8911144684931654 9.71254726765322 1.5566445842038739 0.21722299301534848 -1.1016135749329736
Ni 3.3467175933507187 3.028654166673327 11.370386112961864 1.984549169571627 0.028979675061801706 0.8016951624999226
Ni 6.462661768771717 1.5780339731032085 4.840070014380066 -2.347949661718724 -0.061126949218307636 0.20187864934879426
Ni 5.661759475601547 8.478215874781712 11.227113977795119 0.22955040423244982 0.5199565062996916 -0.5213677848249215
Ni 7.202925675730964 2.9072402033324485 2.4056848370595736 -0.27594518944690544 0.8020857130701219 1.1595117328013387
Ni 5.644638048906697 9.19389516905092 1.4543819685699002 -0.4909961145115995 -0.364368769597637 1.0304518671864835
Ni 1.5670769917034064 6.770755988666318 6.87071420687715 0.8029349484442945 -0.500552390741467 0.3138352796244595
Ni 0.5464689293446676 9.038960891160563 7.037759699099407 0.3598217736569029 0.43224126506989435 0.3219455674364198
Ni 3.632687491036537 1.1732933237831424 1.147605696104107 -0.36177272673568667 0.8319087099688253 -3.4220598890251064
Ni 4.894981137024582 8.944957673441728 3.915686748022309 -0.25874630907011564 -1.4560797407049182 -0.5780323273965012
Ni 4.752869637032826 6.953814404957668 5.772270419304108 -2.4870468569649233 -0.693804731873831 -0.2615598672595108
Ni 4.046601639809025 7.258945301001237 12.51035393330055 -1.1594477123326226 0.45937848760631855 1.5752642561875903
Ni 1.7650251957400638 7.616437397807633 11.744944760095496 -0.585817627768875 0.16700472028974464 1.960110576913289
Ni 6.288694537381372 5.987697661031217 7.15364395379728 1.3053645016038162 -1.0215424805119955 -0.5452132239839513
Ni 5.439994928021413 5.89218534320306 11.390117825542776 1.4418612831126911 0.2414589827445777 -0.0454128809171605
Ni 6.697404577292017 7.706187697036563 4.89623780584289 1.1680596223713497 0.9725835341147895 -0.7691259703146496
Ni 4.463662033657918 4.216023278748869 6.986504257143956 0.9316382020506793 1.6707475713985807 0.9918668078244336
Ni 2.679055120741747 3.507011463144484 1.451852168023001 0.7526786233919037 0.571347716287474 -0.899850111005805
P 5.068180099268365 1.3392028751958376 12.593040729411726 -0.5506806748564258 -1.0013981443536366 -2.2701892177087934
Ni 8.819400544346166 1.3750005590012007 9.041645260142902 -1.2001991832183718 0.667819877774295 -0.06874461366456548
P 8.10352003672905 0.5967183045605712 5.74291430645023 -0.29141423161678204 -0.8593603784218747 0.7176612267764544
Ni 2.125983649767265 3.891630777673595 7.05347537617727 -0.518403817100591 0.6248143207470465 -0.9391445377300536
P 4.943180879910189 2.6583484380296 8.91423513903432 0.29073134661714445 -2.021150622844745 -0.16165913970711515
P 3.995475157317462 5.928934217380359 1.349501340184299 0.37116830901797365 -1.1792318369380852 -2.04559872858478
P 7.936576980393 8.682685220502893 9.979856456532678 -0.48892843334929353 0.13735810106790536 0.2003802104263968
Ni 7.605443832162757 5.659610151203422 1.7427874623715507 -0.013854646494905169 0.10200466126927593 0.04651357018050699
Ni 6.330464599195141 7.290197392356098 0.3834861175379295 -2.0384711164010634 -1.1463916504796128 0.13883031473805768
Ni 4.631098977302472 3.6527630955211494 4.811797709786519 -0.09677735143206559 0.42099911649717175 -1.1503974292048962
Ni 2.1104719298556924 7.537314821772835 3.721881709740335 -2.352846070579077 0.4064654416573709 0.40604120963575874
Ni 7.1084743010099665 0.10039265612109101 13.032763233871995 0.017859910999556337 2.0840277219849397 -1.2432232521883815
Ni 1.8342791716660247 1.744867276704034 5.555079816964409 -0.12356413260760654 1.9787752432023276 1.2802875040305306
Ni 8.089252181150009 4.351092311563791 3.782079255798112 1.2241325541055177 2.5098543417777424 -0.20660716517271513
Ni 8.923336384602718 7.808541268693644 13.56047359155473 -1.4015109043201024 -0.14053778434746764 -1.2188527937638172
Ni 5.8807710587398265 3.4542844199309126 11.823602716217849 -0.27635013819480797 -1.8990065105131166 -2.0763033567574887
Ni 3.528257763471479 7.901437812998979 1.8446700118732995 1.0233000866330506 0.17353377965751404 -1.2813313719140127
Ni 5.010889171481753 0.07618943418595235 6.281788346517439 0.4826150895367559 0.513449044198477 0.2090250305855884
Ni 8.849920950799538 7.625409683912145 2.989041660712824 -0.9250055272255102 -1.0549138568835899 -0.16286138754533244
Ni 1.3747170311018737 2.6570771355132625 12.751037108614815 -0.3726410369087582 0.15761325177251564 2.3578198696445845
Ni 2.437461912331254 2.9557326201786513 3.620963155096298 -0.3628662169101815 0.0181167642053688 0.1650905339861673
Ni 2.7456567388998088 8.828016134061203 5.445888649902908 0.49288458978356403 -0.6065756862518328 0.5504186794442908
Ni 7.50516641641365 0.5243263150133481 2.875285694472158 0.27522450923079694 0.21705509997891648 0.21832728182312078
Ni 5.042068094346465 4.174216632690025 2.224328502770313 -0.35804591270340275 -0.1431633948957728 0.4743212249590799
Ni 1.3266727712578334 7.04149769433989 1.4437002836142834 1.795802686729417 -0.49636766323615805 1.6845595375810083
Ni 0.7652500317389787 0.3303054296854346 1.7939761380797412 -0.8562231183444738 -0.5798516399934271 0.08665980338208946
Ni 8.16570410729437 2.319642351068942 11.663677432693207 0.8135302074616377 1.030672467837722 0.40357963546914366
Ni 1.050617203987195 4.323306577429736 11.179566349077966 -0.11482161052828613 0.3127500169800807 -0.8450452473507833
Ni 3.9050571956159237 2.0570132017406313 7.107582560036276 0.6901951601457017 -0.8674061315444868 -0.4865167385840073
Ni 1.3885092914949468 5.151491571364189 3.1692995530437242 0.7188513904298136 1.5834609330657698 1.7944055492715743
Ni 0.5753028021001066 4.826047273243023 5.415019778515203 0.6177291317654909 0.11819875453063514 0.1961124362889784
Ni 4.834553110222836 4.5366658947040115 9.596971235220098 0.3211426119191501 1.7271596316397222 1.2564271524731652
P 3.1790977284807926 5.309352588860501 10.92149376747368 -0.8274319051443942 0.9407208810782379 -0.8991489711737225
Ni 8.914172031211566 3.024053697855213 7.15102086342544 0.6802470477940543 -2.0721026884125795 -0.7407006250944211
P 6.63229376712074 7.5691614071101565 2.5515544536266046 0.5445581068984557 -0.3870209597795141 1.2266193250831132
Ni 0.18824697684903627 0.42016456704346045 11.888284576115627 0.0915451564988488 -1.1052465436998706 0.1432631536984307
P 7.527949255033772 6.407959176324125 12.415178190527076 -0.44572284449609695 -2.338334507226463 0.19030354291668516
P 3.933620344957811 1.6238283018751694 4.885408869300849 -0.20757569973357154 -0.7256151915162085 -0.1577693177344057
P 2.8502053652613593 5.864262418149975 5.318706265719915 -1.3479049460691883 -0.7274625291375922 1.8242948806318386
Ni 1.3567998970766548 5.484920380972855 13.28461100617686 -0.024445534636874027 -0.7710329575293753 -0.991877092237079
