# total energy = -340855.5243746365 ev
CRYSTAL
PRIMVEC
9.37113239099142 0.00000000000000 0.00000000000000
0.00000000000000 9.37113239099142 0.00000000000000
0.00000000000000 0.00000000000000 13.71559950279346
PRIMCOORD
 96 1
Ni 4.781245516092698 2.9875638987043223 8.46982166750487 -0.280587059094291 -0.029282293903885055 1.2191890940573131
Ni 8.466152869128612 6.530629790123297 10.068114235021458 1.285505043675728 -0.14882959204261464 2.282328167064173
Ni 2.995960433430061 5.118437605938148 10.197329032699267 -0.9049650636348673 1.2963851809233415 -3.4864320846535892
Ni 0.6922821056648837 8.236419555734102 0.7999367387852092 0.120211928305922 -0.6273396582720615 1.3024200742635117
Ni 8.690956966824752 2.8599197028345853 11.384907353178157 -1.0579423592972683 0.28382176398150477 -0.22871736680819318
Ni 3.225412612849378 2.3161316257529383 6.308503962097488 0.22758119632122095 0.8967403617322299 2.25386322685526
Ni 1.768051569983358 6.812138610615692 11.008359318145558 -1.6805601866136282 0.36745409339118 -1.925281899269878
Ni 3.0713699367090985 1.3881458581737152 8.676282710432973 -1.6432653068179117 -0.22148382517423146 0.25912194724197957
Ni 2.793328435244074 1.7445581407898016 2.705978234925375 -0.7013951426265791 2.23555131591995 -3.517120000655749
Ni 5.678540824713445 3.82574610347467 6.640722791921789 -0.5770954174045287 0.205209256383924 -2.2825572523558435
Ni 0.4254662838292809 8.680489411815099 8.343720897158937 0.20882936963501453 0.9311602339729963 -0.2563947781188036
Ni 4.212061669918693 8.760069069059487 11.39190290359419 -0.18173122786664186 -0.8383809479567302 -1.406894537229519
Ni 7.8983559505655565 0.01704702714240063 6.883146492956471 -0.0444955113092137 0.7628177687084347 -0.38215437571583216
Ni 3.701578597764809 3.725624923776243 11.460014168877239 3.85250806675032 -3.09577069990801 1.1850049919764367
Ni 7.595808937596284 8.94068827698793 13.435705670258006 -0.01901639320150273 -0.44459515864955684 1.6415110431309667
Ni 8.43894847146252 6.635820752507689 0.0027813521279008886 1.5105706726639467 -1.7675318648091818 0.8845685022563864
Ni 4.644080249596453 2.2533637802250404 0.19894352043146607 -1.2373128002412175 -1.498655666393916 0.225853672107153
Ni 7.010384918788682 1.9052262076121087 4.313898703979043 -0.0481737314917493 0.2862427147181716 -0.5609550601992404
Ni 4.5608833352045925 8.647193778019842 13.693751049180864 0.00014655288019329598 1.5848040773572254 -1.1168051950717475
Ni 6.45946540986966 6.652060925141288 3.830547871770952 2.6870516863297724 1.4184066516341765 -2.255428514459851
Ni 1.2817085351659716 2.9369410409047245 9.368125309983308 -0.06592154239347356 -1.1332165465502355 1.4779978809342482
Ni 9.166345147742152 4.473066452487076 8.512202614265085 2.949369000580598 1.4972557007225955 -2.1742302484129654
Ni 1.3854469720118707 5.74235823708206 13.228942876863195 -0.4045391711689355 0.23814328810778337 0.6636930000901151
Ni 0.12619073321799384 3.7574118052379673 2.6255495530759068 0.5325803657112892 -1.0224588216786779 0.5551513090332697
P 7.113130015588902 3.355371478448197 2.0896266675068857 0.48097112617542975 -2.56272419319358 -1.5110944063779008
P 8.631993801094454 1.0079027855938416 12.343504862202803 0.46998583080851963 -0.07986052107206892 0.5115358863361641
P 1.853188308804044 2.8251246878383047 0.5243223606393431 2.4612700051111354 0.9117874858733394 0.8642027941158407
P 6.010335142235207 1.3910040535881687 6.4727480530842385 -0.4659949644815716 -0.008142426601476299 -1.253923412214705
P 8.822649491937256 3.8331680404197424 4.859313609663801 -0.025089595978776146 -0.805572900287774 -1.1871500633438974
P 0.742892780992223 5.987628888172188 1.9502760529101477 2.1256541392764747 -0.6935609912941411 -1.582117788774314
P 9.182604062640765 1.5857924138662949 8.639881483325095 -0.7786087129941043 -0.8598054363790935 -0.673692277394672
P 2.6225864009773816 7.888769282011505 13.120274287205676 -1.6233521128337525 0.564229360075138 -0.3501875930012485
Ni 6.635370938147382 3.2168848822685496 13.384766068179692 -5.4453260155509575 -3.599752685156316 -2.595494702756382
Ni 5.372582719511842 4.546864120975012 1.4051216647090672 0.07581669001999845 0.61416815388711 0.4952327783007664
Ni 2.0596812135826696 3.283963448749394 4.542318184596154 0.2846424601105872 0.4482029306054733 -0.8404113481231978
Ni 6.590895543271985 8.761006182310126 10.143988546472814 -0.454768756748449 -0.9919832787976399 -0.3956508675403702
Ni 3.587485059499333 6.271911563886478 12.088847147681008 0.21274130309491102 0.06671061395367221 1.5867349758313511
Ni 2.5691428322933563 8.089077239335904 8.907513530802005 1.8813461171188761 -0.1983297556552713 -0.3454482785440502
Ni 5.15674679562433 5.428331586792442 8.971661744148097 -0.3280128566764222 -0.3959545148237181 0.690491608340198
Ni 3.897594576401274 9.082351687087248 2.2510041290599276 -4.312206656700218 -3.308554169094767 1.8670091316709136
Ni 7.798094203879534 2.6171042884611353 6.46174821774822 1.0441625319043566 0.6204259618713638 0.876597825346084
Ni 4.5879752792806086 2.527881735867657 4.453976518458278 0.6490045448400048 0.47092042680764706 -0.5290808371984631
Ni 1.730135967862445 0.17629911584298996 10.54862655119336 0.49048009410712945 0.7311302077971666 -0.20314080389066952
Ni 6.050303022375022 3.230473024402836 11.093136205477999 -1.105830698338115 -0.04444511768725249 0.7831248556969029
Ni 6.232356013576944 0.7123644426261088 11.93306518934754 -0.3599241035627221 1.8562853174955065 0.17614447780748374
Ni 5.812519906157512 7.962904311269671 6.523482427360662 -0.44240714985930263 0.2412026437593975 0.6910222840326873
Ni 1.1671089557451495 8.663780682556178 4.878254542685747 0.12195153670484803 0.4548859990526037 -1.01412124834726
Ni 5.078113622763088 5.954867408929798 5.256407852716692 -1.5567821382230027 -0.6561655813648183 1.0405532172865435
Ni 0.45277188972644267 8.262190170126715 12.041884654238412 -0.59714462274592 -0.9445448828100184 2.512329799901428
Ni 5.398671952409671 0.10068344764881115 4.596152529505697 -0.14011458076711997 0.3031785712415617 -0.0708223221292006
Ni 1.7066800231989143 0.6134380823222485 13.246608398751018 0.2831774455292865 1.0716735928404317 0.0287359344821118
Ni 0.4365317170928435 1.7051337863353575 3.6741624125040713 0.5581132198750711 -0.28424548178248465 0.6250979134257363
Ni 0.13799086327005855 7.204545413188878 6.212700063144761 -0.681314312716304 -0.2653563581874656 2.987805450179925
Ni 0.9484429498407043 4.303327129398568 6.32947468242032 -1.3585439138402733 0.520999088631593 -0.5569757638365181
Ni 2.414912733502949 4.274745175254034 7.990667228433146 1.950105643181777 0.7358939477343971 -0.09233937026537001
Ni 6.488244157796829 4.084201938001309 3.8420415657900566 -0.5203701967983425 2.0049922679173275 1.9109359149608507
P 5.291400598608857 4.969155465111123 12.459717213527975 -0.07161910699888312 -2.048945790680142 1.1863609917836988
P 7.942775118645915 7.524250969777379 1.8710543729275044 1.1677289785048084 1.4347611817328 1.0493569316211024
P 2.4145378882026933 0.3459559729654403 6.851092534218314 0.12987773353046017 -1.14399898187772 -0.027544485277171918
P 7.341007844747142 7.25963830119403 12.192290393852955 -0.7834485575849088 0.8273969381414009 -3.410924955454209
P 1.34888081297188 9.227173168841224 2.6975432785563607 0.3423117897975976 0.6670716867543609 0.506174879134567
P 6.916448686544482 4.951041065976242 7.897181747662504 0.40822304777842594 1.0713691742261355 -2.7240094945010442
P 4.66777984370515 6.2712930691410556 2.7684255877215542 -1.0518485876947046 0.05796860609498404 -0.30673286425172336
P 0.2729436053815407 4.85815440057276 11.39363094042837 -0.01719682349426071 1.52153051410956 0.09825265042601143
Ni 2.467981456886718 4.41899501792512 2.4549555827028158 0.5784588734109586 0.23067757585835755 -1.0721371627404117
Ni 2.488007567052905 6.8561923045282995 3.389686691460149 -0.27813576934032097 -0.019094554737605827 0.30797393574767606
Ni 8.281869548390166 0.07571312797224543 4.24803651049753 -0.30200409131748635 -2.3059962001050733 0.7060249280891066
Ni 7.783568948494607 7.3822876834378555 8.204287816596143 -1.7898127876945693 -0.36547151574351244 -1.6405623060644519
Ni 8.005617933233863 5.34055218860495 2.1130385678476364 -2.8851055626158377 1.9254472212031484 0.026969586610308394
Ni 3.476690159876111 8.152173074501526 5.666284320508319 -0.22615911916271375 -0.5154709597245123 0.07037983527514331
Ni 0.6912503439759285 1.5955665050704748 6.318859063517065 -0.22998672043892002 -0.1396165580847789 0.39398067892679894
Ni 1.6650628237379714 3.313876103709837 11.799763640783686 -1.5719539608674347 -1.1015595817665869 1.4191959803046914
Ni 8.12424709963244 4.135921218304156 0.33819011545738287 6.7432371462005225 3.1719650849824017 0.9365122423135289
Ni 3.771712153442741 6.291675282342486 7.311374449535389 -0.6369470994548386 0.4671643021993245 -0.20080855621306706
Ni 9.078940594854917 6.252916278295996 3.7561129662725796 0.7030015678817506 1.5147600281549463 3.056219162867633
Ni 8.75575834810654 9.29906849743036 10.494532625913388 -0.6078303845945403 1.4245623868229274 -2.2429303819928403
Ni 7.486054233681274 4.996753450342483 11.930582776346593 0.12787741527097976 1.1140122057076427 0.042136781269050017
Ni 3.5971279548484234 6.664730696289947 0.8716315251387082 0.16419990385109784 -0.7029522027010539 1.4156242037930329
Ni 7.46578447406992 4.348280452031791 9.643904620061285 -1.7884259346493716 -1.3203149522660615 3.9765985041750413
Ni 6.045261353086576 8.24684962621373 1.5481616941735765 0.32774237662385497 -1.76327360375346 1.307964915341141
Ni 9.29862805420256 2.1800908951574627 0.4168251625451252 -0.6065093517902715 -0.02555959363665921 -1.563554938170462
Ni 7.698151075698728 5.543868279463904 5.901397601074755 -0.41117415998694995 -2.319705065050734 0.3999330398554919
Ni 2.889972924782625 0.8326672932903286 4.549615485478892 0.3980833882412628 -1.4111124319656085 1.8454820562324152
Ni 5.575692645455654 6.6087850352267115 11.138849526957491 1.5374541273183522 1.052365379430123 -1.3968065568658976
Ni 5.1283897486599495 0.4571379003611766 8.218675316333226 0.9304464957354235 -0.9465470008417116 0.2583025366644778
Ni 3.4582758845010257 4.413972090901687 0.046661680089140484 -1.0411440567930068 -0.9225588654572305 -0.03887739379148788
Ni 8.501079079979982 0.7820078880739558 1.8928900487806777 -0.787305983657786 -1.561495741648588 0.9540726197947956
Ni 7.166367419357786 1.8934279517865455 9.631931124057852 0.549851236976595 -1.1282833709146762 -1.217759303589322
P 5.376218718924326 0.7951902601707153 1.8605624529733338 2.71745420988103 4.239121763789086 -0.9797923931584028
P 3.507315020907041 4.61317425459033 5.740609583756366 -0.5959536877616123 -1.7352938307110821 0.3758870546498817
P 4.711833537617758 1.6350564574524638 10.210591996535582 1.690451220475095 -0.057891730110461594 -0.2107312146434177
P 1.3814829829616615 6.311148495690795 8.616482702569854 -0.2937400515364812 -0.5636500905329003 0.3604113276117858
P 3.2570308139259865 1.236558418750114 11.804056556584872 -0.8884459829339215 1.5089845591237496 0.9375802785667273
P 5.479451114614879 7.564668664277502 8.806525521346737 -0.38131002543766584 -0.14719257065982394 -1.0505591794593199
P 1.8996597549033045 6.355061622615807 5.760304892945076 2.4232264200748523 0.24261263673304664 -1.4619562540903532
P 7.649130681557725 7.546198162107378 5.446368205527519 -1.1145518802611964 2.680076797673836 -0.8893422694959459
