# total energy = -340890.0741129381 ev
CRYSTAL
PRIMVEC
9.07075029258288 0.00000000000000 0.00000000000000

0.00000000000000 9.07075029258288 0.00000000000000

0.00000000000000 0.00000000000000 13.27595993868401

PRIMCOORD
 96 1
Ni 6.449630050025578 2.102817630495685 11.457631232794583 0.39851661912393943 -0.5059581351380706 -0.47499845353176257
Ni 4.528998440427237 0.33202846725081614 6.1162881381232355 -0.6122678515406036 -0.8302362073624089 -1.392372946574576
Ni 2.7358290148293682 1.7491127911194826 4.842008265406933 -0.715945015416296 -1.1928908224824166 0.8391345382933032
Ni 3.441370119008467 4.351955534981664 5.204495405277674 0.09156983908919714 -0.14962303447818748 -0.9394458710205563
Ni 4.964213042501152 4.648070180348544 2.1367259094759414 0.3845899817405183 0.4189993124583235 0.26363834705509437
Ni 7.25335295605645 6.204574658411805 2.569668288585713 -0.01619846413673339 -0.07952139256509531 -0.46036964787499424
Ni 5.301000932463684 4.375276434146566 11.540725655579463 0.37009358789655616 0.670127442861549 -0.21919940001542895
Ni 5.7644527803953745 8.113260089791485 12.308235404964654 -0.2373295339572364 -0.841287580080564 0.7222015378489691
Ni 2.116369331527332 6.5691371859639665 0.41214405561883255 -0.5457284730574731 -1.3179119992515238 -0.5322787753104704
Ni 2.4417099345407762 1.2972987158943545 0.3231173621012243 2.7439273164708937 1.188995344082752 1.3856507973593943
Ni 0.5315777184793372 0.32356636424383917 4.572558904861159 -0.11068213443861584 -0.9049450090302092 1.6200220200192552
Ni 8.611897378353536 2.418443459878009 1.180198050025376 -0.4507439518597721 0.3783936231218193 2.0078287089248583
Ni 6.984985736028129 0.7292701871100148 4.865838940741835 -1.303220201567304 0.29604273152772886 -0.42680261055282626
Ni 0.455958501062718 7.252128404758409 2.033253138941599 0.6175267859466977 0.810755730040294 0.5964694510557662
Ni 7.853374021345889 4.011693547632838 3.6460697422890425 -0.3908246497963204 -0.39285710684531694 -0.5770344822596062
Ni 7.769914047321669 3.90448634917699 12.564567553420826 -0.16123927856087716 0.10934464657411491 0.05196276622053631
Ni 8.016955933263375 8.944041044133872 6.8977378166553045 -0.6883987303669112 0.3603920443380761 0.21130791308249414
Ni 6.793919450532404 0.8684327319945037 0.43721016715220173 -0.1525507496479437 -0.7142869109875828 0.47348844464513945
Ni 1.871540708672455 6.355711500841059 9.51919555439777 -0.3007725329032304 0.10918086730274099 -2.1448011445185706
Ni 0.10869480151420816 4.954897381885688 1.36354694111834 -0.32670982159428247 -1.1322390131283144 -0.7027935656360025
Ni 6.180237835207047 1.710716304863149 7.10416541787867 1.55971576693003 0.7951928426050305 0.009834469591918546
Ni 3.3044199301357713 4.115372224200259 0.2851136393352995 -0.2495384173186025 -0.23579921335563905 0.562698011032276
Ni 5.916669042116974 5.4584873001420355 4.542541977783564 0.3312002532654683 -0.004468320183998756 0.5696654434890447
Ni 5.29278283264128 2.795668754926943 9.16719601608847 0.21469071351179803 -0.14823078211635118 0.4713716554124527
P 0.14831674614361753 5.655912181637215 12.54233060892345 0.5888145056136699 0.3864298631627345 0.5867247129641767
P 4.136080747262675 5.882163907763302 12.580578334873946 0.1566092359880335 1.2644186553190742 1.7031267590602346
P 2.334384816330302 8.428341674152458 1.465134809728736 1.8605091257688666 -0.44614836206928965 0.32960668352610334
P 6.340771975004965 7.90575760465095 5.560263840359834 0.5968232348507593 -1.595224244249285 1.433123646129377
P 4.744056860614199 0.943104055998936 12.687078014802037 -0.8471982891380442 0.9974332461686177 0.009317677856500083
P 4.049727203874937 6.198252345413775 8.390818701155393 -0.08948801685950394 -0.3170010789469508 0.013429900252660743
P 4.601011127502369 1.0933156818918917 3.833273702283245 1.3304178450280184 -0.8011565163876331 0.24745093866195447
P 0.36257240492408604 5.655957535388995 3.41047423622139 -0.9375121443329533 -0.007568042155245031 2.103312538356481
Ni 1.0690695661906917 0.913179650574971 2.406692302791999 0.9185196623908505 1.2750990178510555 0.8234037578216078
Ni 1.9519891935785312 6.650755797665948 4.784390859146543 0.2936132961506298 -0.20548667841502674 -0.015297806699334943
Ni 5.985860725831435 5.740841617219084 9.605037507465438 -1.302144709114938 -0.5280526530442649 -2.313564756480951
Ni 8.947460717018028 2.142538446303973 10.437400400669885 -1.2342614150094033 1.1828442368796919 -1.1773947837293466
Ni 2.4718157549718587 5.24742001011165 7.029779822510448 -1.0551905075837442 0.9063377756126777 1.3587753131247888
Ni 0.4903384590614789 8.934562110012003 9.268585235266071 0.3482263555098196 0.7339260253747489 -0.6166420693488993
Ni 1.509499849719222 1.0295845898916558 11.590510468907572 0.2414600111858422 -1.2635645348488949 -1.3884245034497895
Ni 4.3547765383423345 6.967569895344889 1.3878692511225292 -0.7835130922742571 0.7079673965274581 0.39618102901222735
Ni 5.847404792399666 7.858580632050151 7.934245203218548 -0.7516447828107506 1.0205448924854166 0.561680111290723
Ni 5.147623614696536 2.735810873328657 5.123458228673503 0.03357217952849057 -0.20027170987299056 0.510953788580449
Ni 0.6806328237019214 7.479287205920081 6.947309467350051 0.6925315215883622 -0.6218734929511678 -0.16296397456146772
Ni 5.097689133987555 4.529089147930796 7.3500761812510005 0.7939219463124069 0.1997613458954753 -0.2609435738317506
Ni 8.01031614400289 7.226893577268421 9.07597692220985 0.23211945051120667 -0.2531395044062995 0.0022075491742800687
Ni 4.7372265855962405 0.4440449775453383 10.561530898064651 -0.7444557212614792 -0.4830161816299165 -1.5003762486294483
Ni 8.422082856406918 7.182510395777223 4.866011284998596 -0.9044855528952873 0.24917846287602247 -0.37688335712487997
Ni 7.10851121437416 6.022787750530119 7.075754920689097 0.27026176590888296 0.48312185396984536 -1.2963245028887351
Ni 2.3449794527459407 5.186228728211053 2.645288413077368 0.4915941531069147 -0.3930666517529618 -1.0351094205631528
Ni 2.3732348401044283 5.1444760643230545 11.55915288492738 -0.5427778750695814 0.13507573279163188 0.2721070466477378
Ni 1.1788528577476025 3.4995499117909197 3.9747955493352918 0.20838971099443465 -0.8343129485349438 -0.6641766245947529
Ni 3.8202372198718106 2.9287729456487557 3.141543722595971 -0.8280024329358836 0.9846227246675108 -1.4695425510780433
Ni 1.2657506461566914 3.5279232189040335 8.376134970479336 -1.5548882636343995 0.39833947011612686 -0.30650660717353023
Ni 3.5685238974968394 2.848397026745527 7.235186057243744 -0.5985479308513498 -1.3912321481019139 -0.04588313568535969
Ni 4.496516083402922 6.707266572382922 6.2124326494450814 -0.154736701555669 -0.03230102612555082 -1.1731390937767858
Ni 1.0138831210256711 7.41189153077608 11.507376134821127 -0.3539447460508356 -0.23475765946500216 0.6001468999073536
P 0.140877823776781 5.69966948135386 7.965589181073204 0.16358052509954407 -1.2919099187608074 0.38435164047746706
P 8.766462964417302 1.6238094457037042 8.028371472586219 -1.8771683315921024 0.6782881242954705 0.9628699063714514
P 1.8039001232688454 3.2294955321964105 10.7542979492521 0.152015445969764 -0.2854294747882568 -1.242310767676441
P 3.9290771533917126 5.971837345781283 3.846098836211388 0.5749020092976357 1.2016562273798723 -0.5670375189478944
P 7.055801084056288 3.884703042650871 10.222887132579311 0.46124922226647014 -0.0354475421743325 0.12244621695307945
P 6.217872378433489 7.812818696504863 10.22774633354494 0.7417966863720773 0.5547661577797092 -0.07385648096983409
P 2.288740800539641 8.650048954350261 5.61967362689054 0.6715117248035855 -0.7136587904852806 0.032095852093280204
P 6.9149776847816415 3.978258761821157 1.3673838685188668 0.37818099289038093 0.5047633434990211 0.9243799778263692
Ni 5.342644747347414 2.9048261647092994 0.1977423577576348 -0.0361687366110732 -0.02164534618391756 1.0805261581350551
Ni 1.4606085053011646 0.912998235567854 7.096611296982314 0.36062858582891444 1.0836094250460693 -0.42202138711409903
Ni 6.966009726283681 0.9253798098035957 9.38111242880563 0.21554303420976426 -1.0063426328431055 -0.9435856042205426
Ni 2.538304355080274 1.7620386103765757 9.2735106527093 0.8459345919342721 -1.8297882996462422 0.41668943337822434
Ni 6.314330737717648 2.085002676796786 2.8352934207814586 0.6677589426293725 0.5917255086128778 -0.8405728134017265
Ni 3.9323789065212433 6.87023167327621 10.70947755759375 0.8852884111415464 0.2962972707406962 -1.358249779638622
Ni 8.004519934525497 7.514173311788699 0.09566920400320066 -0.3839405210819775 -0.8606968378451112 0.6925968276086588
Ni 7.564261995253729 3.814540788648334 7.785395096954007 0.9309735718834871 -0.9870663011119968 1.0681905193878378
Ni 3.1435048188229064 8.35201130990794 12.409411461508894 0.611558998399037 0.471808228729239 0.34678268108475757
Ni 0.16488447166858633 4.769291688104188 10.54854702600528 -0.8492556858877051 -0.35546966733579427 -1.2107183375821406
Ni 8.483600685320326 2.402297524244587 5.6933426329806505 1.0833479438545666 0.2670031497622692 0.8799310034843749
Ni 3.793632709078089 2.6705558952686372 11.359734252503983 -0.302211322232286 -0.9811954441535164 0.7176897660215447
Ni 1.067436831126638 3.0976340342733493 12.79207739262127 0.09194881969517069 1.1523134152806864 0.05128245232406007
Ni 2.965863243853846 8.021191973679558 7.678629644040489 0.40881902949121207 0.3851563957669496 0.9869554865657454
Ni 5.467775748506431 7.799257924722859 3.544747646664073 0.10353009677486688 0.058647891550195765 0.33203869000636366
Ni 3.163886794872513 8.601701854953555 3.5208380558010757 -0.7475436161581835 -0.49499855080277333 0.06215616181377038
Ni 3.4296053557969235 4.267307292660827 9.428228627379045 0.21800795081048904 0.5984468864971112 -0.11809976705892565
Ni 7.3000310373876784 6.169597845039629 11.43627052278158 0.8921126331522313 0.18314327772282007 -0.10557669489125043
Ni 0.612679297411035 -0.054462599286623434 0.4244467143264784 -2.006650372346041 -0.2064863233241347 -2.377954435610931
Ni 4.655934520907071 0.684756386813693 1.6659467094067921 -0.7189267237524393 -0.9713851429313143 -0.22395208420906593
Ni 6.149324717994293 5.824283449742592 0.22725132281530167 0.12396445336981876 -0.31708052603463455 0.34058452269384576
Ni 8.172891202630876 8.689914902164242 11.270891695218602 -1.1112827225916215 1.0161256803717984 0.026424512740115782
Ni 0.10549010541348465 5.011308378348749 5.627759293757749 0.004392215530424693 -0.6123588685925131 0.9905979684143391
Ni 7.850108551217781 -0.33715434827690965 2.8442816273090754 -0.24160245030097743 0.45926150241248 -0.5993642561050581
P 8.465958075878188 1.8067846218820074 3.5036988730036875 -0.6692537820073442 0.49081382329746437 -0.45097098026891363
P 2.094880723934312 2.9894471947790686 1.7644151469698095 -0.8802667895572388 0.21882093363008767 -0.08815438564974495
P 4.596448540073374 0.8022108119465501 8.219106675693956 -0.3645304919864819 0.8669932123767843 1.150469420093412
P 8.416939740955149 1.5150692904377168 12.506326079535954 0.7616083217813658 -0.09538381351864862 -0.9566722622011716
P 6.284061643780161 8.019513884863725 1.454421346483436 0.4789664370405751 -0.7931999805447177 -0.16363348982466655
P 1.639955381337126 3.100645523391493 6.162408368307578 0.08179373353903978 0.9862602602709336 0.0311910808908237
P 6.836470340451719 3.8152029534243113 5.722243857764474 0.44775144489035146 1.2455423872398614 0.6287506796869752
P 2.3622229491724207 8.486312839676726 10.148674788542884 1.0073623323568717 0.5440035199465663 0.450177794943657
