# total energy = -340891.45274668065 ev
CRYSTAL
PRIMVEC
9.07919986877441 0.00000000000000 0.00000000000000

0.00000000000000 9.07919986877441 0.00000000000000

0.00000000000000 0.00000000000000 13.28832674753689

PRIMCOORD
 96 1
Ni 6.537668427585935 1.710802684010945 11.383405287796279 1.2266766606836101 0.7675946212717878 -0.9253554543657612
Ni 4.898491550231869 0.524760493818602 6.172972409138032 -1.1745650275900352 -1.6814526165209105 -0.8768667627367543
Ni 2.5962334791179043 1.5306713614006677 4.6438717492903665 1.1415083542453823 0.8312589921999682 0.4620192676632753
Ni 3.4801026518715887 4.185738054758219 4.8127394167176645 -0.4560285972974791 0.973114209807279 -0.15791201395985707
Ni 5.314600352981446 4.637092310853215 2.608830868740977 -0.2560790466505977 0.19380512831204041 -0.34020914163229793
Ni 7.670870583279308 6.144303020155851 2.9016922589382492 -0.48737188749545096 0.3113238260565155 -0.48172703050484783
Ni 5.053918370381331 4.433318752150338 11.335753108022084 -0.3667719797224909 0.46759367642725924 0.6749341202215731
Ni 5.622412461371377 7.828830500152978 12.607219672618438 0.4054187455604114 0.8955815655374383 0.32810953015528654
Ni 1.643571210022583 6.521180600879268 0.38640166123844705 0.7028223619914089 0.4037747821990853 0.3053655515905515
Ni 2.707571705386545 1.5541047758995148 0.4911002687457522 0.3070635081182647 -0.7178807989864282 -0.2532480049597058
Ni 0.6280164164890738 0.15125855955418133 4.850371791671663 -1.857670627878807 0.8135518047281923 -0.7462773478512502
Ni 8.69908995251388 2.251523503031997 1.155955538132568 -0.2799098305216083 -0.6793263357519977 1.0662390520884217
Ni 6.892165780978993 0.9300913785706665 4.889944391607609 -0.15553580041819665 -0.6516306696089422 -1.1316587151448123
Ni 0.850075483444828 7.680839544581026 2.969143449560037 -0.6582255492176406 -0.8727288293089809 -1.033786330876355
Ni 7.329583465490986 3.7729522391092143 3.7274554613505266 0.7620577506139584 -0.020261321352197364 0.48498358976893247
Ni 7.7915876228673255 3.7680494712559103 12.355047623923697 -0.48955758229286017 0.07380145936218258 0.4734748177983846
Ni 7.75035897690093 8.991267678971608 6.909065803353326 1.6351452488139386 -0.764841998227315 -0.014458341517175101
Ni 6.7811271683013885 0.8981117133675324 0.4010255282408852 0.7863863000569942 -1.1310668471970844 0.6695592290629049
Ni 1.8644136642147395 6.382123577840003 9.257684992040115 0.511307572375442 1.4931951574999767 -0.45095221121583623
Ni 9.149563526235227 4.555660968489728 1.3939849174104733 -1.0543723825578228 1.5527624755406484 -0.322208077069187
Ni 6.524857676769246 1.8855500411823165 7.184533262711044 -0.6597237310297218 1.2697120425075294 -0.24014463480852835
Ni 3.6877893456573796 4.399644000357923 0.5149476947522116 -1.223909382351118 0.9364214823719357 0.053032859356263506
Ni 6.0191462519006755 5.730264274944335 4.653359513006483 0.12400661946166386 0.22332653480992506 1.293404758138779
Ni 5.481167351197582 2.7342009981897677 9.346437801064537 -0.44800598410331877 0.44001448125741 0.13630369166146203
P 0.049932874745954724 5.5600383592376765 12.495638123797079 0.7714232509892585 -0.45809447868757236 0.007979418661050773
P 4.067653983091422 6.318968664529667 12.723240042186985 -0.8413433730191637 -1.5079946844066545 -1.1983173928146265
P 2.3339626365653294 8.44964801917745 1.3446194926475399 0.6178376323188972 0.13676134802417092 0.6493791545706042
P 6.518411444962124 7.804725224874234 5.603992580962519 -0.2638275802477649 -0.640271021621749 -0.1640150415338014
P 4.949943375092375 1.2010419360635347 12.646327417528294 -1.6085536143683394 -2.5830932437682352 0.1674906587872277
P 3.8528582759183396 6.336745737597758 8.360324128490117 0.9998192299022911 0.6314464813515834 -1.443764670782991
P 4.534542749921608 1.0054850531148065 3.6571070980954254 -0.24845521155675274 0.8707146270924294 0.12493118815846227
P 9.532887338765766 5.6024200635695705 3.7638657760210914 -0.3355742139634479 0.020731061899764293 -0.15239905456142785
Ni 1.4634580458117625 1.0500820821804155 2.523121407465496 -0.7439008771992737 0.4003801546952395 0.2706443460592823
Ni 2.039224575784209 6.55503693666625 5.016236967748799 0.6119557196168235 -0.492950410024493 -0.15283768476074322
Ni 5.811568508511625 5.711660994700965 9.377492295815353 0.4795971286460386 0.9053059919140538 -0.23604089705279993
Ni 8.63512699042772 2.581452541960166 10.076843984569999 0.4890922126206673 -1.8677861190462541 2.1042471343556084
Ni 2.5203949237870753 5.0735566793937315 7.021870320378094 -0.36171127737013187 0.29748126374646827 -0.29820220107289286
Ni 0.543391011661157 9.30690605752737 9.1313397565405 -0.3719535239234304 -0.6883277679196598 0.3740523154339881
Ni 1.6674767429073039 1.1928524979085713 11.304512489676837 -1.3817925999555687 -0.569108285433994 0.4256147608923122
Ni 4.031909173760944 6.881960760484338 1.4996141428899332 0.06530859139982301 0.055620417577781626 0.7320550336042811
Ni 5.8676598044333135 7.776152983329146 7.8539190527623015 -1.5298912273694298 0.11030392516359067 0.16928451746285683
Ni 5.1650659334556766 2.6171337968925443 5.190354228459023 -0.19088358378987125 0.43539163777341794 -1.488364825990869
Ni 0.7780311256804726 7.72672582000806 7.174154829501577 0.47793259645942204 -0.7348313107978377 0.561624061241807
Ni 5.055434596735964 4.607430565340726 7.507479489128145 -0.6804558213707507 -0.4751066969748527 -0.9341964496961588
Ni 8.009415782749672 7.172131983802103 8.999160227295455 0.7292934116987441 0.28197494058075306 0.37854454687738676
Ni 4.570405588848553 0.5243827991099032 10.395949709502013 0.05395665672211353 -0.8281489858160771 0.21873762988766196
Ni 8.716658203988219 7.127916281125084 5.244078577011534 -1.9155721281812814 -0.29141217473425296 -0.6883244254855501
Ni 7.13724061924609 5.932113043304803 7.067343492217487 0.7192342276905291 -0.5474415990938378 -0.8378901243632407
Ni 2.1812595763343694 5.128304253755626 2.529034690248564 1.6807944141116213 1.5601250865533067 0.14130423019984698
Ni 2.3924689996147563 5.180727552987064 11.67550947273621 0.00685198992482691 -0.01836076189537483 -0.45519761675575154
Ni 0.9546142970369144 3.4205703392528597 3.5570588566889763 -0.6895837518139478 -1.2783828308086498 0.9751523232832302
Ni 3.679790570696712 2.990815499311586 2.6120730509639674 -0.5846218076885609 -1.340882749115084 0.28208035581036583
Ni 1.2071159206817943 3.4640597059516107 8.367420430997788 -0.09088052633165639 -0.35860975562667274 -1.4991094661018827
Ni 3.6958879918150593 2.588198387358323 7.161650955635707 -0.3008933747518108 1.0201921371316882 -0.8921614841122957
Ni 4.314898750093592 7.162063151303373 6.011266414456449 -0.3722988230779911 -0.7238940950600435 -0.42450018767189474
Ni 0.6010402982562284 7.284132991650913 11.234496425131793 0.325171273462569 -0.45441420162250773 -0.003326750380387819
P 0.20659628189841725 5.5721590908750125 7.965900086371708 -0.1656849730370566 0.49410354979232973 -0.7113373414409555
P 8.63644347438833 1.7263190363466792 7.941197399750839 -0.5500636100977173 -0.04163541615259927 0.2909912851467505
P 1.8151680848882201 3.2766014691605627 10.500116275905237 0.7348943028252892 -0.12006974630110288 0.02836106764119632
P 4.095962927844387 6.163959487567708 3.669531075003687 -1.3528427496904376 -0.20656011398486362 0.9906357636308099
P 6.9628564300638525 4.157855832392485 10.368628581679491 0.26182700487796845 -1.261211718346002 -0.42809150456757883
P 6.245862948317068 7.809936685518301 10.416745616479776 0.328480283231144 0.43636711431280983 -0.7562542565583039
P 2.3905351300726196 8.689711139194504 5.79810859491436 0.944367733802206 -1.1866229871958338 0.5932871966730427
P 6.910732744423449 3.895539593841269 1.328542953688567 1.5373803366576233 -0.11757680467592008 1.0455784384152766
Ni 5.433111147035476 3.0668628762361667 0.07056354028866305 0.5570217865831052 0.31796909928717493 0.3666028011344783
Ni 1.4634580458117625 1.2352342022404652 7.021312857514774 0.16223300993271414 0.087826569996681 0.0020057175761191265
Ni 6.895752064871688 0.4419155200574127 9.106649780799252 0.08084551069315754 0.45420259983233396 1.4935165453951376
Ni 2.845984105245097 1.7805763339232428 9.18531650684546 -0.5494892256514858 -0.5578049446060329 0.6697032108399369
Ni 6.021043804643899 2.078056313022322 2.5059390219796116 0.9857252137030702 -0.19776051341536263 -0.10546253791088933
Ni 4.122746567042992 7.00560130238488 10.558319393683737 -0.613230472564189 0.21939686073821568 -0.10067977181026533
Ni 8.164415880511903 7.010567624636282 0.5685294998689864 0.4430159870878951 0.4579080737083791 -0.15179561664947408
Ni 7.699034260836621 3.640559348670552 8.32495065842853 -0.7850099885347578 2.2390433882336085 -1.6409101763221738
Ni 3.2896845959691015 8.612674129499535 12.333440944410194 -0.6565985551371789 -0.2796084972311056 0.558976853426947
Ni 9.452899589159086 4.858070953041296 10.06808618851204 -1.7389969905942824 0.8411060601973771 1.6950964325565905
Ni 8.504504543936084 2.5216660117490433 5.7136084830426945 0.48886029911551937 -0.36315495179519397 0.29185389025736186
Ni 3.518979785108343 2.5626313609233153 11.82193335843505 0.20071136851357047 1.2080541604864161 -1.07315737647481
Ni 1.0379159545444392 3.234056339233559 12.725273782926134 0.540193659282173 0.4444560619685313 -1.4434018881269335
Ni 3.1581179127057184 8.449566306379896 7.819648705467706 -0.15803851223539234 -0.2319934664563037 1.3220635595260521
Ni 5.4038034903123915 8.047330520815223 3.5774434759190465 0.7143146789017246 -0.2553961616509602 0.5372613161267263
Ni 2.9893809857545084 8.356077786777172 3.693662679961643 1.0191325855189222 0.004854242768507769 -0.7855332080280794
Ni 3.4525018846974334 4.478033810812416 9.329481487651888 -0.1134265299529724 -1.374633363202968 0.9950277220509186
Ni 7.276878711067969 6.098907021514148 11.287131269716902 0.6960454482788916 0.03168447558747447 0.9879155364861696
Ni 0.6250747557770916 8.90131096806321 0.1984703981415524 -0.4592977549670541 0.5448216449724875 -0.23104910026516337
Ni 4.566156523375689 0.23139066843654252 1.4799876368371794 0.11227544706766471 -0.30542340141168045 -0.12412000511107656
Ni 6.158284987737495 5.636376270553566 0.26289185981399305 -0.6532147262666105 -0.04295773450844859 0.3373752717279286
Ni 7.9085277153683515 8.632112696117911 11.774653425849715 -0.8229769546968344 0.1584123506350433 -0.47004136663680346
Ni 0.12163948628041586 4.7954153957160175 5.801909147920643 0.39404855605025685 -0.03250388616497628 0.6251300522152524
Ni 7.694403868975168 8.772440807119143 2.87126150520877 0.5553971064954887 0.31868103775253503 -0.4181109963160993
P 8.351156860524412 1.7476369973088228 3.425651059420839 0.5125545574086657 -0.1445132240554479 0.11345249809490138
P 1.844675484005327 3.2516881451059962 1.422475446158006 0.2388469990430274 -0.09268158409613715 1.0051547831825913
P 4.6685063419132735 0.9680787502340434 8.215534498742379 1.1284234960369663 0.08221899400191647 0.9241197821864473
P 8.677626724356083 1.486210520330984 12.332071801091159 -0.5703514138124759 0.4102048540951451 -0.2073802958933138
P 6.3644554551686525 7.596502858304471 1.6063855316952187 -0.5736871630539281 0.25498478514515444 -0.9532413821427518
P 1.7810302939096596 3.108563640588435 5.945755448816607 -0.10529181666097996 1.3098693314527055 -0.27569733510215744
P 6.502958647024489 3.972059089151723 6.130171245778688 2.1459020908922333 0.2430679791029104 -0.909011465790099
P 2.162647216891271 8.405795484489566 10.232742015185362 1.5349629854653821 0.2579140429768075 0.22406906940290441
