# total energy = -381177.7159696199 ev
CRYSTAL
PRIMVEC
9.15203716589571 0.00000000000000 0.00000000000000
0.00000000000000 9.15203716589571 0.00000000000000
0.00000000000000 0.00000000000000 13.39493149439344
PRIMCOORD
 96 1
Ni 4.252494116032557 8.928608581034874 8.357379599007047 0.1537414275219352 0.4322374084151524 0.5287620204064636
Ni 9.078830120732622 8.869074578614144 5.467222057569462 0.7146057277795822 -0.7924222218384288 0.5572115339964081
Ni 1.0658188039832208 3.073418850872315 10.656833538316716 0.30637162425756265 0.41171512009208444 -0.42845325878237184
Ni 2.558680818873996 5.180885928417059 3.774651607071736 -0.43556287324395954 0.03149601372575221 -0.5090120914730459
Ni 0.35620186644365676 5.058724534979412 9.3911195971663 -0.03917692730977769 -0.32372811325813927 -0.19127927656639315
Ni 7.163931059319248 5.186999489311301 3.774718416943784 1.3659224656925315 -0.9405301052236705 -0.07675051468817749
Ni 6.117798287496979 4.387395145345631 1.8713390248381694 -0.935164470036383 -0.07684513128451281 -1.5457963286354606
Ni 3.1150514683991246 2.8038638972523713 0.6470600172096008 -0.22970698441497214 -1.2451652064061007 -1.082489709619329
Ni 5.960557135215573 6.912295794667758 4.567444089699704 -0.4351828641967215 -0.10724482662229273 1.3460997745396495
Ni 4.007997440449194 3.394380797820043 2.621803335107049 0.05017173575838456 0.38165635303349105 0.27782518007843765
Ni 6.852359102607287 8.329772478591654 7.04783746658951 1.809908787113496 0.5266318614373382 -0.13438127782776854
Ni 3.041597217295547 4.281295577311271 9.966083525602723 1.1650979686398644 0.7565080244403228 -0.006816251590885035
Ni 7.607191680263625 7.0816359402159135 12.606747379109255 0.43066492172170995 -1.3082055705970372 0.695804278802363
Ni 3.2401598178366906 7.050427493136023 12.70068572002345 0.11809976705892565 -0.2923858515014319 -1.1357403414133538
Ni 5.484010554731734 3.393456442056093 10.690856236856158 0.8179319360737591 0.22678261167932556 0.13701588723713823
Ni 1.88014877591122 6.492720646169936 10.859659157816749 -1.2228783699834422 -1.0555414631652595 -0.20048022633937085
Ni 0.2243420591143503 4.213991495251003 4.607253621402962 1.2623723143130066 1.1188489649746538 0.12126068128541051
Ni 2.9976491343402296 1.152149971521228 2.6634075813183316 -0.43778070683088477 0.645119865073618 -0.5507683494742256
Ni 3.828599205944792 3.4427035545889053 6.5749288209192365 1.4349347311961869 0.21664526613500754 1.2210215192803617
Ni 7.456768795746007 2.3413656939731173 0.7283658010843919 -0.0752235365206898 -1.114144617520449 -0.2579261271616655
Ni 2.26135858418649 4.160818158730721 12.208047112413345 0.924975445318523 1.0699080162995767 -0.4044597240812518
Ni 8.216589233712767 2.638074742163746 11.692274900203874 0.2305392505082804 0.21290868191071072 -0.01648565635984903
Ni 8.537093578797153 3.3531600219702407 2.4640917681101278 -0.22076777294381333 0.3233265069443464 1.1878967117019348
Ni 5.213833262577646 7.9224885161431855 11.492650663339779 -0.4269589336250324 0.4447658798994663 0.7502869832312755
P 6.1932659867992585 2.962532767347403 3.4103767285550086 -0.03098384997602406 -1.4942089434764718 0.6020376891721632
Ni 2.177214753555255 6.087688084889108 8.351740113643226 0.37974782315686856 0.6679489471529916 -0.472112133122903
P 7.442180448342681 6.112188088652412 1.572190043512204 -1.2477334813539092 0.7853959111192668 -0.39460802809815265
Ni 5.234224001608143 4.97379362914323 9.017320193465984 -0.7540893876965012 -0.16321774244348666 -0.37369236099140807
P 8.119156644970095 6.3199484866467195 5.472660198113412 0.1429996156243989 0.09765255494816731 0.9196375780453775
P 4.448860227629662 5.09672379371129 11.82219264522516 -0.8105248449764106 0.7184754951476336 -0.6522235659979349
P 2.188956817368598 6.693671928437722 2.1205920141891044 0.626363153291405 0.6717922321584817 -0.6968969976459094
Ni 1.054058436095344 6.234340330052793 13.309900232727257 0.3573961949345458 -0.37478405139369 0.25321355217734454
Ni 4.933799226287182 8.369272671435292 5.9981161809549155 -2.4200724478269033 1.7310088301824833 -1.654556820571331
Ni 1.1738219957690816 6.661246260401344 5.275004564465411 -1.4703509059119515 0.476458840127373 -1.2530464089263904
Ni 4.624597647227331 2.403123641449686 8.776091710390604 -0.6476464881502136 -0.06276731303520802 -1.085262644378776
Ni 8.954215981307463 4.9133444229958165 7.1621363448112225 -0.03134971795587504 -0.5017723791914971 -1.8959420126551803
Ni 6.675898672065538 5.715017127383791 11.077434630192148 -2.450112702942735 -0.34162016304721166 -0.4480340091277768
Ni 3.9116997043276083 7.029149006490643 9.77559393713465 0.23705365458803046 -0.8556016827103909 -0.18664666289038823
Ni 5.421410619826617 3.5947921098890863 13.001482068057443 -0.45935303368502184 0.5769493787449677 1.8984989747490784
Ni 0.31113448933060583 8.270448973028062 11.923203680539162 1.2577548701456533 -0.4259376914493696 0.6401167554320718
Ni 7.447452021808375 3.0794958036174904 5.284126400009261 -0.8451444919328089 0.019439853892166518 -0.24728535961836767
Ni 4.88192547905879 4.452402066051925 4.46427591920191 -0.41122069695416924 0.5702074320354438 0.5266493449388349
Ni 6.23122863738207 1.6918730652579932 12.218133572685119 -1.5952412135301492 -1.9618784674469893 -0.4479897861534027
Ni 4.762894082366398 1.1191934853233731 4.381602820959454 -0.7640585830940713 0.3808199731751248 -0.9157847799581905
Ni 4.06401706055946 8.32472970605763 1.0094898450133354 1.0725333697375659 0.7683361274235025 0.9454295994078169
Ni 8.261736233550039 7.446683250677961 3.571771990551829 -0.3740572005299945 0.07199345961916633 0.020425357733887404
Ni 8.312740537238083 7.18584103653604 10.02278405728564 2.292862490936593 0.2550292652298447 0.6367164715012712
Ni 8.83583437926102 5.12143429433173 11.541099718222924 1.7326206547542935 -0.17469848938957655 0.056891570980721375
Ni 7.000905819485205 0.5641636092578347 4.7721724177475116 -0.05179872983884628 0.13930159794752137 0.6957045199997051
Ni 0.7994679786103941 0.39833876122386874 7.709091378396237 -0.8525369277421382 0.3817851653018715 -0.07799132907381406
Ni 2.5385646409615035 8.720591925997095 11.02109560398127 1.029697505518962 1.3479499403745108 0.1729722507270892
Ni 2.140222218922728 4.884405681158101 6.222936891618321 -0.6273075194825455 -0.984795245689633 0.44007850172612595
Ni 8.80531233497614 7.786974300333234 1.1586186314614235 -0.7186333608817365 1.218699041794772 -0.39956511499311187
Ni 2.2033712760638546 1.6202858297568492 9.077705335352528 0.7181939593514728 0.31447291320845844 0.4828403181736846
Ni 0.8068179797393853 3.4713219751222826 0.374967203655565 -1.2617241392060465 1.2110762351421915 0.3040771717964312
Ni 7.333179684494735 0.8514771759903356 8.928056713187683 -0.7614692251003402 -0.16650541205582292 -0.7514555496180801
P 2.3299897116504478 0.358753454433649 4.96787226103159 -0.698903486552977 0.733828066344304 -0.5179405043109273
Ni 5.830891071219125 8.37236606003148 2.896627116581507 -0.5565818708322092 0.7502687283988305 -0.6194093476813912
P 3.734241701723775 6.232564834823027 5.945836083271876 0.800784220649879 0.339017435317042 -0.45827805545328815
Ni 7.690685716248915 0.44164528636678163 2.524409184920897 0.9529055960698878 1.1316615433582897 -0.7436123994245774
P 7.9836149730483426 1.5917863857079404 6.8114568176543715 0.2556648419313145 -1.0057222256502871 -0.12224412824460236
P 5.384079459815218 0.8119907112025976 9.948496055587055 0.26646038988492177 -0.7171642325353778 1.5401656127122443
P 1.172714599259795 8.196042910048734 9.462193403376777 -0.23077579199911866 -1.3889724055334596 -0.8837264659710651
Ni 2.4155246519462406 8.042233771742389 6.634442688857979 0.45728252430923827 -0.1556576707080416 0.37032293029854285
Ni 1.5972409999189712 1.5581434967150736 12.324784093362942 -1.3940392785334057 -0.4838525614882828 0.7307154888572512
Ni 1.0600347164305841 8.814931126143579 2.732793751856803 -0.3233409051220496 -1.6682893396660754 2.6839547925720035
Ni 5.501234688867909 1.772786226734037 6.544535820359821 0.380772407766641 -1.452224114404254 -0.09399104693618007
Ni 3.4964260133451974 5.1057843106054515 0.5784764803394302 -0.7216178974313572 0.003072468277736644 1.7747425236250083
Ni 5.284011084339698 1.3922719732910467 1.6851627915339535 0.37589425373873325 0.3543504661296865 -0.16422612910334297
Ni 5.44412597632289 6.163421193272127 0.1505134896865594 1.5341733996845515 0.9878885399029761 0.019859972148720637
Ni 0.19393533049903433 0.8004097232451508 10.19555255599395 0.08587201737347147 0.047184113884970354 0.8426268677172778
Ni 3.5524456334554637 2.0057604873984616 11.064736178484422 0.9144264661580832 -0.3954814318420415 0.09014904748227055
Ni 7.282449941924696 5.899467286459482 8.467819978317063 -0.17928019522298802 0.18381022188285762 -1.2709081196981595
Ni 0.2242935533168361 5.651730789683661 2.1695901913082585 1.487855233344302 -1.2055519628898528 1.101672196085051
Ni 6.292556439107098 5.0412166876879665 6.233733549982 0.23131495233204033 1.5891366432943084 -0.03333769492018129
Ni 6.245707160338195 7.810678076854323 9.327453449919599 -0.8880659738866834 0.5252203258017922 0.4154313926014071
Ni 1.8600509020732612 8.816761533596944 0.5759898718140325 -0.2995296616350648 -0.47519874246802674 -1.236560238345909
Ni 8.885035731607497 2.6041847481646743 8.76644729351882 -0.14325312639610166 1.2022126141039748 -0.9565033407234753
Ni 3.1156463508214687 1.19839521583052 6.902649547388519 0.6721778976326747 -0.18521327287797135 -1.3016356306890033
Ni 3.3118202696359695 8.199593900508264 3.479909331689749 0.12495407097659769 -0.5349167271539497 0.884496254257554
Ni 2.648453152424331 2.821380896581084 4.691333387773328 -0.4954731764463467 -0.6127815579522284 -0.8045603998628595
Ni 0.19659674293622847 1.816889894322891 4.569024646535686 0.41350177967886204 -0.4489855744077687 -1.4045124101505875
Ni 9.05109029577686 7.448943803882868 7.568162817339228 0.6122868777039971 -1.4856489697216029 -0.12148899524613269
Ni 1.1951736987125958 2.5195375554837636 6.599869952878802 -0.8686351188555814 0.9548164399393556 0.36586900829224733
Ni 6.717503833480548 3.3761224834727175 7.619398667570123 0.7757923265912315 -0.3146513477678517 1.8513269450489664
Ni 7.733178625278807 4.584795437153888 -0.02773890975203503 -0.4955904187505014 0.2220803211076498 1.2903222625587134
Ni 6.279496481927332 8.620075100695502 0.24647168522554522 0.5130883184249486 1.1123888111716067 0.6851701961272845
Ni 0.6397841475824709 1.494381253077069 1.5639522947683304 -0.683143395505243 -0.4224623313062595 -1.0075497657773294
P 7.409077529548556 4.167901835575248 9.712597719015877 0.32441614046409933 -1.0960185973436996 0.1535640214038065
Ni 5.089713333164898 6.800018601478287 7.558893633995383 -0.6613525248823965 -1.371824432999263 0.2532253792518865
P 8.564549690597643 0.7284106460669992 13.002674578513313 -0.39364206464045753 0.4786717886182918 0.44108354595187266
Ni 4.526991169776589 6.43520009194791 2.6683240557380725 -0.005806579379448064 -1.806345752352586 -0.9176606568246647
P 1.8248155585959658 3.672007848309331 8.364424837295052 -0.3107435280730132 0.606152225561169 -1.121599016915965
P 3.5983339483113492 0.9321899078502359 12.983881785189604 0.6163206814537385 -1.1267905884192335 0.7691059157099915
P 1.75089455359178 3.061466290201835 2.483861999013934 0.02495589861438928 1.1088550869867355 0.8551885064323723
Ni 7.287025960558111 8.92686054191691 11.260409480860426 -0.059875336199393656 1.5837949193664207 -0.26378952792097793
