# total energy = -381172.34710140526 ev
CRYSTAL
PRIMVEC
9.22389988632967 0.00000000000000 0.00000000000000

0.00000000000000 9.22389988632967 0.00000000000000

0.00000000000000 0.00000000000000 13.50010984972912

PRIMCOORD
 96 1
Ni 5.931853233565584 6.298401798085752 9.996129585950328 2.015317818213052 -1.1282257782038634 -0.7048044254184442
Ni 7.5997741859781796 4.733087509950627 11.624971640974898 0.7040325802494262 1.8854542257499785 -0.08643920273085112
Ni 3.3097474915528995 7.102559853195277 11.954698396451949 -1.1884399857999144 -0.07458693137795541 2.2835080463048865
Ni 1.4428116714262913 8.474163016151408 10.45241931894302 -0.01604754038116591 -0.5308525843869051 0.15487502690574617
Ni 0.9001502606533215 5.968342982206511 5.356613930167516 0.16009925141916298 -0.21887749789963595 1.2940573041211132
Ni 0.6681553382715545 1.0293319033962547 12.673431145927447 1.4272895559461032 0.5048075664733952 -0.5085012132748985
Ni 4.129143429563034 8.328443842989284 7.621149651979312 -0.05341183996223704 -2.887177614653518 1.2356076446246527
Ni 7.659711088573918 8.139768967243542 0.6631901128687712 -0.08986674035516136 0.6433406616860081 0.7185665121995432
Ni 9.421752717207953 5.175954623574697 7.736899451453561 -0.49515281699245045 -0.48500827235928085 0.6752781338245532
Ni 2.1225485386143137 1.2751303922191608 3.782447465143943 -1.0205544055671134 -0.6089716972878351 -0.3138195958951757
Ni 2.663198216784001 3.7500688087601595 8.895992258516573 0.39980551313869206 -0.805129384992452 -0.290678381892022
Ni 2.240337742392027 6.416735211967059 7.652253565374678 0.18983663058259562 0.11132876688367924 0.6382779024511201
Ni 9.140230063449174 7.546201774424462 7.285442119702774 0.8518859244217005 -0.003136488746452663 0.2662158779742835
Ni 7.693267636995477 4.180326851000976 9.184773199233275 -1.542120165335454 -0.13989192323335262 -0.14953278875722634
Ni 4.81066050946281 5.954995998818386 8.123664037737209 -0.6049556341499065 -0.46138754761654727 -1.4028638188035711
Ni 7.254855667100824 6.796095773671821 3.0648086702156694 -0.5268971992835829 -1.3698860783259699 -1.720714904455643
Ni 6.638828277633449 7.44244212263938 11.930654456163198 0.8472270854934505 0.7668060639322214 0.8098275617990699
Ni 5.079343494336814 1.125297359629875 7.436684564221365 1.0062325896278026 1.4455397604055427 1.4104040930446742
Ni 3.754920580192194 7.275175918934989 9.810867553227117 -1.6799351514351195 -1.1322575250710756 -2.0655679726178557
Ni 2.013217651192447 6.737865292587349 3.323700485175025 1.1200013334115422 -0.06175506972060977 0.3106355417402392
Ni 5.135369463306729 8.66488559771067 1.8747060335379118 -0.3203975062230095 -0.8571821398236334 -1.30073728724445
Ni 6.123756474332642 6.231583866044582 0.8917445205278218 0.0018871897203838464 0.5366581353250887 -0.9665627818420062
Ni 9.34058239667202 5.316084113299914 3.3546697296295025 -1.3436968215251117 0.4716799306814909 -1.1557946889610675
Ni 0.9572194527201258 1.6118949834426786 8.738594705487342 1.0862959707392967 0.8156487964665371 -0.08423628154226138
P 1.711623790901147 6.22348528179111 10.048280594504659 -0.3449731386798446 0.5585076271000123 -0.4062121879959843
Ni 0.8408368937016997 3.1591212035583762 3.184486928725856 0.04820587028126536 -0.30098619157593326 2.3885278402514025
P 5.140239682538886 4.076926931318269 9.756435474187723 0.006079887645492755 0.6975654844678437 0.045194080038135076
Ni 0.8114154196774418 2.0357700868413517 1.332710588349339 -0.3936112114025221 -0.9387794410811509 -1.3134773605189378
P 4.353819187246475 3.249773693356917 0.8865320946034063 -0.08556759875917522 0.61957081295992 -0.6412675812070633
P 4.861530318298683 7.776135155142617 13.34093066490467 0.10949428477810175 0.09907128967256486 0.3925768566007368
P 6.727995719522185 0.41693780816286863 11.23920600306785 1.5783668063723137 0.06316377714267832 -0.4531317353656583
Ni 3.543084491393528 5.022173761759345 13.441168631646502 0.24771576228756695 0.4865673893162847 0.29894653543808514
Ni 5.150266061905086 1.059964475498509 12.942582704924542 2.2393652903494017 -0.5534770066546404 -0.1302857676021563
Ni 8.916900995174625 3.7388433223860424 5.260088583200199 -0.22324734483255745 1.0301934713187741 0.4061990753698618
Ni 7.745871539042799 1.4303594063440739 13.43324437910418 -0.4566019533024459 -0.7423777556865279 0.40088126270137414
Ni 1.2439167144130698 8.18169159302034 5.402487152340397 -0.5436304528778637 2.032143888631455 -0.18953118352703488
Ni 7.615464039981773 2.7431233108117135 3.593446063336044 -1.084358644507268 -0.077485335971673 0.004583505605624365
Ni 4.745696581333879 8.767270888386678 11.16592765142402 -0.2734543047042516 0.48328383346900644 1.9264157557640047
Ni 3.1171709060813955 0.8893435393419691 12.194325173744106 -2.411295987185854 0.14545990423943336 -2.575904182218964
Ni 8.761090875345875 8.362618392714925 11.970236978494546 -1.0641484881079804 0.3557139221361164 -1.1235054899100585
Ni 3.9781112899658306 2.281789949265719 2.7782682148237607 -0.30972717099335695 0.6450190778296955 1.1930569157466355
Ni 7.18075085401154 6.548719997938501 7.877368380701019 -0.7931267041046212 -0.1798718060603999 0.219975358949505
Ni 3.319451034416968 0.4341173220262979 9.470084108747065 -0.2789106998331326 1.5022192153754579 -0.045657392827798786
Ni 6.866049831733699 2.630010624364877 11.393917556399344 0.31219465869724294 -1.075741335151902 -0.44670886255845005
Ni 5.994372828178374 4.4740342767402055 2.2933714781821872 -0.11391838198772639 -0.52277649224699 -0.5459922682418209
Ni 8.165420633312909 3.732690981045421 1.5370550255185411 0.597186531727449 -0.00808946187635381 0.47009921645793235
Ni 5.41957627198323 3.8432855427756314 4.367677174697973 0.7920324425991779 0.8579398439252642 1.0085926052195469
Ni 5.41128398582848 5.594295386936829 11.94599103479446 -1.8793936213781957 -1.9313095935211964 2.0061328092796744
Ni 1.9692104240018855 4.17248653594921 6.518933257471831 0.6664278825227749 -0.4692944611684498 -0.6709702504778187
Ni 8.24184986921754 8.93290446178029 9.539718097476829 0.35152482375543326 -0.34244574427230057 0.3782157027830583
Ni 7.914862612058578 7.5257154923892 5.155246967937972 0.6031599757020645 0.4521598583706922 1.21977042048208
Ni 6.708671648894596 8.949415242889303 3.5854268046230966 0.07709709939431883 1.1470603944118631 -0.2807577803442004
Ni 1.0572065293802992 6.030189232114856 12.48700782418657 0.29293889579142457 -1.476852197365579 -1.2514854921971736
Ni 5.061762740820734 1.8844981258425648 10.245193335394793 -0.10358023328651193 -0.8352313465841551 -1.8515526879065274
Ni 3.3663914618268964 7.30832661575387 5.569524603323277 0.3119298350716305 -2.2981759327297064 -0.11665506419259909
Ni 5.846771979403827 1.789519626915461 1.4646132816102382 1.533304881036669 -0.3597991479490836 1.8813114072261987
P 5.290220297529146 1.2905527531209884 4.1980081450277185 -0.20290709061330864 0.047037303894460925 0.422983236806736
Ni 3.3773494550992473 0.3253527820681704 6.01463681422217 -2.2678235456900944 1.968926632543022 -1.5726566433614142
P 1.4717654937174613 9.28154943628225 1.8380806935660898 0.7281374437174298 -0.870357500863327 -0.11654656363919284
Ni 3.4559370836181293 4.820908262430471 2.453105445096845 0.3640844055879988 -0.5535747085747692 -0.01174582768201848
P 2.0381406291570032 2.3862044979551253 10.83035571047838 -0.059708985824858465 -0.004770939026082106 -0.34374158026558865
P 7.230624481640835 8.72606772681463 7.072748208198444 -0.41352569093826197 -0.3111464199383867 1.2772561734033743
P 7.521841454363621 5.41426330554815 4.712956348067709 -0.5524876461581775 -1.1152296230545116 0.5209576938706963
Ni 4.390742459190264 3.955697212817839 6.910625251168012 0.7205190079402236 0.3202141865676098 0.9180972301414511
Ni 4.45290232170068 3.144953293064831 11.997291599763175 0.07172940732450228 0.9609024982324355 0.8071430729883713
Ni 1.8086223239415884 8.844290453895207 7.857050896036871 -0.155712435205377 -0.33963784250986023 -0.5126260340765495
Ni 0.5297756223878902 4.260556333730698 10.240252092132167 1.5552579882689923 0.676119655889242 0.31339767786640865
Ni 0.33942199683106367 6.6346867465061035 1.2146465123498105 0.2980132249905384 0.7461660190843665 1.8043480051962668
Ni 5.78940854492508 8.439158315420286 9.281609391632646 1.8109619109683583 1.34878812000509 -2.2999111702532584
Ni 9.124632448446189 3.3469843760987597 12.822445096191325 -0.21205404721989934 0.2035778914280881 -0.07378680407416326
Ni 2.215451660027715 3.2563595580004008 12.860029721769479 -0.3184187852300838 -1.0498845219897983 -0.13399818345673695
Ni 3.2389632824855403 1.0300790393011876 0.9206033366483647 -0.41779526484789337 -0.31586490845997856 1.085406111935176
Ni 8.936640141304954 0.7801362521809184 6.9250302158931225 -1.2312408830155246 -1.6476361821920977 0.24439621099603073
Ni 5.562482155626778 8.6696912496424 5.749845392783861 0.35432989730439624 0.061375060673371715 -0.9892949333321996
Ni 1.2829891550710488 8.125988460552554 13.299147320018793 1.8488095779437514 1.455711815842538 0.8789879228448152
Ni 3.1678839086162327 4.8497606218209715 10.943864102237827 -0.07725830756253146 0.25354779558831175 0.06430894649071506
Ni 6.415702135160238 3.546884738218619 13.468384671166197 -0.3745716782725678 1.3351826134065135 -0.03752807885244505
Ni 3.6254077994370744 8.793817272761954 3.7569996472659213 0.8692431847532256 0.058951795943859756 -0.9088312314584929
Ni 1.0446066818971078 1.9861086089134572 5.763561332174422 2.863481556588159 0.4632788511019892 -0.4451913974726591
Ni 4.702085981845937 6.632565249492097 3.5322768476921693 -0.1406614544095255 0.01715799983652529 -0.9905948830905457
Ni 3.7111162788029723 2.6619437663757184 5.214849965351507 -1.8366523737559273 -1.4750071737370403 -0.2083215767606606
Ni 8.723549602098005 6.449231011881616 10.253077002776845 -0.14167652593760116 0.6817367449657032 -0.6151742265541211
Ni 1.389479081274158 4.444462453144955 1.4397594828961389 -0.005375919599932676 0.8227573824868605 -1.425959781391086
Ni 7.415582125662035 1.7086444711814757 8.597275332654268 -0.6158941354392812 0.6845721575319694 -0.20334469237135946
Ni 5.636743775017098 6.267796897683682 5.578799234834514 0.7427945315089723 -1.1809354498927531 1.4547206555738623
Ni 8.82857292819143 0.6822393112745452 4.368405862802785 -0.10899420521323165 1.4934103588345764 0.7856694764956276
Ni 6.848321495816646 3.953363566102431 6.583341906817096 0.38182476029055534 2.0872495713563475 0.8718073459359759
Ni 3.0734219480925393 6.987805312537601 1.160429350181837 0.30023722922505064 0.6847012269106659 -0.13658342768540993
P 3.1324272367821266 1.9896136909365998 7.4325531793840875 -1.0844509471107582 1.0399780615093637 0.26769529073328735
Ni 6.689532056268225 1.8930671289991425 5.875747016665137 0.09796674375447645 -1.7539368997335665 -1.1272328181629747
P 8.00203769153416 1.099986977862761 2.251278210254263 0.004944745599785033 -0.36940324669775093 -0.9586304143688071
Ni 0.14009167173496762 8.179164244403653 3.136439633308619 -0.10876743391440623 -1.124980017573056 -0.9073034819600567
P 3.3125515571714135 4.892310472801911 4.604806119853638 0.2008718053508347 0.5714060803292353 0.8807416723111282
P 8.505044633555308 5.306352898735662 0.10821756268451599 -1.5953332590233236 -0.6363189789525363 -0.7989631082807401
P 8.906671690007085 3.0087070652652534 7.35770860950992 -0.9109732175021601 0.45553880214525416 0.5823911185858293
Ni 9.079859637550573 2.1293281051590767 10.685877151874447 -0.7168397593164235 -1.1694868417361794 0.39327362555744527
