# total energy = -340876.95822373795 ev
CRYSTAL
PRIMVEC
9.20683928682806 0.00000000000000 0.00000000000000

0.00000000000000 9.20683928682806 0.00000000000000

0.00000000000000 0.00000000000000 13.47513993784864

PRIMCOORD
 96 1
Ni 7.730228073025505 8.285492556497951 5.431613565501578 -2.9450114949428507 1.95446674836395 -2.91560938763165
Ni 1.58746166090675 5.827901711898656 6.2791049725076356 1.909262641023486 -0.11092073281198317 -0.18018188110165098
Ni 2.159003836416657 4.412267294484631 2.8628878833372426 -0.6312878442865321 -0.20393938853256488 -1.5515954518157407
Ni 7.8237879748833565 3.0771835148736315 7.553018511226728 -0.35801403102420276 -0.5575136386178592 -0.15906181129358413
Ni 4.177723061082864 1.6241232953485887 10.020612586820764 -1.1671270832547513 0.29356058853582345 -1.239514950098859
Ni 5.22984383895216 3.2778189588104834 7.43750950426859 0.8443183964870878 0.5335252461230618 0.17124498362333732
Ni 2.9696936650221835 1.165613487001527 12.053149436040037 0.5350969614855559 -0.5942665298671765 -0.22975737803693336
Ni 4.10823904422386 1.7264481083035341 0.708600710738906 0.48166403847739636 1.3520937873395553 -1.5884095353202967
Ni 4.433102372019007 3.074909425544868 2.9750409973385628 -0.18318904335909095 -1.1473154478454628 -0.8339949030738927
Ni 5.771739991633661 7.3014103217037905 10.902210730338572 -0.6452669321744435 -0.49496564068230886 1.608418374342056
Ni 6.106344155500998 6.326755890442638 5.22075392642468 0.8131771949975931 -0.06279816627314347 -0.045595943462244055
Ni 1.0046779345044559 3.930123529429333 4.926443495137631 -1.1550292715499528 1.6216071051181877 0.8334452012180097
Ni 6.432072926198587 7.518544421823408 7.387880036549171 -0.31582402791971415 -0.007801241211973661 -1.2271947379706092
Ni 3.2278350277746366 1.0425272512273083 2.7255218396726946 -0.2012081056443309 -1.3211860420171053 0.6092797154465571
Ni 1.3363359097677276 5.763481456702889 0.5578368743973706 -0.021179976511724815 -0.24425917119753418 -0.4903101441881685
Ni 6.239668396674343 1.27785406597703 10.851112771736814 0.864103549533815 -1.4876865689769219 -0.12036670871623141
Ni 8.234413011574967 1.956195578384307 0.7438711917492625 -0.6159039056312942 2.315028742620987 0.16787555293047218
Ni 3.791579010323159 7.095683495585537 5.245427335299789 -0.18076629285021126 -0.6627126384547167 0.2380548421590352
Ni 3.8543972754654647 1.1793592982073693 7.2442625489403705 0.7001543282409426 -0.28251050136924893 1.7859800442120404
Ni 3.828618125179893 7.328865116757924 7.660172311440525 -0.272265426602473 -0.2215190492875411 -1.999166662374486
Ni 2.7062307491036375 6.5627455976282745 9.453484170113322 -0.08706038125461779 0.5845356757326577 1.1791426196583885
Ni 1.1150126977267043 0.7228667083701539 4.139320413312811 -0.6378927511975595 -0.23384028985705532 -0.7529825277855677
Ni 6.1454640160593526 3.79389913384886 5.152961205961197 0.7588045337839834 0.08853182359382172 0.22888217452083162
Ni 8.347288862468222 2.4990860697196786 4.8957073825257185 -1.3642011121260504 -1.0069668966906657 1.1378622728523629
P 1.1048483470426786 7.666544364980755 8.176121749359597 0.603096983674613 -0.9306020474766811 -0.3236710347679587
P 2.542569972147806 2.2656374502050483 8.686304023086208 -0.9376594685440948 0.0666375946238917 -1.2350939382130277
P 7.2331416076439625 7.1960288380721265 3.3626406494054644 0.475011309047569 -0.8949220775765684 -0.24589619258032488
P 4.716967644020706 5.261064231315865 6.5665572291347845 -0.13927537269527626 0.5201282559908655 0.4105460394846478
P 9.323950384715895 4.179877461499587 1.5722924723315683 -0.7195584437991672 0.7747258329999303 -0.5971646773505779
P 2.3618120944490073 6.36569161421324 3.8865273035606753 -0.6536327876406356 0.0667196128147367 -0.7627313796422154
P 0.9911622942833059 6.528855221842135 11.61468107567213 0.3577198968225517 -1.7023515714571067 1.0911342726682047
P 8.998856885936055 0.6328330259977935 5.976669505460937 -0.04703653256351254 1.4008812411559035 1.052393147344265
Ni 5.081843895794814 8.584908180225483 9.100974545004778 0.11846769192130566 1.726787078791652 0.5941971100818219
Ni 8.913113590718366 6.95939465212935 6.395961860752133 -1.5610864220253116 -3.786533302521408 3.3308839429402184
Ni 3.400177854273074 4.219107804130595 9.045794273818512 0.8759419369296397 -0.5774288894845475 -0.8945963188060335
Ni 0.10074860205177058 2.4790704008908095 2.8448443195052198 1.0092554356145262 0.9934279816639665 -0.36822542433956584
Ni 7.558281140620739 5.352340837005566 8.213529137791838 0.4958894380481588 0.32393585839357114 -0.09267824166202748
Ni 3.284558365242283 4.294115924622222 0.08992227961576908 -1.2165061479085113 -0.3722641131853137 0.7345636589587478
Ni 5.500322366484137 8.402327348327919 3.9467473986277715 -0.09986730321129897 0.873592977081489 -0.3469806560281766
Ni 1.893055073863431 2.3703192140432465 1.152366686490498 -1.1175202188609012 0.1462957698771674 -0.5012429890505884
Ni 1.7017829855838744 1.7346329885192031 6.266007322794688 -0.5349645496727495 0.42165937578898993 0.6521168652167415
Ni 1.683139135823773 7.656241911705914 1.9677473997640595 -0.48557417216507986 -0.8952321526178195 1.9386297813316937
Ni 5.157975250691741 5.547507418346122 12.938869481551722 1.8032069496132879 0.7397567731239131 0.9729069788924793
Ni 6.535695903507199 1.1383520355745345 6.152317587299559 0.426594094086446 0.22371682826980824 0.49606015929806824
Ni 2.5386294448898687 9.101872211845079 8.97491450010833 0.5435342936196317 0.4991992191476822 0.22018233275398855
Ni 7.571004992654548 9.049632605159246 0.4185502840365475 -2.296689577992167 -1.0782952119220075 0.05971824179623909
Ni 5.675445658477661 5.1917735580840025 3.0077188323773414 1.491138274970948 1.6565494255213278 0.3333936613723613
Ni 6.81570350980545 3.144200098776731 2.5496583177923995 0.5824273711404034 -1.1208371990492763 -0.24939494976220275
Ni 5.2840076750700256 5.828085848686411 9.004681132532717 -0.6092804867775056 0.2183753614522368 -0.24981146847433106
Ni 5.172043301276153 8.985976517632658 12.926431962222871 -0.9298790532677276 -1.4367275614305515 -0.22806199261238141
Ni 7.300185812065226 4.395685776747376 0.4090175225345184 0.08497058860512463 0.10566436950905028 -0.004918520347539916
Ni 8.0487663021613 0.4344311612963986 3.0231209539890314 -0.1740963370292034 -0.7982038615172125 0.2916093783467236
Ni 3.2092003848539234 0.28788497807837055 5.076166037944416 -0.09541183854310664 -1.3745963393174454 -0.4793287054760003
Ni 6.091557971444344 3.7286502631081997 9.851566729507065 0.02345386014756606 -0.38729221116302975 -0.06950283198682869
Ni 1.2550487248136863 2.354059935684561 10.507941643819219 0.4584762875070233 1.0293969435594077 0.07314839915921596
Ni 2.3556711325774087 9.097627858887346 0.4848984514000997 0.06919867048284857 2.045032828778981 -2.091913809601236
P 2.4694768742488216 2.714185458334614 4.317205757122646 2.130643107850634 -2.3234455059297727 -0.8892599941947846
P 3.746603599914223 8.512441147404862 11.083437236162204 0.20748519690229428 0.32394691413716464 -0.9173261563033814
P 3.8682627755833474 8.221900916847078 1.52752881922855 1.4845022577116693 0.4614572245122182 1.1020812585980118
P 6.806726841402438 7.1621937033223135 12.928480483986636 0.37341339629840853 -0.3841130421040998 0.4807199293965721
P 8.472290120835083 4.837383896372489 5.982558199933313 -0.6318681422700343 -0.6979130976152497 0.9051897780511636
P 4.94947716591779 8.78628017131335 6.136888765853644 0.40461861825661927 -0.7532064708709157 0.6548885144246077
P 5.138419923832257 4.2314633825888945 1.2710170670477208 0.10952822333983073 -0.6178720851012585 -1.284913175728
P 6.108912863690167 1.6600944168363492 13.032939442311651 0.9036244904465728 0.9956018493868338 0.842041427527453
Ni 8.367755666427088 6.300184951969723 1.5834364307264457 -0.24805489079454054 0.3658666942994021 0.30248077384358873
Ni 3.0639993208704386 3.7653303112288135 6.669938066567499 -0.5892986443389399 -0.11281537873153473 -0.2690489765477044
Ni 0.8764653305591633 4.185567288241188 7.843231898986249 -0.12153887464746163 -1.3934579521086388 -0.03302864832019473
Ni 3.0961035698153636 6.727336265362265 12.350855349693273 -0.15334882006920686 0.34177622900910165 -0.10541394406114103
Ni 0.4391192839126176 1.5662491029574792 8.532310427487467 0.20027170987299056 -0.3535881340423652 -1.483910132653625
Ni 3.956952259405103 4.741623559900977 4.429669141611331 -1.2818587051723922 0.8733523218255926 1.731230459274986
Ni 7.854594059474615 8.571438574201272 11.521877976011949 -1.1122502287112135 -0.7002222053644006 -1.3146364138240454
Ni 0.46424474860166265 1.1504314088512024 12.511007400158451 0.15704940884924565 0.3295058962821809 0.0738150862089374
Ni 5.893233444193806 7.3227425685651015 1.457875396524812 0.2619133939441876 0.25061596665349745 0.3243567479810736
Ni 0.8091817483138204 8.228888907942345 10.352046835886915 -0.46970789455678463 0.6382604189496234 -0.47156011727417496
Ni 4.4748461818028575 2.128998746852129 5.257393464451988 0.16026714445559495 1.22582125466185 -1.1544561726553022
Ni 0.48906362553909716 5.7125676348888845 9.589461822398205 -0.6573017518517905 1.0321822196140287 0.3732498741373507
Ni 1.3245051211545276 8.21876138461587 5.968341919234758 2.682494405976393 1.8037332544304032 -0.15755900149581253
Ni 0.18446363055234943 4.330344837612838 12.171999605011973 0.0076379761612320055 0.6587017175231107 0.21332905727758097
Ni 7.351679664760656 5.476025517339986 11.548087085696928 -0.1672219785068733 0.31168429471972775 -0.58085694132949
Ni 0.3021831996474753 8.065200510468351 13.031700201730066 1.2407161694958118 -2.251903532025728 -0.16641285234201664
Ni 0.2723751364458439 7.052890106111488 3.8541597390092623 -0.37840262198288377 0.24621423804137596 0.5251241665435601
Ni 3.7422855922413896 6.0721683676938385 1.7633030863725143 -0.8375234850524416 -0.11005992747358466 0.1580955907255729
Ni 7.966834638450118 4.787574895285009 3.802172399722651 0.9323570824945748 0.9107101936487605 -0.06421330145311521
Ni 4.598033692810341 3.116367823307701 12.006726710479356 0.6719881502193716 0.12637229148036302 -0.5382635321389956
Ni 7.455495985696409 2.995435987950205 11.796123942221374 0.6772152029462659 -0.21523218783756481 0.4935106534033372
Ni 2.321845204666983 4.583284336111238 10.942622310463024 -0.6726787485284931 0.8594565376801069 1.8449986888380934
Ni 5.78673793299623 0.8045184841639481 1.9338984547551648 0.13357266588354416 -0.6929403269910066 -0.09731471199277435
Ni 7.716887362752723 0.17633030863725144 8.579055392426719 -0.9861021374265148 0.02339858142959841 0.29071617710849285
P 8.413255866681125 3.993890099028573 9.876859758672966 -0.4839122110816247 -0.682046048676006 -0.04773098752737586
P 8.752905378532922 1.0184974004254 10.536898995061426 -0.7520798134656402 0.32927166878418773 -1.0236674972747986
P 1.8735826085584366 2.964464180249968 12.456176988868915 0.6049003554319389 0.2832918596199637 1.2277022737346468
P 0.25596394523726096 0.15424678368190392 1.2553774089798275 1.2916317253987561 0.713223502720075 1.633298168302871
P 4.382262204920103 5.242715000416171 11.042136275352902 0.22510470975627037 -0.4780660367134928 -2.046633597607198
P 7.278586566861671 7.292231102834249 9.324743093587175 -0.06241455768147962 -0.2454403359898289 0.6176334867278912
P 6.206615843272485 1.505981132325567 3.912102982695779 -0.003491815203342373 0.9197337373036095 0.8531467934119951
P 5.939286054811102 1.682236865563778 8.653748639011287 0.8224200537520998 -0.592199877146135 -0.1381163193901686
