# total energy = -381168.5814388106 ev
CRYSTAL
PRIMVEC
9.18887335841171 0.00000000000000 0.00000000000000
0.00000000000000 9.18887335841171 0.00000000000000
0.00000000000000 0.00000000000000 13.44884498558590
PRIMCOORD
 96 1
Ni 6.9105932370830505 1.2200342736390104 1.2219933414249295 -0.17416781369708714 0.22571174721264997 0.5914038636074008
Ni 3.836005422351597 7.532918869677596 1.8076186140900152 2.8825066915404096 -1.0985663034662176 -0.723091139542774
Ni 5.656900120574332 4.988483099545592 11.570229533680331 0.7749032391180589 -2.7256447161116215 0.5131749646014839
Ni 0.9490544002489807 3.0895473004513234 3.756329620921363 -0.31474313615070953 0.049970675491172005 -0.019928363492810842
Ni 7.753240484607156 2.5133498117841415 3.020274222475306 -1.2114534159759525 0.7047391193981475 0.2464731481297175
Ni 7.439440461674992 3.7613366379783386 9.952441096274026 -1.3867838825225731 0.47260527070923763 -0.23641756366592837
Ni 3.0162200915787416 5.597264332907282 3.713212670771887 0.7199726485184503 0.005322183543861801 0.7902244428561616
Ni 4.623730774207605 2.997070479637581 6.514809167749625 0.11466040236007351 0.4925459754972227 -0.9928104026846255
Ni 0.06693083417380935 2.8593292689859515 11.186991033052887 1.9445417759407544 1.3019133098304223 0.6725121410436418
Ni 8.670538138757935 6.478725381218078 0.8100046940405274 3.044134463788957 -0.49733388380416926 0.7743787340731567
Ni 6.0357941219091735 4.175185113317103 0.46623148531619873 -0.6084315085136489 0.3767149498678158 -0.185384508348513
Ni 8.666256123803723 6.9822940153828945 2.9180902759155742 3.0786312120142463 0.7634006377950981 2.1185116146944223
Ni 3.9735812332839644 7.232626490485118 7.797694415820662 0.2676978618364486 0.6944099695579976 0.6319933549939889
Ni 5.408387042383985 7.451827062873018 4.9160371036217425 -0.5761258544024078 0.018846700392857865 -0.4224936987648273
Ni 7.846507548524037 4.452799353224176 12.508945532588141 1.6829865366669339 -0.11776475231701009 0.3039545301756378
Ni 3.2095815522686837 8.427694595388939 4.005724830947772 -0.3218576357083038 0.04149863346441886 0.13455379884989085
Ni 8.464578732784247 1.4221986749429794 4.924442166022212 1.8363037321672568 -0.10341568268418964 1.683868939271887
Ni 5.060505488410667 1.7170971855128752 10.47775336131042 -0.4054925362211404 0.25743530356817595 -0.40258950364173246
Ni 6.2175316578843525 5.165809976340465 6.219041389766279 -0.29009114192998425 1.153986432107735 1.5779549156458759
Ni 0.9151355122651009 5.527456462505653 10.762410872596044 -0.3617488154762867 -0.005853373456983468 -0.4295495771703441
Ni 2.148073720668493 3.6676836413831815 6.463595901342301 -0.18512482692922314 -0.27166353135241605 -0.924345267933692
Ni 6.277130690058233 2.6840974553017247 12.321051451507119 -1.6001941866600504 -1.0113742817297422 -1.5222712489303267
Ni 6.417555051711215 1.600067695262098 6.123648939456888 1.2376467865418685 -0.5642111052426928 0.4699868592497841
Ni 0.2878515636420282 1.2676877705328964 1.4228611927073544 0.700599129087845 0.40816802617077447 1.5105143655047146
P 4.339261634824474 5.539714419477585 5.4011774523988425 -1.0950372072670367 -0.11479435683477648 0.4555066633557381
Ni 5.931252310462638 8.165627929092445 7.11742466713218 1.7719577617910194 0.24045779517357296 -0.6097597404067693
P 0.13572792851328552 2.7667238039461175 6.71660877078389 0.2852297000726249 -0.2772559378385289 -0.9358913209000786
Ni 2.1107301396085716 1.313071615723583 5.249165002636937 0.8267608472192987 0.42312130504649714 -0.5878701394225295
P 5.178683587822982 5.779442934800492 1.618098102436256 1.3506120605877063 -0.07158259733399285 1.4605105227827622
P 8.461840448543139 8.698444746946663 1.376234092960219 -0.6109087664095479 -1.0777673644429955 0.2875488351241048
P 1.4725445117115101 4.423587925027943 -0.012095313914659076 -0.7128296097157659 -0.8026223022998823 -0.1433102048862822
Ni 7.99631374980846 0.571756506205012 8.014059301910558 -0.6117634011003592 -0.0862923927403417 -0.6597180746027671
Ni 2.5645685915154406 0.13085598789370623 1.3267161736753248 -0.5806983042644386 1.8131154669762517 0.27586599946953777
Ni 1.5549595162701801 2.1030298637896214 13.133334986124138 0.0699949411318988 1.2269294001243645 -0.5915388465233683
Ni 8.175818389573609 1.7680770545385749 12.862717154341825 1.4824386903144209 -0.7902264997386906 0.3670761412264711
Ni 4.50770287114569 1.6015287261155742 0.6882980672839678 -0.14829197437158978 0.10598627162484328 -0.34698425557260243
Ni 2.4788731591914184 3.163039909043167 1.6425074254499308 -0.4973999611554143 -3.178194610831881 0.3554658106810523
Ni 7.291251502090015 3.5603116569626154 7.309824052788418 0.8285760460511665 -0.14441217970120937 2.284149022322995
Ni 1.0734258002603083 5.041705053654614 2.2367582934745016 -0.8081887406440662 -0.04474567964680681 0.055120080902595396
Ni 2.4764289188956656 6.074957099880971 6.576551964062601 2.286034669381482 -3.585482805500864 1.3869913705476888
Ni 1.884049824360737 7.126926881003751 2.5815055227678148 -2.448998129722318 0.9791771281719072 -0.4072380581573373
Ni 0.8121833758981326 0.48141885509371796 11.53908200988141 -0.8278520234009485 0.23890921973953044 -0.2316787634293623
Ni 7.530575706988059 9.160102930025282 3.4620954658905005 -0.27627840441660806 0.031295724789488034 -0.4572688974624835
Ni 0.8455252026392559 8.908695356747858 3.809936588821332 -1.0146025588590526 1.2163642230140082 -1.32784159966041
Ni 6.938481467525191 6.741793634703435 13.093284362992305 -1.7665054804271965 0.25458060772820024 -2.4489240819512728
Ni 5.767736310226097 4.5545661249364375 4.064254278270428 -0.042803211208455316 -0.1728005010359153 -0.5556706718718495
Ni 6.009927443591339 2.0759686319437876 8.482549412282005 0.20660202296639257 0.07790853955202066 -0.18645125905013052
Ni 8.431857154990354 8.237246007532658 5.487115470977782 -0.005976015077776804 0.14150014826073695 1.2824659997390881
Ni 1.0220875651762087 0.7598481480618181 7.174608863404844 -1.1398708186419595 0.5288522661274246 -0.278577741973746
Ni 0.021779467477417717 6.9987329097028255 12.289406809663085 0.8812258110363985 1.5119492981790281 -2.1347725566379747
Ni 2.546806499441418 3.7096400368358395 10.760259757358314 0.3377743069385602 -1.15301249823024 -0.38336947906985586
Ni 1.938310121151789 7.454216169929016 0.13413825343371702 -0.6932288047657029 -1.087625488183998 0.4343513694343616
Ni 9.294545335164974 2.651431010747586 8.876869694099964 -0.6330102262942775 0.030535706695011926 -1.0219217182282851
Ni 6.206688787399434 0.20181614300619063 11.801656820870969 -2.3306852182113214 0.99126336991248 0.6029946537687938
Ni 1.7557272088337188 4.625320449287173 8.695768028156614 -1.2364766774931675 0.4864573461009817 -0.8476207213874435
Ni 4.058321022785587 4.771579745480769 8.10856410705991 -0.007692483548251269 -1.1599462492355959 -0.9507273574716466
P 5.690062764286255 1.925895953333887 4.134914876113583 0.07580409161450816 0.21898599845304223 -1.0645171843013086
Ni 3.4601529380765075 3.347892473064436 3.7731002335671455 -0.21021982222463795 -1.3412090221062516 1.7603443459218069
P 0.2475078154521697 5.284980474068349 4.23895497507836 -0.1387801782264126 -0.054189084447893776 -0.5768159384908969
Ni 8.973679068671029 8.170883964615642 9.631941465824443 1.0869631720096504 -0.7955605103570943 0.07378089053689228
P 2.5471556766265255 8.42414769029811 6.577345882715055 1.0225074155284262 1.5399254716769801 -0.6994992111554469
P 4.740870530937889 3.867201647178967 10.076897033919645 -0.5032708181138946 -0.40295845694537696 -1.3140939110570142
P 3.986013778848451 8.428549160605124 9.858056665364801 0.8871876850467882 0.11962571678514883 -0.9004268094448816
Ni 3.4002598619572737 1.1427558492507381 11.962008173145641 -0.6192573954845594 0.08865986453125377 -0.08802788737420969
Ni 4.510744388205442 0.5250908131900487 5.405655190354183 -0.1823025269890796 -0.0332433354341621 0.2912016013853437
Ni 7.803861987574456 6.706692138726837 7.493722811761946 0.7012773861017922 0.6509572976910015 0.2620746021124003
Ni 3.126808181651614 2.485829136273692 8.20246428434663 -0.4856487341567572 -0.3982335406658819 1.8310144587438595
Ni 5.172324887504708 9.188248448919607 2.808965973358166 0.2542085691007622 1.4753370462726332 0.6516813203412195
Ni 5.975799968183725 5.876826613952324 8.6298681855662 0.44590719259276107 0.26559624211241356 1.0304937761680124
Ni 7.290985024764537 5.242720845797045 2.054216731086247 -0.5355595029442712 -1.9671723688560765 1.9629225924407874
Ni 1.4671965874553896 7.132908837517041 5.164826766898188 -2.150925512248754 1.055612425612511 -2.7193342005125616
Ni 8.056298714660619 3.7016824725647046 5.210795024430266 -0.6880935404216666 0.425218553895158 -2.4537163611335937
Ni 6.762073478059549 8.546883470863408 9.700275440949987 -2.255341868283316 -0.8158174608339176 -2.160503385745176
Ni 3.816387177872529 3.4809014139705288 12.7543059083519 0.37142644777536676 -0.16336609509589284 0.4791816383751747
Ni 6.758076318177396 7.458176574317999 1.9949071484210739 -2.9765504460913963 0.7146036708970531 -0.24503950100698443
Ni 0.15942970828345313 5.24505481961329 6.324776835853485 0.3282745949782411 0.5951689870767879 1.4912801998654512
Ni 3.204003906180256 5.145667966083735 1.2328398874591646 0.6172241671046144 1.7616486665555273 -0.16391476851051123
Ni 2.4196692485691074 8.09424876135783 11.324613707239047 0.13830066748683278 -1.606091525981092 -0.7691681364064947
Ni 2.818291760862525 5.595821679800391 12.233392356960533 -1.8956751321470386 -0.2222772676098043 -1.23550222939504
Ni 8.8156396369167 3.5634542516285834 1.1525199460111397 0.08189760610675573 -0.15055608781541813 -0.9001108208663596
Ni 5.324658028944515 6.922437694756829 10.820469849606132 -0.16578164651592095 2.8879384040789424 -0.3603017986171149
Ni 1.948996780790738 9.031523026046079 8.975987313642056 1.960594715638559 0.8857118718322101 2.0685993032450116
Ni 3.316080593726481 6.161056842629854 9.805270263849836 -0.66074394476412 -0.07227165298121747 0.9355681332327049
Ni 5.208896603208076 3.1904962624405693 2.3194149654007594 0.30776747616382477 -1.007748512051697 -0.28396291754505937
Ni 7.430306721622443 6.371068541725451 4.628460287291153 0.14247331080728368 -1.2117159256087195 0.7443955574475051
Ni 4.332912123379493 0.46835503393405015 7.876127881581778 -0.6166826927788476 -0.040533184227356 0.48594595368220184
Ni 5.609430401146292 8.744242091435503 0.2923081671887954 -0.08871797146269883 -1.3055892160201128 1.928401675845782
Ni 7.676954458534453 5.976305356214801 10.81527905508331 -0.2905230872610803 1.5591940900986052 -1.374645447387826
P 1.7066494365795262 1.7711645159647889 9.94590505070121 0.721253572113403 0.38144346569173665 0.7728448139271334
Ni 7.694459262156291 1.3746922000217703 10.476959442657964 -0.08933657888330422 0.4298277705323952 -1.4267197994855623
P 7.970088705432227 8.603624763443381 11.489469445201605 2.499670973486837 -1.4844012133574305 0.8048110824210848
Ni 4.626018803657389 6.349630900334507 13.061571723485907 0.6524261689270441 1.9411731165788377 1.2519385205741922
P 2.2100618598983726 1.323298831697917 3.0545955831093883 0.19008499914797586 0.782015424682808 0.574580878512791
P 8.702083540770413 5.336548430984756 8.957562703803656 0.37901351609400535 -0.04272967765804254 -0.15517044665897792
P 3.717083024202605 8.463209590663693 13.005705211643361 -0.32298429311357923 0.19136360875008335 0.2100704411309672
Ni 1.032691524955527 7.471546384958302 7.765039916801803 -1.6743460873831166 -1.9774272138148652 -1.0211979526883832
