# total energy = -340870.18417693966 ev
CRYSTAL
PRIMVEC
9.22977937370593 0.00000000000000 0.00000000000000

0.00000000000000 9.22977937370593 0.00000000000000

0.00000000000000 0.00000000000000 13.50871507381285

PRIMCOORD
 96 1
Ni 5.845597600775418 2.3556704013444665 5.48220088738208 -0.5633554421106168 -0.8503409485320839 -0.8646280545787174
Ni 4.642163607437384 6.440909130665972 2.101766558834269 0.11425468228122258 -0.05447499111942876 1.3808258651669252
Ni 7.0583998200214335 1.665439821958657 0.11381517649171916 -0.5420584804050536 0.7949437027087018 -0.6934180379583735
Ni 5.7798815727312505 2.911764599330574 9.630511313001312 -0.01890969242030937 0.008618080686314191 -0.14289368617415388
Ni 8.785531486284475 3.2201130635018576 10.084390321019002 -0.40036472807627177 0.8660665867974568 -2.015071249419884
Ni 8.514471330160722 8.017309272492314 5.788971059306798 -0.7197440774474121 -1.6327924323110459 0.21268653859757564
Ni 5.104824750382605 5.774795964381203 13.197203509180317 1.8884045666275544 2.0556633119096337 1.3099973723901375
Ni 3.566100567331023 3.208308175879879 5.349748017712048 -0.8646085141946915 -0.39348317046509007 0.207436603052546
Ni 5.132514088041664 1.366404205020037 11.96310172842903 0.8606657274968598 0.28925759028509535 0.15097826295450126
Ni 1.2213951436995434 -0.11945549457286952 4.7189996734854285 1.183408594023594 2.0676436241999614 -1.0213270220670798
Ni 8.885591522805095 4.016938363095826 6.170591971769406 -0.2547058204521549 0.46300682838752516 -0.398027852412979
Ni 4.116518451097022 9.470399563943646 5.852056600273354 -0.3259318057776774 -0.5322654055740317 -1.526570647636629
Ni 5.424110502929217 7.387856789268139 9.39859372757033 -1.2732267405290072 1.10606878249085 0.12245701558635684
Ni 3.236837423447929 7.880403957326705 3.7184491490870104 0.334184789815089 -0.241857503734577 0.34582520226749475
Ni 4.791870626380698 0.9649549578597759 7.9075967328637455 1.1046595608481493 -0.2878684232470526 -0.28015074288782077
Ni 3.2467040574337744 2.88272771390544 8.055287045047557 -0.11352860274847544 1.251368249893019 0.810339725548798
Ni 6.225652219704445 4.657706555643335 11.147256622797055 -0.42683063557728423 0.08612424259359361 0.8957990808648829
Ni 1.4071444504957327 8.384220685812508 6.8350991564699495 1.4522292566105763 -0.8061007477667859 1.7607408100292774
Ni 4.656174412292867 9.032714203566895 2.150155522349319 -1.5832665576667764 -0.8798926940472717 -0.652312011946683
Ni 8.845072792030672 0.9981729332714273 11.01688414536314 0.22961982401780454 -0.7335637569393237 -0.22127530870785117
Ni 6.608881882685045 0.6291395937086272 10.047349371054556 -2.0948260981520246 1.4157131639624132 -0.4742554047181509
Ni 6.94013865887959 9.133789515801682 2.1508708302388446 1.5892767684165985 -1.1008532997281817 -1.247343702114658
Ni 2.5022392953530868 2.492788001432128 11.710070100055093 0.143973549501894 0.32066053007640904 1.7061380350827327
Ni 6.932164129633781 6.251874022467574 3.5558721259997665 0.2968469725965791 0.3816643234532911 0.11499901664641486
P 7.15443567280227 2.4308931019849114 11.299661506206283 -0.7695435174680424 -0.3199557906999006 0.8335624435221645
P 7.963324293836369 8.975286517262008 8.035186431862924 -0.40695189437548623 0.05735822620449477 0.09421576135247645
P 7.79959724025835 5.9697196717217595 5.744107871453667 -0.5988731754012525 -1.4120981929176453 -1.5315426469299238
P 4.402355483751491 3.928858580002358 12.917708257827694 0.881531000981643 -3.0104080180707897 -3.072264903476586
P 5.857799368903843 9.041279438682766 0.21963551822334593 0.45135947395658393 0.002356673157634651 -0.7016396545372174
P 4.272520179468162 8.851995126445436 10.939667812411244 0.021168149437182898 -0.8711059489935773 -1.4481807975728156
P 5.375857217168697 3.0974862167891035 7.434831750606734 -0.021293105050821395 0.6768339083474474 -0.2643870522956608
P 2.40384984887123 1.5495414842970547 0.24288164016604818 0.5614561682053749 -1.3897895021181161 0.35006752248361644
Ni 3.5745273557585966 6.116353174184919 6.39999721129679 -0.337927801797289 1.084676432858003 0.18609953213766658
Ni 7.336973016430008 4.075842814075864 8.148875160379335 0.07010498434720185 3.357270146243231 -0.3973344258903802
Ni 0.12728234735116362 1.0516502740702904 0.39248528558210144 0.5257265760142494 0.12170625346326137 0.3284674277153375
Ni 2.210107553270792 0.40571155920391205 2.322729319309406 -0.32975452195787724 0.5279276974306263 -0.39929334938896394
Ni 2.7816431718914343 9.011910281205722 8.907835290724538 2.59324010239425 -1.5678052288063837 -0.07274499307321021
Ni 8.002652383091451 2.014473152930319 2.40107906914948 -0.2454830163023063 0.3249301039860404 0.001743465053667965
Ni 8.993044612480684 0.9308324640845952 6.444197701001946 0.6846197229404533 0.8348374535798461 0.00636528009639549
Ni 8.20904870600208 0.4501704827272196 4.144176407506735 0.05479175102889919 -0.46655855029452553 0.3091977808524481
Ni 0.41525330496122387 2.698944350083044 7.873743748641779 1.3476460359808466 0.8503502045034647 1.176218761143374
Ni 5.2660043848959885 7.0586674836188035 4.88684505455127 -0.3136277915993437 1.129262961219126 0.2442938810902115
Ni 7.371778513867446 1.9634417036246725 8.080129918795265 -0.3047819111729396 -3.274369038572625 -0.5139632648307342
Ni 5.812730356974114 7.403159763214379 11.779626639232573 0.38111179338393075 1.2105198484180895 -0.19833129831716811
Ni 3.481768074600748 6.28702102173614 10.6716959404144 0.7136567336027515 1.7029231276898606 -1.510896431434482
Ni 1.6763863401132053 7.326718731716936 11.847534739841414 -0.3896704815872193 -1.7244640870854302 -0.291480308968027
Ni 6.424323217408195 6.8257816943476755 7.154998689334671 0.9526906518456045 -0.3483363987251227 0.9886336455991168
Ni 0.7176790198072351 2.374314555368233 3.6353977497124284 -0.21495193759298464 -1.525914759220185 1.5266295258990226
Ni 8.437098090962092 6.008152472392535 11.09846247197426 0.32234331709547065 -0.2677708811662291 0.5836244767722982
Ni 5.408004538190864 4.7354120668938755 5.715591545576524 0.8542174007683546 0.3010682097667783 0.24730310023018054
Ni 2.9534185929490184 5.358302177092853 12.724777259820668 -2.444363202053468 0.49033919765389106 0.4730613844100498
Ni 0.7395019097942617 7.619238124526458 0.686570048947282 0.6769004999193244 0.8661799724468696 0.015140969406496504
Ni 0.5145564995858302 6.201054858083981 6.741996527525128 1.4319617646107918 -0.6057986988764922 -0.5518554118908173
Ni 0.8458575787206303 7.321125485509807 3.2126286355326137 -0.6297043018494961 0.2489828019254486 -1.3758325257173918
Ni 1.5490984548945097 4.679184251887547 10.54672657573569 -0.34923885593473397 -0.267156644620998 0.78458678495441
Ni 3.8991479206941877 4.1772042494664605 1.3992059173888804 -1.5598389227714555 0.7518198749360342 0.7646957024574379
P 3.2144736683986292 7.345205979493969 0.7359724422206535 -0.8141878956502946 -1.73489685238298 1.3022071869217573
P 1.5714345206061509 2.171176344522155 9.894661133423282 -0.37322056356131206 0.08640037907311572 -0.858805020139037
P 4.580914792535545 7.835574919656688 7.432630448262838 -1.2606162508538483 0.940712910658438 -0.9106135201698963
P 0.8199846616120052 5.118143321796613 12.593526107405038 -0.9474438016243684 0.23724802998702363 -0.44705184772016565
P 1.7448436125856193 7.062959330955958 5.0785604906350645 0.7796034728072058 -1.2883854505473167 0.8814934628754882
P 3.4847216039510474 1.3974901014319405 3.960823151395976 -0.09454949054281135 -0.6556436474230772 -0.10788528841976902
P 1.9339433292385548 3.732956516064514 2.782835659366618 1.7474273807498226 2.2564276451483267 -0.19330659140906709
P 6.100284128563445 9.063910857329436 4.107176068570856 -1.5324906126654898 -0.600643637038114 0.5134896676284253
Ni 7.702084622802364 7.229575305429737 13.484899419369631 -0.8790606850642797 1.1874645092605225 -0.20126621257577595
Ni 7.526008124628406 4.001053913058745 4.032149039249869 -0.6807507269033501 -0.1492813348680526 -0.08258409065081906
Ni 0.7881050041872083 0.5127954577107139 8.686319666474143 -2.4295783304348095 0.0458913632154758 0.594749383040866
Ni 7.498189570060271 4.8942934863815575 13.23165089118403 1.0036368038761683 -0.7412726955478073 -0.7335575862917366
Ni 8.730337406550749 5.903431397365972 1.9295305717936226 0.009241830313242149 -1.055484384675079 -0.7377677677183423
Ni 1.4405839406086565 3.36249163774474 0.6513141382839237 0.33211376621867317 1.7332364339614212 0.030270368848767226
Ni 6.402153287722508 3.7959774485765325 1.7013685835271304 0.759805464244672 0.011446808384360931 -1.0253870510690664
Ni 3.6504607493989565 8.871682245521027 13.072166767113304 1.4708581845656734 1.54190059312548 -0.8621947625468764
Ni 2.244968429383548 5.761846584135983 1.7266027999137532 -1.565416159748917 0.07567425090486321 0.8574415641326071
Ni 6.5716766426504885 9.354473536944383 6.356161297870811 -0.4945216111663548 -0.011658153064218631 -0.5470417925522579
Ni 5.568888819769219 1.8509399247159148 2.642304886923516 -0.5641180313082543 0.261528242690627 2.2087899886657056
Ni 3.199613723854934 5.336298383433121 4.237832823204736 -1.2014729077244726 0.542637235726659 -0.792170510838939
Ni 3.980831466788412 1.5459972490766953 9.89732207877232 -1.6599468812386509 0.05116083914453125 1.5973932268761455
Ni 4.926348509611529 5.093287526357996 8.472800722939683 0.4323657064629005 -0.5893053292071592 -0.23803864420911908
Ni 4.541660541514219 2.204929647128548 0.591087059941704 -0.07955044603081783 -2.3717259382027156 -0.21325320973432305
Ni 2.2241737368015944 1.4195031248708927 6.648665000055659 -0.5975158900424097 -0.24132322849766183 -0.5911254131350335
Ni 0.46779013125760094 4.923588805624842 3.9037351209663718 0.836172884561818 0.7964567969191186 0.20700722882461126
Ni 2.6064158134056874 5.418074227319543 8.36950011093503 -0.7916804585763978 -0.7824537977718072 0.7344986100487674
Ni 0.11769722163151927 5.288718871555638 8.787850929802381 -0.6406705710530127 0.4161327895438059 0.5519477144943075
Ni 3.7933100423820436 4.015470828199896 10.515710825645854 0.9609094402109709 -0.11316864830589542 0.07942780441002449
Ni 1.5963087756032057 0.29234956487187946 12.198626311579067 -0.3208081113978668 0.6528434589701207 -0.8567509658234859
Ni 9.12411670717945 3.0163564574480604 12.28552745186618 0.18546781209093866 0.6781587978064578 1.4191142192241626
Ni 4.888506414810815 4.119176627512292 3.3431774017496245 1.182880746544582 -0.44068965294756357 2.324744170136538
Ni 7.731970647915708 8.056932714682429 9.990775439327487 1.5658815294211097 -2.2154535167288105 -0.3031423186869876
P 8.50778897000567 3.3677526118999617 0.9167025950771772 -0.22660392000961618 -0.008767976000617158 -0.3721682110373978
P 6.626280016514154 5.901271629028566 1.4143898271831863 -0.3629289518273169 0.9939946528007138 0.31684938386043493
P 1.5823072005269416 7.19151169592775 9.000276144499308 -0.721589358186267 -0.3785779712184835 -0.10663161851832603
P 7.93617951315127 2.298039659896745 5.206609832639385 0.5511085064224638 0.38143780926478177 -0.11083742906955751
P 9.207498532650098 9.244454568645722 2.2431224735396107 0.5737033610038443 -1.0021152250253194 0.5379277460661316
P 8.890889416077194 8.264842721385085 11.930154185548517 0.26453129118300894 -0.255823736106682 0.30768622930392814
P 1.8200847727845033 3.980194612022254 6.68657078033299 0.31333879960401523 0.4898684286650596 -0.18036545786736677
P 6.839238712449979 5.807533991273431 9.44822501936835 1.6449853748328123 0.17493220266693743 -0.058203347813609446
