# total energy = -340896.52960382064 ev
CRYSTAL
PRIMVEC
9.02511174757258 0.00000000000000 0.00000000000000

0.00000000000000 9.02511174757258 0.00000000000000

0.00000000000000 0.00000000000000 13.20916331485352

PRIMCOORD
 96 1
Ni 6.357216316829598 2.1662162795457034 11.543724956960299 -0.1910998135657354 -0.6970515209459028 -1.5927670409580441
Ni 4.664610811764961 0.31369031183233875 5.856902945049581 -0.8133088354794511 -0.5207607473685418 0.8150890673083253
Ni 2.6872901152344584 1.552436498862579 4.838912789537181 0.5814475237256373 -0.3491344691463858 -0.6921569118577627
Ni 3.439217277150917 4.214564603325591 4.908340264523376 -0.3789196708286184 1.132985661486352 -0.5383800031122018
Ni 4.944425367703962 4.5818776149422025 2.6692814078121687 0.5716621622040994 -0.3285689862902083 -0.6353411884202994
Ni 7.261812264330631 6.2544744478833465 2.546105783992304 -0.3088974760032099 -1.3012479083322814 0.5427020275263235
Ni 5.047555316443317 4.542961334294254 11.385334250705316 0.7492449151200063 0.1239773088856252 -0.27693917792905853
Ni 5.676000903261162 7.9198241163160725 12.267693226061526 -0.35113093075112434 -0.3305595343576759 0.8714859580408153
Ni 1.7669272979996677 6.331422548255425 0.49618799332821467 0.7282359169685071 0.032891351411382067 -0.7453028997531229
Ni 2.6310997712376767 1.5284567776933775 0.37577856617314503 0.12951392243313822 -0.18378271107903188 0.3023051674976729
Ni 0.6763319257533612 9.129893011658266 4.518814648562904 -1.4235468010742192 -0.40491378089953495 0.956624696792688
Ni 8.483216699676031 2.335978626249761 1.4236039351748726 -0.008761034022081686 -0.12169134106492589 -0.48012831855916016
Ni 6.704087450972276 0.6045768745196939 4.739975907585636 1.5366174903496697 1.2876840536049177 -1.2974874128485847
Ni 0.6745124632815092 7.243599589389175 2.5493286512973556 -0.43797019713387153 -0.6025189996839558 0.8118283942791825
Ni 7.446411894287292 3.8010791214411457 3.8234451526799544 0.2190731588502098 -0.15124848589675244 -0.29017341723114537
Ni 7.621851036104421 3.8715471917795443 12.577262671997795 0.6708982595893026 0.2940241584358033 0.32680803773504363
Ni 8.059334289381002 -0.18586224305096744 6.767503299209954 -0.6358430677573823 0.9197995575445386 0.19783224719356252
Ni 6.927585311353949 0.5751586211801645 0.17935513768288527 -0.9350490275044414 0.24385833621468966 1.1284942013739017
Ni 2.049675015165613 6.480282736800706 9.392599566299436 -0.2965602945940957 -0.10178971704499243 -1.376214591647159
Ni -0.012265126484360163 4.781143051033584 1.4011620929997364 -0.20194832624446513 -0.08182664365950425 0.18244342344231806
Ni 6.543422416627478 1.8704182511977236 7.0723444892483895 -0.10097750555634222 0.5187773983899259 -1.1212280067297915
Ni 3.403279283287251 4.286503766833196 0.6550028798221703 -0.6844016933923761 -0.7559174420441755 0.012189600087656426
Ni 5.911285559219417 5.526211128234727 4.669980753088136 -0.014298676010859244 0.8783963120074034 1.0632737988125107
Ni 5.363497393586802 2.8437313974124563 9.155706635477669 0.09422527443417321 0.6151492868534566 0.49241202102251974
P 0.12174694867455609 5.689628821577118 12.512630238734296 0.06810415186708917 -1.053076803674851 -0.665112506145461
P 3.951148674923074 5.9417182350878965 12.731268979101856 0.34997547699044246 1.3910426577989268 -1.158676381384237
P 2.1743479049779393 8.25147891252451 1.4356244811384629 0.7741200810951313 1.508027594527119 -0.8775689310101016
P 6.495074894495971 7.7681029674355875 5.723768110725307 -2.1798833329336844 -0.8283539027380314 0.3217877017023168
P 4.573565487280615 0.9744503102596404 12.601039328158977 0.8023248256641213 -0.23271183267956697 -0.19322405899758982
P 4.058565551609502 6.283833135487191 8.28622649418561 -0.1477391871919133 0.15772380920845094 -0.9500128479031251
P 4.665495272688778 1.0887172465499155 3.723729403608762 -0.48311902575636795 -1.0987457664668754 0.25248207332795874
P -0.023035694509698956 5.448216114932416 3.748945565049014 1.3769519840338156 -0.4351054739915668 -0.17454010943484136
Ni 1.434604643542633 1.093563731407974 2.575060146602403 -0.2555871946158437 0.45360816078144456 -1.1650475750179032
Ni 1.5714704589475794 6.477746680478333 5.1612690134006325 0.7424104086966762 0.36825319225370773 -1.0705027124607822
Ni 6.066535526683703 5.7105580550702975 9.121838099673505 0.17622161090232233 -0.38385670311891956 0.32250015438830915
Ni 8.634558793874879 2.320942790544872 10.151928222130408 0.14065939752699647 0.7909181264890766 0.47791022786191883
Ni 2.428522119237715 5.281459130347042 7.0598483199104605 -0.38716622710812676 -0.6484898099871154 0.4029728551230802
Ni 0.6271288230547337 9.190812514064028 9.208397943758493 -0.20122096116013732 -0.23268046522099928 0.86439742662515
Ni 1.5406858037318674 1.3031629201296666 11.396839462804111 -0.22733796996216332 -1.3126183549527521 -0.9378630999144686
Ni 4.060460825017681 6.83269528938444 1.6300371147937591 -0.24081517851299172 -0.32508308462413693 -0.5013599742444269
Ni 5.6751796181176175 7.946764074046621 7.900677342337728 0.35620268884707684 -0.1461438176803354 0.12753751543305777
Ni 5.278237165553137 2.827233493649829 4.909885363606615 -0.1844843651317468 -0.5971405089808619 -0.6722262343721067
Ni 0.9190632011834678 7.858137479435571 7.300003828527737 1.0347324968397085 -2.8628012426916825 -0.3813699321413238
Ni 5.001969478420873 4.518972588013585 7.166868994203464 -0.1430124711402053 0.5186511572247068 0.033930077088541566
Ni 8.346215507599071 7.0368884363370885 9.186074330543581 -0.3891009822369944 0.7620142989705327 0.45738588265632196
Ni 4.887242261445753 0.42198172181996874 10.402136802411356 -1.159897912496164 -0.43759044519694956 0.295770965923581
Ni 8.281568634157225 7.164025181580048 4.782166498674001 -0.15312641964575563 0.3782720099422905 -0.23090203316433783
Ni 7.317063996734791 6.148086433904217 6.944770026099255 -0.12251512251780189 -0.38301955192960485 0.020526659198442068
Ni 2.196585779633909 5.146524688796145 2.6051904812367193 -0.3159320142524881 -0.1670872527012219 0.8852871255899657
Ni 2.373405763505568 5.127030448026301 11.40439528612472 0.2742585457731019 0.5971603064752038 0.6826155480262308
Ni 1.023456665528276 3.278480041914379 3.8530466157822745 -0.2987128221607242 0.5143016220067594 -0.3793194773701983
Ni 3.6010285006520895 2.650242032660288 2.6608005105661396 -0.8264638848041702 -0.09060336141086976 -0.26138194692074984
Ni 1.1367398646685913 3.4058063144981565 8.195519611381297 0.439384818093211 0.13014667092113072 -0.35658192656336657
Ni 3.6805307075694764 2.5732127062850014 6.915934794960528 0.23629877869987692 -0.19967495682925612 0.8639353993870669
Ni 4.066101519684881 6.786062538431763 5.982918771448273 0.2286759720472965 0.5101462050774892 -0.32782696591786126
Ni 0.8065669917631201 7.350763762954512 11.23918791317832 0.058089190833248344 -0.25358430525320197 0.7090418605385596
P 0.3679267191964023 5.724303299835332 7.9021439229512005 0.3024548057016598 -0.9656580106395498 -0.2091314742564656
P 8.605678437178815 1.698616229302006 8.01579534663939 -0.561516074909033 -0.30540386102765466 -0.3851204003226916
P 1.9589455695826308 3.2341486943859197 10.267257414040412 -0.8791861548985503 0.33470286710208813 -0.03474588812161758
P 3.8198784286279905 6.119440730106308 3.7349304694511023 -0.0955221388687258 0.08740156664412044 1.3000801132764255
P 7.04765539431784 3.999369845494035 10.333052281660928 -0.8286791472879341 0.3452081375087861 -0.1798095853638968
P 6.393668742046914 7.672897066564716 10.146248719483898 0.23490446945551158 0.9747946828334955 -0.2952276918256012
P 2.4460037601503015 8.542313129565354 5.773249186857134 -0.20838456878811207 -0.4505945707661014 0.8970964595200679
P 6.820294786228068 3.9409593240762435 1.6384385910588737 -0.22500752205677377 0.1654126932122764 -0.6579815515276345
Ni 5.278282291110475 2.957989308591264 0.23857972415504736 0.12157255609887448 -0.1363581990484813 0.8318809420546834
Ni 1.519070661767156 1.0761091658297897 7.1085640665898415 0.23672995270002456 1.4765691189075216 -0.7628357664305636
Ni 6.860718260491091 0.8945338507258943 9.257774328597296 0.9824995076769207 -1.2917821349336915 -0.41274330424628275
Ni 2.8676479428013852 1.5106773081023623 9.225438256720318 0.38403282368546765 0.4344485571338582 -0.10168635869790875
Ni 6.058421951474402 1.8708785318825671 2.307508912125468 1.724055795903418 0.6440078629563618 0.5396269881454255
Ni 4.268895774360063 6.949760010229648 10.48770568925721 -0.4191636059503297 -0.3927442354165365 -0.18145689115933264
Ni 8.062429902614362 7.350402758495811 0.33829818075967977 -0.05546255184367868 -0.7650368878469406 -0.29347471369023653
Ni 7.763355758803673 3.867395640504485 8.134995408857812 -0.5537641988777561 0.350506409793248 0.05662957556858633
Ni 3.11156060532259 8.15037058875388 12.36978709200441 -0.13074779484023932 0.25821126250225207 0.7073097083388012
Ni 0.16941758744599864 4.7902854889501825 10.27815523613744 -0.06358466673018083 0.16441561940632976 -0.2829851270128223
Ni 8.6270228257995 2.2248614538616502 5.713451505806784 -0.08819320930748037 -0.33044486315668253 0.2249221614318191
Ni 3.5815703603281155 2.6340961082448935 11.57575778509197 0.6529725283488174 0.5296508507693201 -0.274524654950295
Ni 1.0747824744440642 3.3628738592471623 12.439808419325168 -0.6163571911186289 0.4908176799522063 1.1275896872817615
Ni 3.2162699485687614 8.431349384072192 8.051539300606505 0.4859199855402729 -0.5440199750067986 -0.28909741055814725
Ni 5.25405889193165 7.888254276402686 3.6720281500559255 0.45346032234967065 -0.24060177695060497 -0.05183652505531718
Ni 2.753101228055617 8.305719832444309 3.568309764048888 1.1846851467431727 -0.6078175290787339 0.1423997772568709
Ni 3.6359286066969907 4.466608891279032 9.370725403635607 -0.4197138220268449 -0.5112350672662938 -0.27400889165614095
Ni 7.286360567522287 6.113673683878561 11.412043165582295 -0.022876904598173504 -0.3477363032472785 -0.35034057363934507
Ni 0.653999287426982 9.035309843478654 -0.0006741758266237706 -0.06453494645859209 -0.17488360881718912 0.6821805173713413
Ni 4.399877217088186 0.2562508924084522 1.5459474437174319 0.023479571179178916 -0.43358646624387903 -0.06611951733689259
Ni 6.063521139453551 5.5339185734279885 0.2812296934171083 -0.689471908826432 0.8173374970228697 0.8814854924556884
Ni 8.035697522447567 8.837217671878049 11.183656402318666 -0.49134347054868927 0.32917242420216214 0.2692852609282265
Ni -0.0007183988728146202 4.606299566573312 5.92142978450891 0.09911808375010026 0.4157422389736066 0.09679149249945265
Ni 7.9093459619022815 8.715486968404136 2.3524332094773444 -0.33678803176589095 1.6581201124425575 0.886569591846815
P 8.343986305066593 1.7676222315826668 3.515803470553148 -0.02091489577579624 -2.0315571628900497 0.5592031105051402
P 1.6386443636003334 3.0968496736305324 1.5567523071663472 0.3096410390374538 0.6628620195483874 -0.044893518078580746
P 4.875464490980638 0.9966340342468053 8.124216718232153 -1.0120412258897795 -0.020257721807771564 0.05811747296802249
P 8.395664093329616 1.7090402330469923 12.348084406458463 1.1179891880775197 0.11955244034505215 -0.039710688326060645
P 6.132888146192912 7.680216431964875 1.450419346367169 0.008350428847224329 0.876430189419968 -0.7156789062391029
P 1.8405361071287638 3.182723609243989 5.945668526377229 -1.0330697644253046 0.5329338923959661 0.9483922815805664
P 6.677418246585752 3.8763124506343956 6.05691656288162 2.232062586040401 0.8199330256641878 0.14761268891637805
P 2.4608229931799706 8.498640615174024 10.231064912033359 0.42189308906635087 0.5530576597290346 0.4743021987956863
