# total energy = -340891.8110116246 ev
CRYSTAL
PRIMVEC
9.06383045197063 0.00000000000000 0.00000000000000

0.00000000000000 9.06383045197063 0.00000000000000

0.00000000000000 0.00000000000000 13.26583205248319

PRIMCOORD
 96 1
Ni 6.294286317352231 2.125694802397662 11.436234411367298 0.38455090097246675 -0.2918790870683425 0.4647083844596642
Ni 4.665624777417338 0.38271570273463407 5.985742657156605 -0.08270364694781886 -0.9490376284740494 -0.38599508961816104
Ni 2.8181351824167287 1.548673237488846 4.7679128215640105 -0.46899518476047614 -0.6268043545938817 1.2826210372597138
Ni 3.4200641530050615 4.291805224127553 4.899907569536962 0.34173714824105017 -0.3144839689520519 -0.08238611570740005
Ni 5.049677395122033 4.252694796359315 2.8484129075522557 0.10249779885561058 0.3665251538190075 -0.6307826225153395
Ni 7.0200906567258485 5.859449058445812 2.848970333116044 0.5795580200124084 0.38410404324303526 -2.305962261543345
Ni 5.198079488714004 4.666422394484221 11.28154201954331 -0.893657351931532 0.32482263187389865 0.7376854924171811
Ni 5.593869766664324 8.005474032218714 12.358635042833296 0.442723909768773 -0.8908108836216724 0.4297166988758277
Ni 2.073931267522944 6.40739385573458 0.35951501630164273 -0.5801856262940782 1.3772414902497765 0.34206882054885607
Ni 2.7786168822847435 1.794411804731594 0.21374143349826746 1.0882741775115903 -1.6795343164522751 1.005543791090894
Ni 0.3662603188149967 -0.4062580955701428 4.73802484113162 -0.3649264418733199 1.3850668998314661 -0.39623322240640146
Ni 8.682025517712237 2.000659263333273 1.6714283168483708 -0.27770073868543144 1.9748823359058243 -1.0999228174941122
Ni 6.891465840860481 0.5794307310040177 4.788461431249612 -0.47965857801159323 -0.028031709326235596 0.3601233640577217
Ni 0.6599991185896175 7.560385581236773 2.428774785685132 0.5032281378014172 -1.1024872357871787 0.022065721550787804
Ni 7.835626916123927 3.6216890581509347 3.6470958808802854 -0.007820010265051048 0.13510504336767054 0.7597866951915948
Ni 7.8776921525717585 3.7784480032845775 12.422363740094305 -0.05781125458151334 0.32283362646832786 1.1969397957408097
Ni 7.89074406821168 9.067999667441699 6.986238156917833 0.2921415967011098 -0.029995260810509634 0.08227632960241313
Ni 6.984252271697897 0.5868313484484593 0.4416831699361636 -1.3712857868869737 0.35517836134762054 -0.30598313056989235
Ni 1.8887753420421665 6.159824394770122 9.380535038503869 0.3799062031116037 1.7863050316516267 -0.34292782611504163
Ni -0.11419972993416197 4.87845257682081 1.5861422055887575 0.32616397639314154 -0.5868234433255701 -1.9749784951640568
Ni 6.311444148120545 1.935644408551913 6.981820446026931 1.0694840413882807 0.707883064343768 0.15333982120814238
Ni 3.4591020701308546 4.319758076789719 0.2856520503760526 0.3028849512605429 -0.07544439428224425 1.048470158140775
Ni 5.82621199271554 5.468915802072684 4.756331059199641 -0.05214685720688439 0.14073035997424793 1.4959950888426172
Ni 5.308440686513786 3.0750857077473817 9.080183268138354 1.0011603173112176 -1.1855896608353131 0.650288553758751
P 0.20316847544690034 5.621514449096102 12.59560254148941 0.38520036163100757 -0.7447064038197045 -0.2650989907610209
P 4.227243560861468 6.2088234614016615 12.63522688843597 -0.8544531709282446 0.458383727793217 -0.1303155923988272
P 2.381512348940127 8.632827046813977 1.200117298409585 -0.17894698025328537 -0.4384666771543158 0.6517098595863099
P 6.33375929833269 7.695010652764382 5.8317925930346375 -0.6636050683619992 -0.08163303959145941 0.26184885925483936
P 4.904556408100653 0.9546116716056886 12.749393082198 -0.7467923398144558 1.751409248215706 -0.07995513766840424
P 4.0403926991135615 6.2932711683580145 8.277083490302454 -0.9366089157923935 -0.2616804519977751 -0.8861193916832739
P 4.695725757861907 0.9305925212961105 3.69567529216868 0.4687522155117347 -0.5969877854530815 1.5064345390083862
P 0.25816598497462034 5.479946483554479 3.5364981171095295 -0.04653902410180372 0.9396718709884333 1.4410251603646407
Ni 1.4472308487096772 1.0006649933879401 2.7479376294666835 0.3147842738012901 -0.28820395220960043 -0.23359217840199123
Ni 1.9110542369330885 6.6565494870025015 4.635811120393453 -1.2862118399347655 -1.3842060944930676 0.8679872008589373
Ni 5.9387757012795594 5.698448240729196 9.220641820850583 0.3679667713615405 0.07794839165102059 0.010000819966453743
Ni 8.545234190741613 2.4016068607274224 10.246740828458789 0.43127350183998625 0.09771914652004461 1.2145343688941213
Ni 2.2825625134949705 5.387205371868591 7.032734700002023 0.5071120462368557 0.08560385131374934 -0.02503406015049237
Ni 0.44108405075296997 9.257161805917509 9.246603349994631 1.26940916655513 -0.2700697045027349 0.6218938046661419
Ni 1.6184919223321217 1.2770483708935871 11.395362881370701 -0.8325085483363533 0.45647185548248487 0.38880993335913683
Ni 4.128919129707391 6.611810420614549 1.8000277539888825 1.4607902588067099 0.7715952577907486 -1.8870475383790277
Ni 5.975611107641116 7.962357391455445 8.05079499651228 -1.6475135405713044 -0.29535907519714294 -0.5657087728341419
Ni 5.469695291478957 2.601699978551667 4.816996181817391 -0.4598659687656983 1.5477382828531794 0.38487820240489845
Ni 0.6511401308490207 7.562751240946509 6.924963038520523 0.34954893097598505 -0.7387756401575665 0.23757507430913924
Ni 5.0399156498830076 4.808652019638146 6.929155060036816 -0.006149821651479731 -0.593677747243242 0.6892615925878387
Ni 8.223223491478073 7.409001487474292 8.94301488582702 -0.3527245004904893 -0.949482943541584 0.8524842201273319
Ni 4.646907967836477 0.42737500741589945 10.611604411023709 -0.4202714943025278 0.31716023023263445 -1.3483949983317294
Ni 7.989576073862865 6.839774816628209 4.815934807288616 0.7671331082543369 -0.16796065644511074 -0.08240051388510325
Ni 7.270288628478903 5.962142255807142 7.116269679246614 0.11972059049180027 0.9397654591435042 -1.7396873317930879
Ni 2.277024513178309 5.303455579845759 2.4659718388758782 -0.48178693720850574 -0.4134524144981654 0.7227458403882134
Ni 2.586354913844453 5.306283494901077 11.590118309528036 -1.1589784860056878 -0.5827824404869769 -1.5685045688662536
Ni 1.2897105418303723 3.3474809999186084 3.816805226754428 -0.3815295976476397 -0.29337778310105606 0.07730253053690558
Ni 3.452594239971505 2.4832719717799883 2.721870053508062 1.1157782964691298 0.40402623608825905 -0.37627220590344235
Ni 1.0381258040405763 3.61364037683965 8.454964785580035 0.5267879273992283 -1.0508713113831 -2.169888683614818
Ni 3.9239043520272605 2.652756534662555 7.037948215193747 -0.11278195439043802 -0.3061757061966727 0.012479620524249476
Ni 4.000919718133104 6.991512399772604 5.983606312353599 0.5993226042338453 0.2379219161255967 0.10363834021795698
Ni 0.7116493555855159 7.398297103883496 11.462925578850935 0.04440500847793643 -0.009433891719390203 -0.26696072656010794
P 0.1669584733764232 5.657778834148412 7.996192669985881 0.5012093075991756 -0.06853455453628843 -0.02965047587658119
P 8.663045857052518 1.8053155925891118 8.209188150250005 -0.775884886305038 0.28407090387783335 -1.634929533258707
P 1.8741010007775603 3.4562922827361495 10.555994186567338 0.3456267131034435 -0.9424895429428864 -0.041713320578386226
P 3.877461285541872 6.136602861527427 3.814948047924831 0.8105590406484557 -0.37424540528140066 0.8066671617932172
P 6.986790144183437 3.995408909307359 10.449176946417007 0.2257264025006693 0.4963589214854096 -1.3364843629370724
P 6.344264277656765 7.692019588763567 10.205126064377142 0.07926531069023122 0.8263972932322929 0.22497461193630933
P 2.2481290221643713 8.549095382451757 5.707531105078338 1.4140784565724678 0.5302589166669642 0.6095082865175955
P 6.951495588973816 3.944950565996634 1.4933077364507228 -0.3707407345622518 -0.13948260361007592 0.39823482621746253
Ni 5.2068623402800345 2.8679499937757633 0.8117910847158456 -0.29657700676464405 -0.6591354626264196 -1.819902665101414
Ni 1.443414976151061 1.152239427586836 7.047221419979305 0.10126546911040624 0.5274271036451239 -0.09757310786048357
Ni 6.89261694730928 0.8331445625325757 9.278361198619047 -0.573448821790877 -0.10384325713991148 -0.5212762535523797
Ni 2.7287295602832655 1.8092583587720048 9.209206892537162 0.6127602177959898 -0.853008210951602 -0.016032627982830453
Ni 6.336523766575867 1.9850876028684221 2.589251714010091 0.5972130140900103 -0.5601803868167449 0.6684302576647844
Ni 4.085793425113817 7.065790489126186 10.354486204832403 0.007915141082018625 0.04855116943582606 -0.02331322080464372
Ni 8.07656165330476 7.243296541829121 0.21649955706023147 0.09681283265569132 -0.2770337945253939 0.7270398397778769
Ni 7.445120851241715 3.89920541444477 8.108036710423644 1.238017539617726 -1.3102102597318919 1.004578084743515
Ni 3.076200558874958 8.434809546129694 12.281573451192894 0.13588280207395953 -0.2989107971041433 1.3529533071263733
Ni 9.154196693647016 4.806105083322301 10.097434164602332 -1.4264480338814145 1.1104306590039714 2.378315675605091
Ni 8.556935595666015 2.2352583831305597 5.9557749150175265 0.435469799309521 0.5193908636042087 -0.4878971638713016
Ni 3.86457251884745 2.78460807411668 11.4869501674587 -0.8123935227540332 -0.4858058285599117 -0.23600438738790971
Ni 1.159689896097958 3.401990875375892 13.016447059170195 -1.0416999292964768 0.6614651392008608 -1.9830484166563849
Ni 3.0710885585826553 8.603269896187738 7.881854263448044 0.36442713363939816 -0.9564372633722303 0.9793121110878746
Ni 5.673241728649597 7.802226701448156 3.5850911241433825 -0.8089137917355489 0.03486055932261093 0.24418203810269556
Ni 3.0438064293630966 8.232287321783575 3.3753586227892383 0.6647484379378229 0.9928780226977676 -0.05541652909709165
Ni 3.396017811204567 4.231331348329249 9.036685040119224 -0.2521540005645786 0.8390592049706774 0.4882131524498237
Ni 7.317184886479565 6.26288014534367 11.485663103555316 0.6025544809075816 -1.1279465564005478 -1.358303515694693
Ni 0.33154947427704945 -0.010719792102316232 0.45098537897869945 2.118194854784952 -0.0037476399678903196 0.20644081479817994
Ni 4.596794050077362 0.32182942265743 1.6970318246953502 -0.20333929305472076 -0.7627437209373896 -1.7831757419940257
Ni 6.119608179704613 5.717273816273721 0.21648142939962045 -0.06398575882334141 -0.5142345162142499 1.4001693026905435
Ni 7.883266408209642 9.047515410951267 11.287790624155921 0.18692922712781354 -0.6273962225416098 0.2483395119144949
Ni 0.43319217370597013 4.704164183876329 5.702768968635828 -1.1462679804175548 0.19804102077025892 0.113747660737817
Ni 7.757369805266229 8.90442472191832 2.638507287039276 0.3793559870350886 -0.871735612157776 -0.23265706818223156
P 8.593934150973071 1.4774043397966905 3.808248970946035 0.5154629893047123 0.6071431287195286 0.021426802415208262
P 1.8703304473704716 3.2974577204625475 1.6728613084196704 -0.5483520267232491 -0.22728243413387952 0.13261261596312
P 4.896036407613483 0.8886732125161981 8.173543731190591 -1.094281817158251 0.9645832895181323 1.1239384636824192
P 8.616629982058047 1.536935577243222 12.573833033861657 0.1369009589258287 2.2219787194418377 -1.0219284030965046
P 6.3393244901402666 7.702696780863447 1.390033547566812 -0.6573477745983776 -0.6697602893301176 0.7618572045673782
P 2.0325911374995536 3.190042267512053 6.24244936545204 -1.0508579416466612 0.11669414496065064 -0.44944451632205823
P 7.172326750537047 3.93176269290213 5.907673167586232 -1.4244749693154437 0.7585926748834936 -0.49143937269660526
P 2.226656808170639 8.496860528401154 10.295439882307218 0.6386563688364614 -0.02188651566044618 -1.1968395227175195
