# total energy = -340864.28758175875 ev
CRYSTAL
PRIMVEC
9.34612248443333 0.00000000000000 0.00000000000000
0.00000000000000 9.34612248443333 0.00000000000000
0.00000000000000 0.00000000000000 13.67899497650791
PRIMCOORD
 96 1
Ni 7.592490870037137 4.068834444821396 4.4454000024181415 0.6862030082671731 1.5608732775732408 -0.7085098992944895
Ni 4.373368501442644 2.553388714433306 1.965849394445998 0.36966189967577623 -0.11275161537313484 -0.9797911076068222
Ni 9.10917963472214 4.0948633960763114 10.968501924534912 0.07846621182770357 -0.23622370248756738 0.7036145188754012
Ni 1.1046742989321459 8.15815559023553 12.622989919849173 1.3276870763604165 3.59978765215931 -3.3542465289255587
Ni 7.5034223222959 6.49623742750739 4.90550681089 -1.7086307195975994 0.19505442733810924 -1.0393152311143843
Ni 3.6678577497802283 3.3985492289865484 6.484049149111866 -0.8893396983927845 -2.2370867787278694 0.28662298087572574
Ni 7.874855924009674 0.4425650710893272 9.64135252482287 -0.40268566289996455 0.6416416767170305 0.34411644710650413
Ni 4.571926874660125 6.764704797273083 5.251995611562709 -0.07492785965714192 -0.45088279143048154 -0.5082153066033634
Ni 2.707067007246441 6.818678654902217 13.552122541526307 -0.8095671090488316 -0.11565233395969761 0.3104375667968202
Ni 5.092571322616173 1.1237684272674395 7.224356449577575 -0.22758428164501446 -0.06362246194665172 -2.0637131787973035
Ni 2.215517038736193 8.782345729736717 1.2350891581479337 -0.15981025942383445 -1.1789569860101439 1.053095315617612
Ni 6.682337419388137 7.425195276693154 0.741511081047985 0.567032890962204 -0.760653156956948 -0.607278111635496
Ni 4.40688369684664 2.2579017044241794 11.028539546463577 -1.0432649597907517 0.38802394712273175 -0.0006116654420699144
Ni 8.45702589660167 6.183497475302006 2.275979909240116 -1.8397299842399866 1.894344329150757 1.1659114656800953
Ni 2.222769629821943 4.296197567686149 9.912250821059443 -1.8312206612173945 -0.8089400169877939 -0.08118695319297631
Ni 3.2102061676978364 5.228940596497853 3.0023343833760374 -0.7524140568766073 0.25646599767637124 -0.11826200366840277
Ni 5.751669229778801 3.1590641851962564 8.201720671199457 0.8979539224243568 0.020438213249693832 0.4905441145758455
Ni 3.2743392605205406 0.3847424802010281 12.144662845498873 -1.886004184716178 -1.1708474695291318 -1.7501139264430505
Ni 2.622933212202724 7.672923600557714 3.6841228068247274 0.11341521709906273 -0.07979212972797871 0.9050200852425188
Ni 8.02991744295772 3.8879682815592305 2.012808987113978 -0.36090600786001714 -1.1533246301540203 -0.8049247251808138
Ni 2.658738207627349 2.3112587179661235 3.659609796644694 -0.5665114712410954 -0.13736067217106668 -0.20902554480622063
Ni 6.07085800653208 3.868575077302875 11.519067983780948 0.6315516394708801 -0.8437982623175596 -0.7370242046840983
Ni 1.363188048199999 2.960309543405579 5.846183763120124 -0.44100461308482114 -1.3538225971052038 -0.3556586434181488
Ni 0.6460451124327831 4.9095835895389754 3.1884783020326917 1.3679214984004313 -1.2124769721444604 1.4715325849248786
P 4.835880067242291 9.319000085592108 13.316692780303166 1.8386668330827947 -0.3885890755975824 2.613886832110324
P 3.9315025203187988 3.770272560498852 4.4845630596689405 1.1287960488850366 2.0046796217729153 -1.312598300348094
P 1.445452618737079 3.9774480586919285 12.379243978796003 -0.14749596083285565 -0.26010487998053916 0.8607356615028466
P 2.5157051483795105 7.71260723683361 10.88481393953603 -0.10981155890820442 0.7744201288340533 0.8129092860481871
P 0.28605957620990446 8.011103698298422 8.41935261128266 -0.4092897984800435 0.24219997467566032 -0.10917084000041198
P 6.203703792218748 6.957197536966528 6.682722479636504 0.45702875642721935 1.246107515714712 -2.2022290476187365
P 8.872087198300344 2.629419421240753 7.018623992703623 -0.7930842809024599 1.1328625056449264 0.4048325340396382
P 8.57872175810625 9.510053522415442 4.930347869970949 -0.7604685517499677 -0.3491375544701794 -0.7941618302373549
Ni 8.466680441178447 3.2074770999181466 13.142367968201976 0.11493113952295692 1.3355397396356161 0.8638153288694349
Ni 5.714621200057261 0.3677437525376741 11.387818515822948 1.6141676181210074 -0.7236819790492376 -1.50179138380942
Ni 5.83810217096568 5.862757242208218 8.326295138444259 -1.0164959192270235 -2.2211456820175814 -0.022466299423316145
Ni 2.5436780931213288 1.5101184405441752 0.4900732811500051 2.414135770627494 1.5973731722714875 0.22271384092659063
Ni 3.430335391721905 2.319735651103721 8.578795592474261 0.2526764487269519 0.6582957403339437 -0.26136369208830473
Ni 4.450857203365268 4.364499031158653 9.82084854652167 1.673977648300104 -0.11716954193517241 -1.229605918515263
Ni 8.158819164935386 6.3220817802240505 7.887240470978395 0.4780832631046734 0.3414036761610314 -1.5521248419566496
Ni 0.19145251625550214 6.8924476000566335 0.3021489261507797 0.23539452171805264 -1.9145560282119412 0.9492962814520749
Ni 3.8487799897775923 9.01070888771252 5.655375194707159 -0.9384089451156096 -0.6421569257905521 -0.5190213960799319
Ni 0.2614970315804451 2.1781045102358596 9.390014728435995 0.13305844525128696 1.1889639766241846 -1.020745438531997
Ni 2.9970398049609894 9.2529790760177 9.03270592170662 -0.15121634710723636 0.1578431083951346 0.10493777575567088
Ni 5.448378207454466 4.664004873857048 2.7115054808374497 1.4758525524564712 0.1853721670533388 0.45375857031637984
Ni 1.1587603100316781 5.900038924993087 11.523062516551631 0.06407626165461869 1.6813227758112657 -0.35407407253984824
Ni 5.04702766751197 7.960980443152959 10.206280770565648 -1.95857768520853 1.7397444102832682 0.13129389715169645
Ni 7.615024371464643 7.389960394743053 10.003544680575834 -0.08656184435164448 -0.5988551776791236 -1.1242205136992123
Ni 0.9094926797859036 4.5578329218800855 7.683779121880006 -0.17069759576029958 -0.15985062574346662 -0.8956319591593994
Ni 7.953410083901081 4.216400373497828 8.914915804808656 -0.58719933860775 -0.036728979989917386 -2.3517222413872787
Ni 4.708585878340334 1.6458334858485315 4.617399499233076 1.2014407689349564 -0.20044088846100316 -0.29404164193730004
Ni 7.205112783281752 5.850682051895346 11.890480089412899 0.7764633845163272 -0.06766732143998667 1.3879444784895776
Ni 0.3732588994445057 1.4540417053450747 1.0238368813058827 0.6548414632367561 -0.83634874801805 -1.2363756331389288
Ni 3.64094091688466 5.719453145406916 11.465638070483246 -0.10725356837304108 0.28196491327842405 1.10831618376413
Ni 0.25289392578864983 0.6467227063164389 7.45037373079755 0.20103944127695056 -0.29744115453715225 -0.15459863331590792
Ni 1.8011286578599068 4.692604008808589 0.7987084163388141 -0.7708599222866208 -0.26283899108225056 0.3649395544994425
Ni 2.107139401841398 5.206229518742217 5.417880875016435 0.8322141570243861 0.024601343488447953 -0.4161225051311607
P 3.4538876205055273 4.9122005038482675 7.830253423444564 -0.8447331154270032 0.8736857939056114 0.9691274572453891
P 2.7476759096531227 1.144535511536173 6.748340671329733 -0.4601341348254205 0.2997129812904645 0.07508983915630293
P 1.4146945294803726 6.724273471194532 2.0600433557844333 1.1096775828880308 -0.34433550509584565 0.5562491700831387
P 5.616075684067376 0.39283341847800496 9.013171591000015 0.8527451870982025 -0.4417862284458521 1.4655604265018438
P 5.746285863199687 6.150814084803464 10.337394719746916 0.7721565296108573 -3.365196857289475 2.7591773006514284
P 2.254705330517831 1.8105775877409553 10.168896280432914 0.1933356448747896 -0.24276278915766575 1.76141803860196
P 8.739661988127668 8.810870095707992 0.20756896995172358 -1.092366859523725 2.5970486775070625 1.0212771426657508
P 3.6087061402677105 0.14960244877641346 2.9795317136195765 -0.06055436454428926 1.017932394563234 0.07473528403036162
Ni 4.367106599345411 7.57238736046826 2.126783082181643 0.8867020036596213 -1.1359334312607665 -0.5576108263173558
Ni 7.9336056502532655 8.058451155051529 12.088415076257416 -0.0037756649923483356 1.2410257303164305 0.6373669606010764
Ni 8.340844247391665 1.2936622426756477 11.85733593507347 -0.4515345660818675 -0.7194537999005028 0.022998517777702326
Ni 7.2504788620578235 8.653014086122525 7.70701919017102 -0.4018788507279531 -0.14030664217326805 -0.906654021301516
Ni 1.1100670116337927 0.5764538840506994 3.228037634878897 -0.2913193579101305 -0.1613079270152835 -1.073333754151674
Ni 6.032286558837632 1.759865526875902 13.030008883108042 -0.10428291578049137 2.1792721817122467 1.254799129951439
Ni 4.1134434876722805 5.217697211090433 0.6160113476723981 0.4030358471505317 -1.000208752031226 0.23424755259780305
Ni 9.275232193769211 7.550040781491418 6.091981178069328 -0.7043768509627224 0.6430868938039892 2.051405050853912
Ni 4.4994290021702215 7.958176606393004 7.8552449550982955 1.677391816187976 0.643226504705647 -2.0437495911911836
Ni 1.3836093259350046 1.8315222483378193 12.261755741655861 -1.2452731927388747 0.24010992491585098 -1.0180987449377692
Ni 6.154589918306871 4.185240400972195 0.18046988766675828 0.7935411659342204 0.11664503689027007 0.7309373750600702
Ni 5.646422543932622 4.3654897201471705 6.245596851861491 1.0706754905932208 2.026678237531194 -1.115916364708891
Ni 5.890561956744439 0.09740809287759741 1.677263561315374 -2.0412558782350523 0.9102612790368001 0.197929177782743
Ni 7.97345751673476 8.78302799668164 2.5862739811785653 0.15541367301803555 0.0349340928730237 0.03562803361625477
Ni 4.778588336113877 7.281078067231466 12.802199015586204 1.6064861903163496 0.3399574306328081 -0.23851892627964727
Ni 1.3235137580466352 9.184967342343725 5.3348349686355805 1.869943017488257 1.0248918566002025 1.5211728736598253
Ni 6.86566161287653 2.460946216457589 5.755765635285095 0.31260963474747455 -1.989049628545142 1.1352297203255222
Ni 8.430267947789165 1.9820228594896718 3.5359521840203976 -0.29922292902792336 -0.9017339582920793 0.43478434320672216
Ni 0.9306663203848305 0.07585780354058312 10.241545560107854 -0.5647428093764467 -1.3587740275732083 0.695136563311377
Ni 0.272644151925773 7.636585876148696 3.8461499908967545 -0.10302204679019675 -0.7607986813958768 -0.41866841148146605
Ni 7.596864855382667 1.4734816402140962 1.0467918928596345 -1.4568317883795943 0.5619151101196646 0.45769081549125046
Ni 3.27439533725574 6.613176112642581 9.20303620103713 -0.6685187036135325 -0.9457874969678678 -0.29183769230744583
Ni 2.0442399971930736 7.041546292828508 6.93423785235151 0.929523983921154 0.4328297905835126 0.73777522391751
Ni 6.18911449494445 8.769177043087462 5.108844791170952 1.1353641890208577 -0.17890584260270478 0.18042613590197312
P 9.312242839000616 5.4673975668094945 5.471133211986007 0.4150009899322079 -0.9542148017996148 -0.01287428485950686
P 0.9310326883881314 2.788752118186464 2.5313935496637123 -0.4079176007228652 0.9072512885658827 -0.06789203585628308
P 6.439618617201365 6.864960653686541 2.885228402647503 -0.9493279060209585 0.5480674056032948 0.5157326980263311
P 7.654109855898416 2.6933936299803936 10.203641425562278 -2.144213647446217 -2.022046138075821 1.7769235904367269
P 4.157968415420366 3.2141128469167066 13.135035935074692 0.48052786799042413 0.1854061056150678 0.3026990605019819
P 8.110938979197886 5.44475191191159 0.3668231594681555 -2.4377554669289627 -2.957042715075772 -1.5472819120420516
P 0.19519003065652216 5.61602895345471 9.421736402925873 0.5504585315432907 0.13938027370425674 1.382354900216942
P 6.280042921069791 2.355269608974884 3.0186667325027754 0.9327342633283355 0.49990858650988107 -0.03576738740759647
