# total energy = -340868.05715789454 ev
CRYSTAL
PRIMVEC
9.29224490753449 0.00000000000000 0.00000000000000
0.00000000000000 9.29224490753449 0.00000000000000
0.00000000000000 0.00000000000000 13.60013969668462
PRIMCOORD
 96 1
Ni 4.070012551827624 8.474016261552926 1.7127475064078002 -0.09450552467875337 0.5060062147671865 2.030038669362994
Ni 2.6507894060682844 0.09016729824055049 12.727228208959662 -0.5948144319508466 -0.8205264362738127 1.0475754142406475
Ni 1.7332917306238083 3.832512064814667 10.633418748965276 -1.5880223271842069 0.266928844880908 -1.3101894337962856
Ni 6.524689129600262 8.087003554342054 11.34446132755722 0.3040936268566634 1.147677716280888 0.23807463965337705
Ni 6.5498804054832025 1.0497541968911455 10.408662575811949 -0.4308094177193742 1.0253294583582535 0.9235297140109321
Ni 5.047519544738734 0.8462939905650134 0.5383053215287302 -0.1934256334854346 0.8493333332031759 -0.00928348218445498
Ni 4.569777358471776 1.972278976818348 5.0518534477530475 0.41338350893344294 0.4410370089846533 0.0011292285084367648
Ni 9.178024610767006 4.28095580295956 4.020187534754833 -0.9734014020303945 1.834270760897628 0.5836648430919303
Ni 8.817439048008769 6.289047091564282 5.939521158668042 0.6343489997103592 -0.3100349320417628 -0.4744839757891893
Ni 6.82873138223393 0.4778035150831978 4.329835798727558 0.4961789442641197 -0.023792474433907407 1.3235648266619269
Ni 5.759640023737324 5.9677119711998285 11.349901007712836 0.4660142477552813 -1.2632074086197922 -0.4056308615712175
Ni 8.133669208153982 2.2669639388529315 3.090890566755521 1.285303212077567 -1.5031427556309918 1.1359681411534435
Ni 4.998205601134611 5.960398974475418 8.003111309072272 0.0063197715704407294 -0.003743783313148391 1.7045745472503548
Ni 6.836490406712816 4.9692323815835175 0.9710563165120173 -0.38215797526025796 1.2138178024430708 -0.8186258768169902
Ni 7.775453167841392 5.412881321367807 8.163497314234487 -0.25053163446980725 -1.1461502238927679 -0.7691455106986754
Ni 6.663719697568016 3.2087236656918607 5.080127890488797 -1.6221817466747352 0.2755081019094868 -0.9756585734956874
Ni 4.473546870443834 3.3949960066544076 1.2635464503047888 0.044629980004548944 0.4105054160546995 -0.14193466469499427
Ni 1.8841420340851465 8.992662909803178 10.203341132835373 -0.5999288703592764 -0.03713187185529089 -0.11947093637483942
Ni 5.339314618614115 3.4086091454107748 7.342321190817825 0.8180584343492943 0.9616848849244148 -1.3662402540432663
Ni 2.7512106965393133 3.719685627422307 12.648483867356111 1.007868839679645 -0.032400527817892585 1.3076658960434833
Ni 8.733688044861236 9.33443167666951 10.801870422687578 0.025405070336665923 -1.2027324911631867 0.505327186422291
Ni 8.461434561978782 2.610200880411076 10.789521029235555 -1.5426644678746981 -0.5777613331233017 -0.6360029903740143
Ni 3.32933700429776 3.6922920895016453 3.8010485236344222 -0.0635764392000647 -0.7586173574738418 -0.7171973997661584
Ni 9.138077250006853 6.9545390857304845 8.952291822676276 1.092740183702744 1.9323164375191562 -0.562295890497851
P 3.559059882342063 2.2681533461981975 7.164036463558332 -1.9877741042668282 2.118336522569139 -2.294256285960326
P 1.777662199949168 1.9893952918963194 0.18768847908300457 1.9333093975600444 0.9718032043053392 0.766745385897615
P 7.309772315435025 1.570026987996254 6.549364685892091 -0.3545798085316732 0.1326223861551329 0.4005863571687746
P 0.8662723170675314 5.242851824464051 7.385923191491203 -1.2541216442684402 -0.7027344302632929 0.6429488255642283
P 4.892050995569604 0.350332499752248 11.975711399322595 -0.6349979461482677 0.5082955250219956 -1.2349494422153633
P 0.7811683630647586 8.644426740496963 7.652920980666762 0.9231841577460552 -0.3176734224236271 0.9685391888420867
P 2.627029135897615 8.55589023123371 3.559224355076525 0.010815088337632986 -0.01666023426450034 -0.277691996934683
P 6.4281148285115774 5.115538777296144 6.565440269542955 0.5055953524820131 -0.1763943890347607 -2.0433353864719006
Ni 6.824401196117571 8.479935421544601 8.722503898917779 -0.825295832637998 1.219086764151494 -1.4853571495127968
Ni 0.4587646345385423 1.2267900464381096 6.3252756959214995 -0.28600643033764933 -0.4012831261254831 1.600970659814759
Ni 2.782293255679277 6.268381138940282 13.3238256411003 -1.0763072349577012 0.0035586638855358067 0.05529851546198864
Ni 9.421778778587496 4.908061533506273 1.7996792449794312 -0.2487154071966749 0.2860349695827396 -1.094244279052096
Ni 6.936967450653154 2.274564995168773 1.115174388554251 -2.188102378409367 1.1052406301625997 -0.9944695355546033
Ni 8.494226894177567 3.4760615510302064 6.297817112286643 0.911446814704469 0.8650042069712136 0.8924425056878242
Ni 3.9938811894857036 4.505763083459755 10.40814592699635 1.264538725836706 0.572711172293904 2.803647872259978
Ni 8.107706675945593 8.725464408138105 13.200377238580018 0.5654375214506262 -0.7627894865736605 -0.057652617516461994
Ni 4.804239281407374 9.031578831381106 9.68155835193647 -1.3885687423371378 0.0073384426429422 0.0397705950297186
Ni 0.6268055910369311 0.4451310528434287 1.0606818768757784 0.6120454511171524 0.2476697395409799 -1.2257163536528697
Ni 8.667527261280803 4.768854412885704 10.546540905413977 -0.500276511372261 2.2231753108531005 -0.5760906302890982
Ni 4.731276574571201 2.505161344232255 9.391086493732697 0.46544551973600484 -0.45873622603662934 0.5365642900597017
Ni 6.67029860694652 7.198033070694197 5.574371245222346 -0.20893838440905307 0.5225337801085647 0.4783426874136472
Ni 4.693605813807848 7.887415426459458 13.176101248818238 1.244915809399456 -0.49222304494016517 -0.1713056616579437
Ni 1.3208647336527573 2.8548749804751696 2.6659404113531004 -0.006018181169621893 -0.2220646373783659 -1.2476059546371094
Ni 0.34736920285845585 3.0924962666716302 8.317165026344924 1.0163025722692949 0.690997601442339 1.0528240642340965
Ni 2.5623458192538817 6.549908282217858 6.887763155538672 -1.1343594019054273 -1.0554689580561112 1.0901649667764
Ni 2.9474071550389254 8.853585880610998 6.87972629293773 0.7402301132159057 1.2512384091833741 0.5955716218318452
Ni 8.088081454748702 8.751036666061328 6.75253776185128 0.3951903829641839 0.44977464596796735 -0.7386717675898504
Ni 0.4525397596901532 4.707822948481733 12.692887788763056 0.3146361782592001 -0.04930475977239896 0.11589453187749073
Ni 2.440450150853867 1.026021803455131 4.636396249725033 -0.4449162894344014 1.1836302231160971 1.3354201833386163
Ni 0.3509773815472595 0.37029967556090415 3.322623357368425 1.186457665262563 0.6523230676902766 0.536480986317276
Ni 3.1766189596145584 4.191963973696948 8.444027399635912 -1.6036363795723803 0.03563111894004831 -2.262372806988168
Ni 1.1538459240917067 6.2792158964760665 3.5105636562878106 -1.5018644031392006 -0.19054805482732345 2.1755911333162334
P 5.612376526801555 1.3258267924212896 2.844632138938553 -1.2905708882344096 0.34411284756207833 -1.453973750105509
P 8.563277565917199 8.357156989880522 4.470066924734442 -1.2667537312101538 -2.446471249535406 0.9726982053157829
P 2.4912415613946868 5.146361153579331 5.040456509401727 -0.24467260458586895 1.3158826275263207 0.6999949198449429
P 2.3512445999589024 5.100643308745662 1.7469104447271062 0.08746995798821064 0.029298748964117285 0.00871115462075274
P 0.8524027123523414 7.642220960681809 13.001665369390066 0.1835795939292903 -0.06317920376164603 0.6175797506718202
P 7.188638611115572 3.9796547625669336 2.6847897301021044 -0.06385386123116744 1.3182686112599942 1.6509960998032664
P 7.06471723333065 7.497299109457033 1.1209021283012988 -1.023977058095417 -1.693513404340187 -0.6169176916077892
P 7.058537890482197 6.785039246785168 9.685843006052894 0.34980115619610724 -2.653635572763172 1.692100068932428
Ni 1.9597344462237438 7.50648913964819 1.8121234193292788 2.148040991612107 0.4883671615291848 -2.3384962296153082
Ni 5.341377496978562 4.79384125938118 3.4253444784484652 0.5932488872359396 0.6184672954830962 0.07003170790710521
Ni 0.7361929685973924 1.6711823658131895 11.922385993601665 1.5401854102065862 -0.7743550799240729 2.1841670479107025
Ni 1.6738678245849232 3.345440464683278 6.276220076725177 1.6865986794982244 0.6278232827766994 0.035977189425557395
Ni 7.89528595787696 6.2483563512133395 12.694043744026738 0.4279673202848887 1.041680388912451 0.08892134572275652
Ni -0.26418409742441334 2.821943264603112 0.43912919187227684 1.0123273896716307 0.24070256419452737 -0.15945467585662862
Ni 7.523308102889845 0.21872829389649814 1.876520534830558 -0.18797412345256015 -0.7689557632853724 0.47097159176055664
Ni 5.362508061846806 2.5659512102692195 12.101948404532832 -1.380263822015868 -0.9254865806269867 0.5179489889513597
Ni 9.164030489970358 7.682707271645285 1.8492385038485148 -3.2111641237793664 -1.2519318357059728 -0.04544244860351528
Ni 4.648798608972898 8.866938836510588 5.111925023260409 -0.19746457944149864 -0.7167880801428816 -0.24072184746823705
Ni 3.0618969042656805 1.0351003267076706 8.694719157487464 -1.683167028108856 -0.27942029247969946 1.1623283763145271
Ni 3.580497091291509 7.5809664824006004 11.187964126879335 -0.11619997893305149 -0.9320138402225433 -0.4278449357744115
Ni 1.0294227650830015 6.810527874504427 10.882342192615232 0.32756445628509395 -0.5118323345306605 1.5392459291114524
Ni 3.2015686371304937 1.4229865049377213 2.460972073682151 1.2382862198980802 -0.3093800720665833 -1.114886895003112
Ni 4.486351583895215 6.249201945497864 5.722027804116746 0.40768877254151076 -0.6780829502632 -1.543472051377658
Ni 7.300963267284147 3.191486551430386 8.732581338495445 -0.6920540677313114 -0.1486544999173311 -0.5899177659801775
Ni 3.450461416372329 6.377890244908735 3.3884208141738577 0.8144658319020296 0.01962985841578555 0.0860108569441809
Ni 1.239827066011613 8.328611213594135 5.498563253002419 -1.2138368286064645 -1.1808295204425083 -1.3257970584265553
Ni 4.77399302430705 6.34353681556929 1.3184097225541689 0.836674763898901 -1.4103938086320291 0.08206935579792962
Ni 7.570791474251644 6.192667927618181 3.3497418448404943 0.031859310602441904 0.4784591583868534 -0.33722563352394175
Ni 7.171680264200644 3.859905602735329 12.563387347149247 1.0278887344449976 0.43111357922335425 -0.6308985792679134
Ni 8.208536825191558 1.0477470719960087 8.819119085883957 1.5524014926568037 -0.09712290769694241 -2.249415218386236
Ni 5.144511996847237 1.0145923422467138 7.376973830442564 2.2970459328903217 -2.2908266914534865 0.03714832691552312
Ni 3.088723615248364 1.7911266627873768 11.145505072326797 0.7105806657805891 0.0013104912813074205 -0.531288386372743
P 4.614844746163503 5.091016543044914 12.881957095435954 -0.3614729361070807 -0.7381783728931997 1.323869245276223
P 5.491484420849108 7.2186153931142325 3.8109494105592754 -0.3363972240853755 -0.8536391596673815 -1.1265327067721564
P 7.777692598858652 1.447555200413376 12.67180740201719 -0.12240739329534403 1.4050482280493994 -0.38721559228882346
P 2.75705551857191 6.2061230982115045 9.716116210663385 0.19618622694970728 -0.4754316844144392 -0.22391094655848534
P 1.1260342351512245 1.7392108906154844 9.810909188407633 0.21949996197498325 -0.1755317839241493 -0.21972904726665382
P 0.538405677773487 2.4624913557208306 4.661202826669741 0.22485017054330306 -1.6442585239691168 -1.3279200183068292
P 4.918450263287582 8.001226841809615 7.220110515316212 0.45588487263076327 0.33480493989759114 -0.06429249143048282
P 6.2062253129052385 3.683650301758696 10.441275567684455 0.31873657358081886 0.9386429155032867 0.8355463067214125
