# total energy = -340866.1785971519 ev
CRYSTAL
PRIMVEC
9.29532623796532 0.00000000000000 0.00000000000000

0.00000000000000 9.29532623796532 0.00000000000000

0.00000000000000 0.00000000000000 13.60464953523966

PRIMCOORD
 96 1
Ni 5.333713993588567 7.720130996401318 3.8341306083362947 -0.7610935869284763 1.262154798985562 0.14062237364147395
Ni 0.7206424789328418 2.132152647646333 2.6451654233784625 0.40100107610869 -0.552110722434733 0.05537436300524657
Ni 4.716318421820143 7.252854944115882 13.059769830963164 -1.211293236249004 0.5284537451374254 0.28218679948124303
Ni 1.7445003603077247 5.185778875782266 6.109439646546439 0.17720377230993353 -0.058264025848215786 -0.4791448715999683
Ni 2.5435637889662743 3.6773240311247584 3.675024367402152 0.017185510640351048 0.860994314480872 0.9197077691616806
Ni 0.8298960259418354 7.988942537201846 2.8961987231286406 -0.9029655167063353 0.8248811136980825 -0.11626759894619332
Ni 9.049604333464712 6.572381288185751 12.108206349760351 1.9060832148542397 1.2245644994366136 -0.6153084381391403
Ni 8.89888061777328 5.255726206067684 9.799306790958525 0.9904321322604364 -0.00341416788787154 1.7348024928969608
Ni 2.1561531801110436 8.904866807900031 5.140449287626803 -0.022510265287374136 -0.2521974522080044 -0.09304128142840105
Ni 6.982044908164341 2.7141516169261375 12.55620761346375 -1.2032479973470245 -1.1035143915001124 -0.6139683791714781
Ni 8.076774075257248 4.610946603067253 12.748903445456946 0.8731846858994768 0.48882044701651944 0.5794806298072536
Ni 1.296930399743894 8.066474853734825 7.949264507426919 0.005773669258983605 -1.449403100015691 2.22367873285208
Ni 3.3599537058177824 1.8385876529521088 2.5894548148292778 -0.32734385563385565 -0.02307796486538606 -0.6553765098046197
Ni 7.11525622913714 8.652796149736584 5.032672767964301 1.73307316891068 -0.2400181365329931 -0.0081316279681989
Ni 0.789467863335807 3.337719285346989 8.927670102339391 -0.3932283741418066 1.8229206259921313 1.8119556423401955
Ni 3.9468884933542716 3.106349318817512 11.801244001293322 -0.3726407797984421 0.7580560856537332 0.2787448636792296
Ni 6.169651981614857 5.663270491653574 3.1306882011589527 -0.3411141699450706 -1.8966650068641333 -0.2859220981539592
Ni 5.461329528138532 8.44279613833351 9.67271560136503 1.3794564956232245 0.9253891358171741 0.4904322715883295
Ni 5.289003474163602 0.6600574012804444 11.900204833508289 0.2967191887694632 -0.17760589284435863 -0.1517357099458161
Ni 3.9316348629225946 0.045217114707430006 6.947839966505301 0.6057555043433825 0.46277594332364175 0.2804363924490396
Ni 9.081171261524418 1.9127736520229277 7.654874087758694 -1.8379857478553703 -1.9829538000600497 -2.0489046530295614
Ni 6.083428535006547 7.850079657848512 7.267168817060269 0.01113519068121308 0.4522411052305889 -0.3232144068465143
Ni 8.291840039484981 3.9317649974905677 5.811742879319076 3.1965296616956436 -0.2571625095227636 0.69529442904548
Ni 8.821041555472936 4.126204632694601 1.8821353270589725 0.5896881664678747 0.17484067139439566 -0.8292656159190234
P 3.6259115814491913 6.691872707563695 1.6266811701282313 -0.009747309194750954 -0.8468208511939674 -0.31827891721810997
P 8.846138936439132 8.122943960908765 0.3935780578445159 1.2941362369881648 -0.2049796568716212 0.5600973401846354
P 5.699801123948815 0.7145577583474819 5.826150635058929 -0.1784088483616282 0.40006725144051103 0.7782775549069306
P 7.416452686710345 0.12385185693766435 11.056035834057715 -1.2709965656469078 -0.014787442721819696 0.9759527076973386
P 2.850393214267447 7.434504210353439 6.592227739334242 0.8249273935549858 -1.6596175229236902 -0.267000835769424
P 7.748992984512444 3.5911098798427323 10.593137880451936 0.42257134608029806 -0.8778923757877913 1.0602818060637222
P 0.9894503016028563 7.5852279260448725 10.505238486514664 0.8917436798485868 -0.569377994155613 -0.4727263696681343
P 6.113154988462064 0.668834048357586 1.3152821624259534 -0.472300080763993 0.4720177736368839 1.222737473530204
Ni 3.135638891937692 1.6638819954485324 4.895660588074066 3.041546391346807 -0.6592236514648518 -0.14084451695460906
Ni 2.3561328297802078 1.5236248171526312 12.292820825082433 -0.3130554640356415 -1.0696640186095707 0.7740043814528734
Ni 6.478870305770961 1.495209004703127 8.283000184189111 0.133750329111989 -1.6382457421161336 -0.8496092125723819
Ni 5.350268969699972 2.4723522943062632 10.128076904419924 1.1878311485713222 -1.0053226762190235 0.18929798447030624
Ni 6.240789113664597 2.9288178821236683 6.142540303442967 -2.0281381099061715 0.021934852399878354 0.4682655056833033
Ni 7.860908712969111 1.665025320581437 5.093580393438746 0.8455710379472663 -0.7694519861955006 -0.18219094111187978
Ni 5.475848827793791 2.812254490525113 2.3954660029500077 1.1858886801329707 0.08544470002806576 -1.4563885301945885
Ni 4.051869908403242 2.5656494842165265 8.057925012619007 0.6136356784224076 -0.615054156036489 -0.5341004019002414
Ni 3.596761438223268 7.541446939248286 8.768401193195283 -0.6950267772063901 -0.25903170152101845 -0.8871200650336465
Ni 1.9416728214391883 7.134943730206179 13.511294952860743 0.10927059880306986 0.15369849009914177 0.10658970953679707
Ni 8.262912984089871 7.046935580951384 8.488553311498027 -0.1224467311737117 0.642688629924306 -0.3409971847512321
Ni 5.678328920233291 0.80054696273344 3.6271896888132105 -0.38770127367599033 0.5560121143716682 0.1678614118630851
Ni 6.966549599249286 7.04313379250132 13.224358455339479 1.265024921444505 0.3141954911773557 0.4718244266791552
Ni 0.5155280910245197 6.958834478433753 5.084424497049226 0.27963549381429903 -0.10203782850005652 0.0558764994526457
Ni 6.708622885527061 5.276668576185031 9.85595622746237 -2.3882776719138095 -0.19950552113092737 -1.8365359027827208
Ni 7.11882563443011 7.258032440855945 10.922547512361659 0.06379524007909013 0.5137308371049539 -0.37781615335179447
Ni 8.733024110891858 1.6166710332532324 10.165557519061366 -0.8177511875215207 0.012831861657345643 -0.4346768710945804
Ni 3.9714560407222925 4.480756263136682 2.033690974452804 0.7924841854246157 1.7180970072168216 -0.4733915140559589
Ni 1.8998810344673298 0.9848305244398196 7.966243350416864 1.1784743899467702 0.6204614430949894 -0.18816207109365013
Ni 3.3297160094166576 7.964839756148014 11.05013144280226 -0.8904933523812535 -0.03143893523557166 0.6841463828484604
Ni 7.604859655156208 3.5825488843353743 8.2983328248942 0.14936695260332342 -0.10548876316313445 0.8355617333403804
Ni 1.5013625107029869 0.4686368880533815 10.303753923520153 0.9859638120764376 -1.4109903045654473 -0.9692071614433889
Ni 6.300455813080157 7.47406511901719 1.8357023836736248 0.1435061229471722 0.5145499905721396 -1.6391032050204222
Ni 8.523990813422296 6.242136935975744 3.2387640303277916 -0.7296183991383305 -0.3648603645220749 -0.163502363563441
P 4.939238936757666 6.451411911928686 10.666929757688324 -1.2530482086986032 1.561283625637782 -1.2227133051604877
P 0.4957206802464206 1.9056162507844199 0.342173044429976 -0.4596625945056406 0.4374415783239112 0.05835401445886079
P 5.064772318220067 3.617025249521901 13.489350546570002 1.410273481004081 2.61557399000476 0.9078066468487205
P 7.522066183946612 5.59200322503586 1.0891120014196212 -0.9182620378540894 0.3885561654771179 1.1593376691173194
P 4.017737470289215 0.7108786682043632 9.276874131570416 -0.595501173605226 -0.036778345170614075 0.07787048722523364
P 0.6343455992468907 4.477530784916212 3.739687304695242 -1.636217398832195 0.1772701067714947 0.8964431422067852
P 2.553658513310455 9.269959338347915 2.927026672748785 0.342530590676623 -0.7904614985676323 0.8147044302753969
P 2.0897473691397455 3.1126794360167644 7.353231454523868 0.19037219137109151 0.9478446366072129 1.1049405824236778
Ni 2.128425221806539 3.695236124873595 0.9049000137256268 -1.1846314106871016 -1.7987085475223021 0.00019103296488354196
Ni 3.0891994418239452 6.955813497391524 3.8394633370252973 -1.1527942115718468 0.31455981649530984 -0.7086392257835021
Ni 7.602368507712155 2.1040342856379097 1.517884023639771 1.8201896002142133 0.7984157204177024 -0.034111596971728345
Ni 3.580968678867132 3.811139548306002 6.001541358109621 1.5643951746835703 -0.8734070863229281 -1.1111359126011122
Ni 7.4193714191634506 3.6904676224900177 3.8152610959802287 -0.7901411391137361 -0.5952152669336911 -1.4515635980021195
Ni 7.6964558003565395 9.156231021265912 2.7128075127455036 1.5286987497232254 -0.05425541890945495 0.09406252360406382
Ni 2.167679384702926 4.714673149067914 10.784840971598026 -0.6263870645508051 0.16521086161411544 1.659894944954793
Ni 1.5493542803061242 5.647338302403181 8.819826656327647 0.8623104621891342 1.4058522120079335 -1.939396484294389
Ni 5.758482518778295 5.253328011886469 12.078344184541091 0.33281953403644615 -2.0714462857755036 1.3441763322646914
Ni 4.132460387283583 1.9215484400348126 0.3519145463753736 -0.47496220097718844 -2.309364088136042 0.5265105053681255
Ni 1.474759286878819 5.821309629130338 2.181233829489929 0.8357656218210703 -0.5928205414492693 -0.6990688084862478
Ni 3.3344194445162487 5.209695750310423 13.123058919031513 0.5989415667453426 -0.4230482857167166 -0.10737826687636344
Ni 1.278553539680868 2.390739329534707 5.693735923548649 -3.2714572642424695 -0.317909192583517 -1.866696228416185
Ni 0.6756270728057698 3.060077184576874 11.934270345273072 -0.8375921335068478 0.6277767458094802 0.26026146016306145
Ni 0.14395300002633066 9.173836369247383 12.038332452552577 -0.25410803896715595 -0.31947345174684333 0.9284567189989041
Ni 1.5623584417771275 9.29313258677337 0.9090317862587654 0.25970173100484956 1.0704592608173564 -0.6442318060417098
Ni 4.223926397915942 4.426387899702874 9.801279259195942 0.2532716591087896 1.786442842781072 -0.5948008051040917
Ni 3.7799537286239326 5.527038189638548 7.473537144484272 0.13245269334648802 1.063094335811853 0.19791940759073012
Ni 7.005487721052026 5.385284463810958 6.93509235603973 -1.0309583745092568 1.3524018054982772 0.523506171324163
Ni 9.253887719203266 8.830327586430428 6.392729587566577 -1.6444935227980582 1.189113100607539 0.009699229565634909
Ni 7.449739250132548 0.41023807114292826 13.396103551421673 0.4043016012368327 -0.6470119398900084 -1.3904042528839797
Ni 4.360391083088063 8.961791386061877 1.545937318364208 -2.1684282970192075 -1.0634735735281429 0.19376296222019532
Ni 4.79355328791204 5.817981902320747 4.995668074028588 -2.233329625678283 -2.2110893262228437 1.3226454001714512
Ni 2.580587073554555 2.519163557471361 9.96044034255516 1.0017395868534553 -0.7120068567041544 0.48284186083558134
P 6.594169532994923 6.6447639939575165 5.311813275331361 1.5067772670597857 0.6410320681574896 -0.34264243366413893
P 9.16072995918726 5.7304664053589915 6.839343059055807 -0.41520539263353007 0.9108755155820313 0.9622644115769686
P 8.569342710360841 9.204185609563913 8.653128922417544 0.016815786005758136 1.0597220769055102 -1.1863049417347828
P 3.487141655358694 9.079414444856784 12.997052405461268 -0.7029961685651118 0.18800034870480525 0.2821482329338238
P 0.22992919095549155 0.3948552356759068 4.444652286317867 -1.0458723155066116 0.06097294013894661 -1.0347129564556825
P 4.919848886129709 3.499681050515508 4.284498462111542 0.2003979510382097 0.5655077125669293 0.10704273791381565
P 5.4789906480777075 4.197555557248869 7.875636227933126 -0.39425964361979843 -0.1171353462631273 0.8027919951085271
P 1.0375815011002503 5.047641031879066 13.256534227270771 -0.08640629261038668 0.19455280511134235 -0.47538951832259413
