# total energy = -340892.2411577519 ev
CRYSTAL
PRIMVEC
9.06307239474450 0.00000000000000 0.00000000000000
0.00000000000000 9.06307239474450 0.00000000000000
0.00000000000000 0.00000000000000 13.26472255910866
PRIMCOORD
 96 1
Ni 6.459442112191645 1.8736905504852368 11.546582784670838 -0.0679964226446313 0.9332734236612572 0.4720987633864644
Ni 4.534518012729713 0.4509467680274099 6.168997827023388 -0.14191486720065238 -0.5805481518398196 -0.24527012896055175
Ni 2.709931189178093 1.7204430571813374 4.9548914119055425 -0.39801962488286285 -0.022896959202831534 -0.5290921500523726
Ni 2.938121229180788 4.49727784772967 4.470436652143365 0.20504496289191781 -1.9550195355436264 -0.12265036254408553
Ni 4.884878270352408 4.283126507066245 2.7958454914741266 0.8946004325710916 0.7789848653866004 -1.2527874988380487
Ni 7.386440359137221 6.218817536686379 2.6191989575284387 0.4712724108304271 -0.49438585691943887 -0.13955176628511448
Ni 4.91964421655347 4.328514374265129 11.580607371539456 0.5679430614812994 0.35537813606325247 -0.12826848006181138
Ni 5.906340922212913 7.857910454894638 12.491840403829988 -1.3585027761896926 0.35744298901208116 -0.3025805326462466
Ni 2.028098117072175 6.543982452693081 0.07686573068833355 -0.06880220637537829 0.597768629483164 1.8451071893914996
Ni 2.7440627203024928 1.5306170031716282 0.30563943256155796 -0.2645027519379186 -0.5821399218069716 -0.41834676647598923
Ni 0.7149359444988738 0.07431810100191058 4.731844665560069 -0.6616749412188218 -0.18608179152585372 0.07946997050186959
Ni 8.635975231057614 2.4235199712828988 1.568460768801752 -0.47674243280606277 0.30342436870378064 -0.8844664294608832
Ni 6.90897050936909 0.6500815038262513 5.10587041815675 -0.16135652086503177 0.05162466615482722 -0.5030054802676498
Ni 0.6414534587836519 7.658178462616482 2.69299049401672 0.6108853693707801 -1.4751169598420273 -0.6017728655465507
Ni 7.55866592630583 4.055715891300592 3.714082466211005 1.0028269063803632 -0.7670343778929435 -0.16993423523171378
Ni 7.535546028297772 3.851978020966943 12.789089243849068 0.6094851465891439 0.01145426458352866 -0.7288866631786286
Ni 8.069868532007316 8.778763938669119 7.181878655511165 -0.5494460311183763 -0.19559435900197927 -0.5915272765591425
Ni 6.7521974808534555 0.6395610892406952 0.4850891748388387 0.49743827059251744 0.9051380988776219 0.40904451523845686
Ni 1.9431680644522187 6.303113174229674 8.9702023132808 0.9346615622580353 0.31553889257912754 0.577937710800166
Ni 0.5428934513952448 5.001356878427498 1.3603372776738663 -1.3921140364862348 -0.23153401032138188 -0.22773340562836905
Ni 6.216624273135635 2.058595356114556 7.0693542659781805 1.7474950007629644 -0.23138180101423378 -0.26395793517804217
Ni 3.5672344084161174 4.578546419050037 0.431011633704194 -0.06245800932490534 -0.4579492113589597 0.056006083051974506
Ni 6.164004074062808 5.844983921227202 4.695738290932745 0.5966753964189853 -0.8041071143755247 0.8488772195023638
Ni 5.584112441703904 2.8076039217664257 9.458981064944055 -0.12340780953540037 -0.07327026944906091 -0.3005007672990825
P 9.461394561157125 5.522102899496483 12.313416601362395 -0.8984079792426399 0.4666603659797124 1.264856257077125
P 4.216413230219004 6.359757377503041 12.39610898137624 -0.3296416505290968 -0.9256483030158316 0.4302098364621623
P 2.433308089608537 8.280557778966672 1.3888959255034197 -0.0757549835441276 0.499594654813888 -0.2187923943849974
P 6.397695399087413 7.736238706263444 6.019690051345557 -0.4462188102959089 0.4489012422240785 -0.11724436103716582
P 4.777390230220865 0.9929592887733473 12.638681211166858 -0.18233569421986018 -0.3708520633291355 0.7644331928246706
P 4.0346986261180415 5.8994801763124425 8.039112089090757 -0.0474057429774732 0.9091798730471632 0.586969224874815
P 4.558507965700049 1.1315336676613137 3.946294697799736 1.6764191678620612 0.26654292229639903 -0.13260310288142324
P 0.3451897747479018 5.603625236847513 3.803592995684459 -0.0754194545815798 -0.04044679516113679 -1.2996695081015681
Ni 1.3494643095671368 0.9382183307299649 2.367898988897462 -0.28829419793056155 0.6722694289052163 0.4381285770886067
Ni 2.15629527792046 6.688882856202617 4.501927203934348 -1.068136783331767 0.6995385490338146 1.4134400516575207
Ni 6.074524359035935 5.648170238301689 9.416958316573234 -1.161905944065128 -0.02540969832235624 -1.4159211662081614
Ni 8.632621894223831 2.372821143585104 10.392763927980901 0.2916338038267558 0.6222393609310187 -0.2763995033755046
Ni 2.2188576675518292 5.198107119845344 6.669635609083953 -0.056516189919173634 0.07939772250303745 0.6579692102324604
Ni 0.5019963366318734 9.172010655474145 9.175102975819245 0.3370852512913356 -0.5300511715315323 0.4360423839835394
Ni 1.307547599144845 0.9290646274809887 11.487740786310463 0.28417837598997514 0.1253289378175132 -0.256361610888023
Ni 4.423359428226056 7.0424967568613335 1.6963588482567538 -0.6415406323627919 -0.13171632940109573 0.08116921258116344
Ni 5.416445600014736 8.027688992481837 8.185620281666004 0.9183327431910249 -0.34102006756936754 -0.3582557147213637
Ni 5.037001942663363 3.1162921719249694 4.839235730815607 -0.375177944397999 -0.7524860477651234 0.3487488036721929
Ni 0.9213610158358106 7.2598292359805905 6.9423842451496105 -0.723173157733619 0.6774810550131428 -0.594593317078976
Ni 5.291909920466042 4.289062819569295 7.171479686097427 -0.46961379218108157 0.23524359796248517 0.33444524256532726
Ni 8.265522141649791 7.157325885737104 9.13728458679219 -0.2593160655306566 -0.33536209795264177 -0.01708009541073833
Ni 4.844891994377672 0.37028360995162973 10.482460250441093 -0.02125042473834405 -0.8106629132161716 -0.9431240912030919
Ni 8.248592322175448 7.162836233831538 4.861202805998644 0.2737055014831093 0.5244019436655549 0.21470742568234638
Ni 6.986921996145767 5.915539940824508 7.128886870464864 0.9778280703431805 0.7521155517995821 0.058470485432067044
Ni 2.593624779480953 5.71301652220904 2.36381335580376 -0.49632549714431295 -0.41131737043303357 0.280571118254691
Ni 2.512102442129922 5.478745160542916 11.329665394273167 -0.22326868498879612 -1.511772663391848 -0.8760998026637428
Ni 1.0289578128376378 3.2291727402081363 3.360882747966623 -0.2314933868914336 0.8184860088050162 0.9096717250819172
Ni 3.2916263729692203 2.4331540173756334 2.6520951918678537 0.47438498831747977 0.5016052574860136 0.020092399874500882
Ni 1.3132210825447055 3.386362670059862 8.312842255910734 -1.0448495306690522 0.4068032846127639 -0.0926242484956405
Ni 3.330824161634391 2.946667706570674 6.957293905758412 0.5010190459652404 -0.51212724006326 0.11208441410278117
Ni 4.208519294050828 6.725443290763379 5.9805992069361675 0.1178943359163389 0.8761663942356201 0.5764235881484847
Ni 0.7561212649685 7.518416821227906 11.395311947484362 0.32899913184909146 -0.4587123147772294 -0.8385930639675364
P 0.21462171412740627 5.447115037435068 7.916585692720575 -0.686206864921915 0.1937652762130405 0.7707115696342146
P 8.559093186838737 1.6306823869062284 8.022464131171901 -0.1040258054643628 0.6170084515493826 0.8785701185811061
P 1.8670473183253362 3.2323176263738738 10.44829065441209 0.6905893102603268 -0.1840161672460766 -1.3558319142257487
P 4.280026936263127 6.092269855037415 3.8526595640207284 -0.8774581164638501 0.9122040045854677 -1.2569362308991
P 6.919945890195337 4.058996723554185 10.538238930288442 1.1611508110666584 -0.3404932485316201 0.9345576896903196
P 6.3434800992504075 7.675307669686348 10.31150441973306 0.3574468456668231 0.6861197045247474 -1.0207222986035454
P 2.4253688380777416 8.473564971432214 5.812455647632251 0.892855939076159 0.06822087995061155 -0.1547701258967657
P 6.987538285077381 3.9898998586332004 1.5965019151901998 -1.6863536533669539 0.44127457891675614 0.3649164145709909
Ni 5.040817496195857 2.666301558048814 0.8309632115622827 0.5772625391100122 0.8079660831102988 -0.7101122107846027
Ni 1.5766574115922214 1.0740647247882857 7.0293081737247896 -1.2677322930733392 -0.024886735939350688 -0.9391993022273889
Ni 7.158286571424621 0.5483457958255261 9.514387252510678 -0.6897256767084508 0.13985695623035913 -1.3393197755033386
Ni 2.5878969176459496 1.4389349615214864 8.983652819213283 1.390905360890114 0.4629060411436028 2.0770965420827454
Ni 6.311913417650225 1.8765363552576908 2.764992073681563 0.38679084604657904 0.6969191091330965 0.5674730638234162
Ni 4.120027453929042 7.022784574122202 10.224036706806455 0.09022540924616074 -0.20568028248307157 -0.6408868008288768
Ni 8.271123120469461 7.109065024548195 0.40643258101981433 -0.21756392129453497 -1.127233075273291 -0.6326597849333944
Ni 7.863312046118786 3.710403765073619 8.419835452282483 -0.6313359239156482 0.37311926209675744 -0.472717885027702
Ni 3.085323653111354 8.318649872783947 12.193582843839016 0.8187168938688997 0.7515200843074283 0.2677048038149841
Ni 9.34855930823658 5.095467823514003 10.217961729293794 -0.5678245336255641 -1.470751740894796 -0.23620107677974808
Ni 8.742357576341261 2.164805503020251 5.897614995987058 -1.1343627443395368 0.5997532640133607 -0.4069076714011121
Ni 3.6907278346245826 2.2404277801583277 11.237620829722076 -0.7509104757478874 0.9658567569139171 -0.15036016975452815
Ni 0.999702214731009 3.2292724340058974 12.335582157833702 -0.2890927825724569 1.0227904939864836 1.7092732382776048
Ni 3.0031034591759953 8.335117475559581 7.904355076349789 0.6526809652503276 -0.6016846767081185 0.2782980059497981
Ni 5.467470698323385 8.174238875190692 3.8185824113314704 0.0663516879523567 -0.7473813795487064 -0.01741176771854421
Ni 2.9905873560207126 8.752145694666899 3.540115882810586 0.22567678020965648 -0.5904224735307381 0.033552896254780924
Ni 3.60023305547505 4.102671670046083 9.162050338770557 -0.6109840997321735 0.21741248331833524 0.6593234102675096
Ni 7.340336509208962 6.131494832920157 11.386822567451377 1.0996705922739898 -0.9707431384719412 1.307011550288936
Ni 0.3755120964905747 9.037134010175864 0.42804619637442665 0.6976210202961276 0.6543796931089891 -0.2700450219123865
Ni 4.559088002341569 0.42212529109466806 1.6411910194975035 -0.3855965686281617 -0.5394135865830388 0.07790622555917551
Ni 5.912956965155242 5.674117814937154 0.36760637832811727 0.8627388079758045 -0.7732191665474167 0.32475655452265356
Ni 7.98396873062732 8.918534643130219 11.627444424034886 -0.10943617784665668 -0.5869103466124214 -0.0991885319767195
Ni -0.28868604909865214 4.766994886036136 5.885027294558837 0.4884453230652879 0.157673929807122 -0.6643298623431656
Ni 7.724266387459585 8.938908430163583 2.7195199199082083 0.28243388249504264 -0.8102106561701015 0.09627418654340195
P 8.516152349221263 1.5778718633104023 3.717598032042963 -0.3791145604482439 0.691803385173086 -0.561020109109221
P 1.8621532591625174 3.290493488903753 1.2347131231150705 0.2870546690965056 -0.0026806321559566734 0.24046190893863104
P 4.718897160152656 1.2467525086556048 8.309340284687563 -1.3179294827530206 -1.3096657000823315 -0.1677310569328079
P 8.415869451746094 1.7122591026924014 12.638455540661015 0.4199416217669349 -0.14387353358891997 -0.06771334418657371
P 6.432506660651093 7.732287206643094 1.4360393098501518 -0.28342761386687965 0.3816900344849039 0.11156787947767882
P 1.4544146893920322 3.3365248342518226 5.749276062762015 1.6521412691513029 -0.01565776114191497 0.28127045831456077
P 6.863464822227397 3.743538358220408 5.734936469414956 -0.2731761113422005 0.283246351094009 1.2428789814750854
P 2.378186482519158 8.409987517678188 10.049366828978195 -0.31526738408529575 0.3420991595661592 0.5711785376994614
