# total energy = -340867.7681019762 ev
CRYSTAL
PRIMVEC
9.28026612258434 0.00000000000000 0.00000000000000
0.00000000000000 9.28026612258434 0.00000000000000
0.00000000000000 0.00000000000000 13.58260753407352
PRIMCOORD
 96 1
Ni 5.36347399555615 1.809874576964797 13.171108325786275 1.5952512408324784 1.215179458677288 -0.42581325005636345
Ni 6.785405617085414 -0.059187679859740765 0.547223871190915 -1.4843770449877145 0.05611201250221949 1.753018501684355
Ni 4.153605730117535 7.0210037274995445 0.3094977958058171 -0.5041689044481317 0.17186333393362657 -0.5132397564011484
Ni 7.440490306730627 6.154978593937634 0.23684816223091754 -0.7428426111380885 1.6130422462673124 0.7555137788478536
Ni 6.6417471009468105 8.763410771368239 5.095474764777271 0.835703144014251 -0.3299098165888189 -1.5982350060511505
Ni 1.4323347996036422 7.686101824051318 6.2895081125099885 -1.615562698696321 0.6049049834176291 0.3746598671109999
Ni 0.49572860373603783 1.1476440825762553 12.013571479760165 -1.0875663528112882 0.9618499497473693 0.5321635898888448
Ni 7.57150910071285 1.6505416917203728 4.727548414862368 -0.5047908543028468 1.7900105055276718 0.06260199110193734
Ni 7.625084075756012 3.761997069651333 6.362323862844505 -0.8259751180932098 -0.6508218005544018 -0.13315177629604164
Ni 6.0202662541270415 0.2346440990795662 8.894651363705483 0.6358386968820081 -0.4436315091847069 2.2051467354861636
Ni 7.20190395069656 3.8794109938235306 13.381992160080978 -1.503135042321508 -1.9791624513384172 -0.2270952578237379
Ni 1.964697252981614 3.3832879787867243 9.44189472345479 0.09704577460210384 -1.6053330505485128 0.5024807181124314
Ni 4.221908487144675 9.350610315951831 12.574587682132293 -0.2441825523233279 -1.7295975516572537 -0.41138293356364636
Ni 5.346212700981357 2.1930381954616105 6.448451226586595 -0.6984046925396875 -0.5493871528559828 -0.7919668794685651
Ni 7.374229208201582 2.432738183403729 11.355493904362064 1.0423758723175789 0.5343999354185313 -0.47356866306377154
Ni 6.3243991282158225 2.526793678304553 8.534957537670849 0.9890388514573354 1.152500848701144 0.6125609573009902
Ni 8.711339199400946 4.036061882222731 4.214601205774678 0.054965557602602105 -0.14886378771465975 -1.335381616791197
Ni 7.106911148939793 4.801526054487619 2.33899264938398 -0.027822164418590794 0.726074133430498 0.41935412469458105
Ni 1.5040712550139397 0.9395526802909897 9.834229100714404 -0.2817191158162052 1.0416287097389092 -0.45281497545618793
Ni 1.7233824987728212 0.26038848471393966 4.171421984593174 -1.6861811323448315 -1.285488845725812 -1.153190418569001
Ni 0.4437043611248364 2.624663362490452 5.78439808797521 0.3070354830938067 -0.9593217840088768 -0.6173756050808142
Ni 5.336570504710814 1.8083340528253262 10.500795335331626 -0.7749361492385234 1.2799576314949377 1.4365390995688292
Ni 4.738800737266635 7.326788488918601 8.531602721547845 -0.7067929166033827 -0.5420191425266858 0.7334007489988983
Ni 2.895934815025822 1.6848229939565484 5.1607391627486106 0.9226529678329335 3.1944151864558017 1.431456285729283
P 3.3110318284860027 4.802166392834748 0.1970330374383173 0.2073378726911526 0.19662922802439683 -0.8092945721137352
P 1.8651664011995386 6.774037291357392 8.65897993919074 0.07585628500868227 1.4213017137937844 -0.3344413859105853
P 3.953059184009316 3.9511103281702264 2.994366883325286 -0.5451471466327062 -2.5480691622845666 0.6284326342259241
P 6.544248627396929 0.6129448582445561 2.875288079450552 -1.2502415924877437 0.09915099387056472 0.08097586562343474
P 0.7911352437986472 3.35534509816054 11.17699170187372 -0.34937666706417897 -0.45219302560147284 1.0000537145106
P 0.876535962720733 7.346471932893405 12.651248246629358 -0.9085628082884547 -1.6764675046014934 -1.3672008181843227
P 9.169608009829911 0.18269409859556815 5.992918238545075 -0.1362430136268557 0.82303634717986 -3.1481193887130554
P 7.95286306735908 1.4593867747033857 13.211829204530757 -0.1032048522249642 0.7582193507044748 0.8598339756241837
Ni 9.003296364628367 5.131652953363494 9.948187053865283 -0.17948434081399411 -1.7416215727013233 0.8657099747889865
Ni 8.660418380405305 0.07230440768340372 3.4195840267498827 0.12909611816942929 1.6262050089015154 -1.8200828994330203
Ni 5.54229543919147 5.660303300381296 9.9627338706642 1.8701296795777662 -0.43590225886124934 0.1745326532356736
Ni 8.707534290381771 7.499642721579947 4.52789834244013 1.3849622559328019 -0.8490389418912088 1.0834957822863405
Ni 9.23502460416202 5.627701726273096 5.9669613348215815 -0.5754244574600089 -0.04447185716012986 -0.06750534194082568
Ni 2.8163101336001612 4.31490603173285 11.638324856103004 -1.449707004409355 0.7496084691070123 -0.08273270041354139
Ni 1.635015806868959 1.6018388562749342 7.5277795597634505 0.48315065032525184 1.6518916150343423 -0.9055091090637953
Ni 9.141525925215221 6.500956186971439 8.18213574853548 -1.345316873627038 1.1442571206351133 -1.9719713329066166
Ni 2.834230327053885 1.9551107383064734 11.814341803383217 0.17392535866897788 -0.17580843462430368 0.15887566342470702
Ni 1.5562356296402378 4.272652981088207 2.8332642513736506 0.584483996559116 -0.7043835358309417 -0.9461039997670221
Ni 7.028891953514907 7.349580821970049 9.241428915659903 0.9964415716793097 0.3668565690164972 -0.31459606904988396
Ni 7.271199696175045 6.931588365548935 6.501342246032896 -0.24034158131068287 0.2023807857961934 2.703211069698454
Ni 5.256704536371743 4.431234164794697 7.654546135910098 0.07361865392741514 0.61697142766386 0.015479583692837856
Ni 7.222552542325009 9.172225044813832 11.762456764760522 -0.0029102316682595043 0.06103078996007554 -1.187563239621916
Ni 4.268022128403894 0.1530250885119043 1.4650607292749065 1.0230445189788187 -1.508303988116957 -0.4989953306669922
Ni 3.3337591996761478 7.809018945902468 4.868454404134905 1.03353230588402 0.3069408664974714 2.619093316011928
Ni 4.981108479926774 4.044386280735414 12.22297418361716 1.4317049114049796 0.19027088990653682 0.5746179023983136
Ni 3.2500604815202 6.383904193169358 6.87385861546215 -0.13266532357792635 -0.4586015002309779 -1.2016965936995045
Ni 4.6531902843352 0.5134511275260826 4.117907331278364 0.49097580279662534 -0.2253433081296377 -0.7831233130350062
Ni 2.127482397140997 8.775410155177491 11.48550671752068 0.4785100662294468 -1.1498628968576647 0.9885238594941298
Ni 7.981399885002893 6.830071536864168 11.428202003612137 0.09798062771154738 1.5303871931692417 0.6618412915933569
Ni 5.535715730668068 2.8310657563818395 1.5808524629677094 -0.6080810671527657 0.39105707752210067 1.1797859096693424
Ni 7.871809224984754 2.4613956445042464 2.053432371441723 0.19653769675185506 -0.9042610955893071 -0.13329524385244138
Ni 3.131180275335735 5.12177875044544 8.681676685503414 1.2745426311269534 -0.28738377030115025 1.6734976233398922
P 2.4147901491523043 1.1624832277510373 0.3016754596783475 1.0165116029563075 0.7838938726524436 -0.05474161451725411
P 5.869981628135533 7.673257936045127 12.812636710770725 0.5303473626157125 -0.19274326270642933 -0.8178920839747592
P 8.774565650980552 4.295101944301339 1.1023062715463112 2.2417008804611136 0.6906250485942687 0.2729948485693299
P 7.876300873680561 7.391063610544956 2.497420708703112 -0.3415566567991279 -0.7069723796040406 -0.90488253122339
P 7.548494041279792 4.760952731970954 8.18410502095955 0.21157376514937112 0.5987759877017558 0.9871449768687321
P 8.392970397420912 0.494144462346835 9.76365360656825 -1.8499845720884591 0.33831166749926894 1.0685790130755082
P 0.5386377691798403 2.2523205340335357 3.181508085340339 0.443689616116152 -0.4916558595827855 1.1319945012176762
P 7.268610501988826 4.8572726117514815 11.430117450493984 -1.2965852127492894 -1.1639214318332598 0.0852428684299048
Ni 6.837913361550028 5.999543420371389 4.539945983632064 -0.9655978468255756 0.522198508256333 -0.9308671282126099
Ni 1.42206154525187 3.228344659313202 0.08820150317083449 0.2414589827445777 0.4288533224342678 0.27026767944615393
Ni 2.3275370891564933 4.570837204734814 5.217201228513397 -1.9024031948994915 -0.17476585229240224 0.5302746003962481
Ni 0.3336812407157388 8.00285585976468 9.905061658226 0.12844408640772717 -0.48167689399320274 1.7908286305535932
Ni 0.7413494013226286 4.351776528155244 7.62220626530029 0.48519544866942244 -1.3468492511111643 0.2843892064492005
Ni 3.3929951369185707 1.856340868328233 2.419863670520067 -2.1359318670533987 2.3810276752196153 1.028193667279926
Ni 3.818346844198723 1.5770791068525958 8.604242146830254 0.6974279304487151 1.5790969996701192 -0.7310402191865216
Ni 2.0386331314103128 6.458211282234074 10.821847062183473 -0.47862550876138865 -0.6385098159562681 0.181409582861165
Ni 8.88128870883546 8.259278886859365 0.5750730211315053 -0.15710803000132298 -1.1279938646987153 -0.3484101893858516
Ni 7.2998849980732645 0.8867507513973326 7.089591388689827 1.0795789637304376 0.22266370441494554 -0.6977794002508628
Ni 1.634755959423747 6.073182330291274 0.9617937655479522 0.06901226550365534 -2.073260713276423 -1.3936672399059675
Ni 9.239033679031003 5.086114688590101 12.579123876104424 1.536000168480645 -0.3097325703099956 -0.3260145952994708
Ni 8.82105978314169 2.5111749907941343 9.165054183352574 0.09044421012518616 0.550135086765601 -0.16808509783811698
Ni 0.4006921847295392 0.9919583418306988 1.3034346903264868 0.889868831423377 0.9347137556522095 -0.599162424506897
Ni 3.7629714975708777 5.974199014197325 3.3734444007461417 -1.864403061506634 1.428209239546895 2.3514713017187376
Ni 1.092445061000518 7.68093271594478 2.369770651242745 -0.9534560692567192 0.413015841181379 2.9457226620772623
Ni 2.6669164131350938 8.891144351221712 8.25544056888295 -0.2399212059438126 -2.578703856451288 0.28348932034275043
Ni 5.407276850606164 8.729305794184173 6.942993812340558 1.280146607577292 -0.454852574711507 -0.5806995898160192
Ni 4.329383246537515 7.156783297888685 11.134654200809383 0.08571363741873625 1.2608839026929382 0.578697471784326
Ni 4.514459589389722 4.385445332841992 5.258478923211904 1.9567843407535335 0.034428356881198774 -0.21094924419149474
Ni 2.10601714211331 8.333938626028297 0.4443187147274446 0.9338776329041595 1.2824207483234495 0.13178369230392142
Ni 5.6475614953000095 7.494223046294098 2.6137414175522395 0.32751534821471334 0.5779233126224628 0.21979666727979563
Ni 0.12858550826313087 9.182646783420012 7.957315738938105 -0.11369135357858486 -0.6947940923702937 0.8554607862571524
Ni 4.90445348358925 5.350815712867968 1.6784437391765954 1.724725825387249 -1.6431483216240734 -3.0560947214746275
P 0.8821625879361616 5.839106183484814 4.136691517487417 0.37806940701318115 0.761552785953082 -0.9999698965475423
P 3.209895490703154 8.037248525191659 2.8703175690342837 -0.054731330104608955 1.2559697532207725 -2.7130092867357987
P 5.069660777148644 6.783679487627936 5.953229325368721 1.4453225021884142 -0.6884738065792207 -0.7498655794231408
P 2.9597366430912544 3.521434016980475 7.1533885766223095 0.2029654546550698 -0.14555940593177513 -0.8444140415246877
P 3.7917403218622003 0.37721868016100013 10.39059960197678 -0.35446616577194434 -1.2997003613395037 -0.26705791425960457
P 6.498923808739245 3.9580334065319445 4.286901901351722 -0.08269413386612211 -2.1073519985331775 0.3067971418307555
P 4.4169332750421395 3.9740511454760807 10.096766895010884 -0.9853547177375289 -2.4173200818927465 -0.007868347004483222
P 3.6785396384087963 0.2797035021324975 6.513647878616862 -2.1904374543004472 1.6004021889057984 -1.283477728833054
