# total energy = -381169.7987548981 ev
CRYSTAL
PRIMVEC
9.21908129188478 0.00000000000000 0.00000000000000

0.00000000000000 9.21908129188478 0.00000000000000

0.00000000000000 0.00000000000000 13.49305734969007

PRIMCOORD
 96 1
Ni 3.7720701155944645 3.4638209107987334 4.629831884723679 1.860197765176035 -1.7475834467117128 0.5112710627105518
Ni 3.256299389087048 8.001591048929214 -0.056585799560824185 0.008785202391797774 -0.713183650621075 1.0496796050678439
Ni 2.9478750217452254 8.457640566300768 10.835842736565503 -0.867838591096215 0.0529032757569347 0.47329406924614614
Ni 9.140414951884468 4.629066700969699 13.520718570619282 -0.8224892164271383 1.4279896673369212 -1.0852986398230342
Ni 6.464198600964575 4.18834851592185 1.426243515296281 1.4029532931935838 0.5518551547805012 -0.6768156535150021
Ni 1.78257391708602 5.6529286592006205 7.741736489894182 1.3699932933277954 -1.2612592837544858 -0.5544211157354645
Ni 4.812194533367785 4.829941265011277 2.841489588422421 -0.6798778373800937 -1.3287952218229309 -0.03037115609268963
Ni 0.17791351997338006 5.823638388988949 11.347108098005815 -0.9522692480374696 -1.0817407472684466 1.669448650081499
Ni 8.372170462889438 0.38578997631793505 13.371889408562208 0.7541912033816882 -0.7558338811914338 -0.30885402435978426
Ni 3.9324175979192684 1.2722240104260705 11.206118842748545 0.6075074540374829 1.1769672092736247 0.3663716589602787
Ni 8.049733091860286 4.928603873867717 9.662580955140502 -0.3389608710474936 0.9693714549353951 0.3360961479051889
Ni 3.0622561643430433 1.187528309850093 5.309801825753639 1.7559379893239953 -0.42092558294675897 -2.4619246079759987
Ni 6.035207087423488 0.8400611328925889 12.451271942630227 -0.07006667491009869 0.20973054129304525 0.2547716406930838
Ni 8.969585374038287 2.86909797141087 9.412608329429448 0.7693074901978365 0.6996069403779047 -1.291383613943692
Ni 3.0852301151251633 1.500276426355966 0.16889910220662369 -0.9189495508394173 1.7367161649799059 -2.8625652154214767
Ni 7.731914480599129 2.5616323885318644 13.539743066941105 -0.8381973711910146 0.35692773993855953 0.5174293690024638
Ni 6.025923472480633 6.338643931742387 10.071650033834011 0.7220665549330016 1.9973794885670761 0.6272679244938616
Ni 1.3380113751055276 7.6486200803918845 12.337309346326753 -1.7225015640424206 1.925147944795175 -0.10906002545416056
Ni 7.0611064626378965 1.7444345774449164 8.218243148832958 0.007608665585193348 -0.30028942261922476 -0.14357759961505595
Ni 9.294309077248002 1.9728004421415024 7.175257128201383 -0.19711028142587342 0.3032238226572004 -1.6495765937479205
Ni 2.6119040392601547 8.313454133623257 2.544696014141081 0.6511838118795108 0.46047969109029735 1.3824595441156062
Ni 8.753545421137726 4.545882929738934 4.190957515950477 0.2444257786823855 1.3228847698757669 1.214987654381456
Ni 2.24794392572592 5.594627188596236 12.745717416885801 -0.17119459000137613 -0.4848038696579586 0.18098663639113347
Ni 2.101157712101156 1.738829375969985 2.3891350788652645 0.4987760155673346 1.0809853571596608 0.9408954589828892
P 8.759657672088185 5.58886526273796 1.9092404075218206 -0.7193332151622386 0.9705060827604706 1.035445206636017
Ni 7.280999991552473 6.262180870832714 6.08704229435268 0.6129607638425701 0.24782657683381837 -0.16014398861416934
P 1.086911255742526 0.808150204627248 5.423952491317126 -2.0127528856993533 0.2668092885839082 -0.6839838891286671
Ni 6.685124666992954 3.2876534848374455 3.5324827850503677 0.5285272786878381 -0.5815843064138178 0.6874322526885839
P 4.945401040129764 6.134422841162323 4.429635845071172 -0.9436516815717877 0.9314299426946152 1.5470299439322452
P 7.853043990762161 7.904311302278761 9.424792267372325 -0.7360836951477001 -0.11874537106272452 0.010303695918853223
P 1.012808279664404 0.7839252245027789 12.053995912829368 2.0948263552623407 -0.8748312203639642 1.7434136316047393
Ni 6.416867837194348 4.101707589176118 8.081747273837006 -0.4041079971687879 0.3196457156586495 -1.7317680769460109
Ni 6.982688956477097 5.7529649111816745 12.042513546978995 -0.5870921236059244 -1.5892346023247534 0.8220469866833973
Ni 8.300860868467407 7.050384671000815 13.47987435250327 0.2828594000682354 -0.42343138008774817 -0.013139879816067693
Ni 1.9244371412574734 7.839132396969937 5.389936846774273 0.5459691283133694 -0.22710914178080885 -1.9687258293861252
Ni 7.372563907751515 8.13234528004591 11.6733031666027 0.1514238351323521 -0.023376727052727482 -1.4835391224674515
Ni 5.884982156446505 4.407495299245193 5.576181650584653 0.48751226972805717 -0.06674969472172375 -0.6289566250501942
Ni 0.11892614971482625 3.5100085084786774 2.108721968367901 -0.5202647815687298 0.11878753715456962 0.15692445323560716
Ni 1.689903711122188 1.605834908079591 10.112412202125803 1.083412992764547 -0.2795935848327701 -0.14175443036338814
Ni 1.450548701428697 0.08227569171550131 0.9860213168263111 -1.8614905158455297 -0.04299527261460337 -2.3677132174988964
Ni 3.280739173807514 3.5477053322138654 10.357891447575538 -0.15436106338380512 -1.1543309599313474 0.16697463838275758
Ni 9.334504272035339 0.43499036979065486 8.855979556183959 -2.2075553449276564 -0.16343680043282818 2.546516473085466
Ni 1.9999967321925674 4.060811744204415 3.585267557361004 -1.973233487448492 -0.1821140651273573 -1.183482384684323
Ni 4.258690106799689 0.23301596934124955 1.4714723285134077 1.9373725118858245 -1.010446370598834 1.2681709232726546
Ni 2.7000753335138445 1.5151744618551257 7.4112102968681475 -1.7165288913987533 0.9139477267494518 2.017629497065364
Ni 1.007295269003205 8.705053053114472 7.185903323371203 -0.4336350600936274 -0.5532965152127182 -1.7427436021209082
Ni -0.028699922223040745 2.2495388268034913 4.016316769864598 2.0551372642028345 0.4522930415144469 2.4123030882941294
Ni 3.9161735765396157 7.3963767949386 8.971762921058646 -0.7056644594258943 -1.1629554683755647 1.0211138776150093
Ni 6.89696993786869 6.199454241169174 3.6381869282596897 2.2697032792113103 -0.7027891947606284 0.11234075308796136
Ni 4.2435892515103175 9.143365057923905 7.6800322563549335 1.9807017708010792 0.38231841209752226 -1.5806412042287874
Ni 6.502835770999833 8.906370133061964 3.459674167997049 -0.5050986153512527 -0.9359345154331882 -0.896227169541237
Ni 4.07783016841942 4.451110773222003 6.909997421757219 -1.041826170461696 -0.5113888192353386 0.8540510503938195
Ni 1.2001123559245686 6.830352855865641 0.9973045505190223 -0.034544827854405026 -0.4520428731768537 0.8493572444625759
Ni 0.76464443771878 2.595447979008917 0.06039604589238525 2.1052192684608904 -3.1095065614368638 0.03481505079665617
Ni 4.439172062843654 2.676336198977746 1.7039978427256008 -0.17338388434321106 1.3892606261978397 -0.7157740370560705
Ni 4.165337688814237 5.194389989858293 9.19935069528733 0.9794373238118292 -0.30672720782476853 -3.2257160534516127
P 2.2578913145276487 8.744639788531174 8.812072759235754 0.38103851694383406 1.1451279532758405 0.8638186713035445
Ni 8.301570737733147 8.368409077689153 1.8417078707384085 -1.0276197970543268 -1.5203133538730076 0.4529368457460329
P 6.24979964454845 1.6575355164207342 10.29185701151528 -0.555385793641579 0.8491402433557634 -0.04903222283730265
Ni 5.384091027275501 8.920705804597356 10.129009314322051 0.9515945905679482 0.5010689253665693 -1.7243964670722882
P 3.5006234836407173 3.7915408154547525 12.60711682561234 -0.28426502216651045 -1.265466122746982 0.532615846934915
P 6.137502014340985 7.234950680093127 0.27985259034987 -0.16315295064382224 -0.37412276366060726 -1.5120559989602218
P 0.42397080182521824 6.150657643460603 5.8778724008914605 0.1796146957442713 -0.33081587334285606 -1.0540401960293846
Ni 4.4854887276628235 5.454819819571016 0.3778044080324326 0.6400373083443881 0.2270358653407122 0.6881380205063568
Ni 2.2344010951886273 5.810538074357572 10.153013036493562 -0.6523883737105732 -0.19821431312332957 0.5933329623093136
Ni 7.49199710694187 0.976669480681294 4.911850959196261 -0.05578676795231683 1.0988766356177848 1.89425845430517
Ni 4.666533047670557 2.3067893221313263 8.589761065276978 -0.07809160209710422 0.20575021648905856 1.1711223204570733
Ni 5.888107425032033 6.666704942409215 7.935604552092094 0.262408074192419 0.31003596048302734 -1.7578758297766566
Ni 4.245728078388909 8.261357104783064 4.279593451905378 0.6275402043186418 -0.014405633902368738 0.7661182938365773
Ni 2.998948732552988 6.187202082024135 2.3221953290141517 0.1606497246059943 -1.1037930990827958 0.38259249169451526
Ni 4.914360393146057 1.6166120142049114 3.605263744859567 0.16671418563251933 -1.1573962291202327 0.96609432684602
Ni 0.8235829468460556 6.922267097156866 3.3782162087993544 -0.06089272172031448 -2.3811672861212734 -0.20943717842234252
Ni 8.642907225577444 4.4924860104251145 7.297005238724559 0.8620626078443864 -1.1399883180564303 -0.5021369616197674
Ni 5.868332495486429 4.056672376667828 10.247761223398923 0.1184808045474282 -2.2059831153445297 1.6948791743394616
Ni 1.6762225943642965 3.4332965323719282 6.0057465909871555 0.18426222181861168 0.22245775905172657 0.041277004371916004
Ni 9.024475784534571 6.712883321007786 7.882793044445476 -1.391394898932023 0.8997302975984892 1.5592059171731472
Ni 5.420008568305653 7.075746363858606 2.233316931219134 -1.747121933694262 1.2864260128281004 -1.0255418314793758
Ni 4.882868011175061 7.805501188120349 11.948412539586036 1.5379544639935385 -1.0466336191526684 1.4846624374386173
Ni 1.2242571300410903 3.65937606488795 11.492481948364198 -0.5595733493603653 0.021907598706368724 -0.08248767428227084
Ni 0.701715910173165 7.527324626764136 10.146644495080926 -0.32542941221996213 1.830789744327563 -2.2893521637904897
Ni 8.609709313552399 7.907289065562319 4.843157740067958 -0.7650625988785533 0.5454754765064025 0.796659656958544
Ni 7.624373896380257 8.607220161581623 7.234451005882698 -0.6292111642631616 0.1891519458107452 0.15828688080077255
Ni 5.2128558098488975 1.9143053708282798 6.242090648704145 0.7540857881520755 0.004132534111134818 -0.13528142104453478
Ni 0.5640436803939878 9.210489189402482 3.1835516179707932 0.7680581911717675 1.389922942372187 2.284295575203189
Ni 8.180192312373038 1.452761280958275 2.264175962299788 -2.2284039062418914 -0.4283609561788816 -1.684876811711111
Ni 3.711187302205572 6.904640213571228 6.6170896902747 1.3495427387829275 0.564777519269124 0.4839551485044181
Ni 8.554035281139388 1.388467407461283 11.06039374538984 -2.2489868725995654 -0.264895359390647 0.07239943680833338
Ni 2.8690610950853768 5.485832809310604 5.063458752379231 -0.7232245797968448 1.3424513791537847 -0.1005026228024527
P 2.0898090229306945 3.453698359450913 8.29706998220673 -0.10563634448459225 0.21011106456091555 0.3293385174663812
Ni 2.2162210667205935 4.0880356914995994 1.3079332002171873 1.2860565453038237 0.14031589814464865 -1.3220275640817942
P 6.094402808921077 1.3880709869622336 1.187699784763635 1.1103661243146232 0.45520455873428706 0.11350777681286904
Ni 4.251886424746235 5.54391302196203 11.471527898310956 0.630583619130656 0.04967268463477897 0.2406763389422823
P 5.922771170995425 8.808703184993835 5.844355508650899 -0.5632914216419008 0.5684796507110597 -0.1872372452865356
P 7.518796976493886 3.0080203086242587 6.0394524743958655 -0.1843020739176116 -0.44025513651330633 -0.006635760148962765
P 8.01064418683774 3.498152769832688 11.600224430465145 0.2623198853539869 1.7443718817529508 -0.46915510737710814
Ni 5.758874342341922 3.406081804158117 12.727515262622472 -1.342081911629508 0.3714393032911732 -0.5707684467452364
