# total energy = -381168.1801183825 ev
CRYSTAL
PRIMVEC
9.24186670799763 0.00000000000000 0.00000000000000
0.00000000000000 9.24186670799763 0.00000000000000
0.00000000000000 0.00000000000000 13.52640610935476
PRIMCOORD
 96 1
Ni 4.1156527654445885 4.269428185224284 5.553225128370946 1.4855870061354157 -1.0069249877091369 1.3985693051932753
Ni 8.337134146304605 6.586493549407625 2.0639537403347674 -0.4911696639749863 0.9966899402446898 -0.5960159084581155
Ni 7.214284311485572 8.024555731268313 8.572103061662913 -0.555969691169507 -0.456046337909292 0.3849766756559757
Ni 6.164620818948851 5.403054036598587 12.168720579624274 -0.2945016122928541 1.778173403683428 -0.636286068832072
Ni 1.6136391651514297 6.81559018267398 6.526247668858321 -0.08074652322144803 -0.10555458340406337 0.5655791892348131
Ni 6.547363485861305 0.7253876468366166 10.36328310677575 0.2927627752248764 0.19409206342483992 0.3692476949564931
Ni 8.059665582806451 1.6856702740980578 12.561852028877876 0.6514414364162717 0.21238443397612458 0.14267179997133494
Ni 5.216248185284988 8.425735922218298 11.796594969160099 0.21778040818071526 -0.8018522569030772 -0.5444514061172623
Ni 6.014366550376323 4.06770596108032 7.1124010489581755 0.7666849649733247 0.3474817640343112 0.003214393172239625
Ni 3.190338589160997 8.051736061190308 7.8734096225606365 0.6060015589159177 1.302952549728214 0.08284685739390248
Ni 8.280703308323066 0.6578462367257943 7.755067519653069 0.19765895484049184 2.155829120197958 0.8073089091422743
Ni 7.942626583101536 8.495345662093332 11.69081903238478 -0.6258797858970834 -0.4890991545992028 -0.6164266109039835
Ni 0.8257423046142343 7.217907123226279 10.513804465295488 -1.9236039973468222 -1.044889382768052 -0.2661423444238707
Ni -0.5579666108958103 8.731632467640988 0.4336644281627778 0.9064177369209938 0.15348611697801953 1.1999757543536558
Ni 1.36768536705076 7.391940714780547 12.71188634102329 0.6016263126663575 0.6815958485124648 1.0473653551123705
Ni 1.2470512812051944 8.072899935900057 4.405320592967577 -1.4357898801076305 -0.611406789091889 0.3716434488821793
Ni 8.704636975052702 6.153854044260267 5.043455776426581 1.204240186056965 0.024762551656660577 -4.007128040222466
Ni 3.846723686763817 6.454602869939145 11.679199233401127 -0.18531148901873246 -0.5015705475933361 -0.2541224371448591
Ni 1.936762550075854 1.0154685858004457 1.067095501478872 0.07877422998642562 0.8292435044318364 -1.7578534611791534
Ni 0.7715101067171712 4.632125243295932 9.29631976399048 -0.3846280340673053 3.120837413068651 0.38090559091039566
Ni 6.446599413389521 1.6279178491804955 6.1740743243814284 -0.06331084424350387 -0.48038902841971454 -0.3195369579949271
Ni 5.221756337829534 0.38362711355425394 8.469640334094338 -0.3404981336276265 -0.36911502603337076 -0.7361068350761516
Ni 8.48782278261135 8.015600362450083 6.57725537946882 1.8040412725891253 -0.6446390687824575 0.7719287298707673
Ni 0.4707483424249334 2.622527541871814 8.442750198786266 1.0960250251016026 -2.3237542954194432 -0.170522503635016
P 8.012966430444722 8.089322733000154 4.550756152250296 0.009260342256003406 0.36925617959692536 -1.9178886921296001
Ni 1.175861182126945 8.878337859406292 8.781829666543171 -1.6351326504084482 0.03287721034399499 1.3153735491003862
P 1.7959442273892008 5.101491926651387 5.176285429550305 -0.13044569021878824 -0.14197888766936836 0.9812093281105876
Ni 5.387167267766248 7.018735654287507 2.582488078643642 -0.6086544231577324 3.1092669346222324 -1.1894635419684225
P 5.501849591466365 8.34861254472797 6.718823217543665 -1.0205662326416551 0.429977408736382 1.1494669469708267
P 3.83473698567275 4.124903873996754 10.968238140460544 0.6869406577641459 -0.041321227346290124 1.3381810339132052
P 1.099005818770496 7.3483837970918815 1.6466372501519346 -1.3979380993671795 0.18379453815357377 -1.8276535126914266
Ni 2.9623602217635856 4.604408885106179 7.424441587353373 -0.90745800526005 1.5141347358661215 -0.7675506554077297
Ni 7.1717347572656225 8.727307274032185 2.589157009643884 0.6199757617078225 -0.859059045131372 -1.1301960145563565
Ni 1.6380099676010393 5.894092897331491 3.116213273223439 -0.020497862843035664 -0.039544595061841575 0.10162850887677981
Ni 2.698772942027021 3.3993249205197476 9.237250373070237 0.6768632189234859 -1.6456158093279594 1.5776628383267537
Ni 0.41353009740179186 4.866887140840486 0.8765540876510014 -0.1674657190865632 0.27153394775308715 -0.8785950582817708
Ni 7.995166595208487 3.591352426510644 9.284132514392336 -3.133747950482732 -1.0638931775640645 1.125347428214804
Ni 8.692382259827758 4.580953027458432 3.0928803324026086 3.65309304845067 0.7535769668364569 1.4756291235917554
Ni 0.511031790933602 0.4279048968443869 2.682449032900458 -2.7164252543958827 -1.5229461635101644 0.05210391978409091
Ni 2.733023299963408 2.31213944923998 12.022040140899023 -0.8084479078427238 1.3479831076052915 1.2544276055446333
Ni 3.5689963509984683 8.394193431220756 4.367148910996541 0.21516971003074556 -2.144729410740371 -0.5738907944243019
Ni 0.6313294728318162 2.6531181206007513 10.741318890985289 -0.578807514999629 -0.13217347154317236 1.3032358852965877
Ni 2.5850887399289357 5.785011144842775 0.1415142352480698 -0.1308526958492198 0.06759327366894166 0.9574443644805058
Ni 5.808457760623837 1.109310500124806 12.695938575870825 -0.639503290217789 0.5246827081307673 1.6837331850249713
Ni 4.396623996416541 6.110676043105706 4.349199357520002 -0.8519023794819328 0.6406309760643291 0.7406785136072341
Ni 4.962965586902732 7.537989934011181 9.673219722784372 -0.7674789216295299 -0.6647198986927326 -1.084958997095428
Ni 6.620475893210134 5.763597739732519 3.797701129117359 1.4941066135706527 -1.545321960102203 0.428763590933939
Ni 2.2062184151576982 0.9436407979208981 4.078387710595398 0.35788804696929977 0.8501002932761875 2.114806140818377
Ni 1.4491986312166905 9.644349979632272 6.727669532335007 -0.6947053893112294 -1.1963214454305204 -1.933116564822948
Ni 0.77853762214481 0.2675816145180289 12.005497199532012 0.9436987327596393 1.138877858601071 -0.8459217364184657
Ni 4.463036050418397 2.3456134903747876 7.428972874589263 -0.7535659110928635 1.222967587263139 0.4726901171135601
Ni 5.870710974617228 8.587829022014926 4.577728540171869 0.004321510193489331 1.046220699984966 -0.19009142690587907
Ni 2.9719994887165404 3.925630744524442 3.7239547297139057 -2.291769257872414 -1.1244562838591021 -1.1115591161814597
Ni 6.514102007660264 6.744714307063036 5.929638040790514 0.10049105283822693 -1.744170307265106 0.8908913591506206
Ni 4.426345839677043 1.2847118879485238 3.801325789231404 1.409285920279831 0.5271671651155179 -0.10347224695373793
Ni 4.921469605484929 4.941154781525001 9.243094005375466 -0.28970239113199786 -1.3164122747775457 1.12284857305235
P 6.807743837858008 6.979235916073768 10.499900076867183 0.5381946265742731 -1.2068069183428765 1.036105980148467
Ni 2.7766541525855577 8.378916625589659 2.2167615366724935 1.1632845695802094 -0.04972770624243049 -0.2941547704763966
P 8.689212299554637 0.8043630944107143 10.1345653900435 1.394325956535889 0.2128667729291818 -0.3708091259063421
Ni 6.5831295099341105 7.643328730492279 -0.00674286593372594 1.656892153572727 0.28612212997990727 0.8277921166972905
P 0.5735058855407758 2.93374740250534 12.943877526935538 0.9388560599553574 0.7123048475605475 0.6185714251611282
P 5.665717129666604 3.0492337686070936 4.52130971661702 -1.6421265652277786 -0.5528342308643188 0.04645829146253934
P 7.06963985599113 1.6520576049629685 1.226747824283864 -1.7943960361898774 -1.262733297196851 -1.0464834667280494
Ni 2.042544956157854 2.5371234518312966 6.846890536764362 1.0957563448212482 1.0386796544129142 -1.6698895942736598
Ni 2.3664169322838022 3.478999053215268 0.9211100511283672 -1.3587287761575697 0.1835896212316193 0.6309201765344683
Ni 7.097356214180883 3.8163456709686456 13.667351183181589 1.2173903502856775 -1.6899426562697926 -0.9156022316337393
Ni 3.787095162909102 5.358406578641035 2.0863671154203924 0.12788795679394105 0.825173962348153 -0.7470044558252618
Ni 6.126756891138442 3.1304235674390326 11.53817296871405 -0.7506839615593781 0.0926620437121114 -1.4897295675488795
Ni 6.955012983491126 3.7526414839056343 2.488466872105583 -1.822825495175164 -0.4292513292036349 -0.5162132372071755
Ni 8.552663719276675 6.4580685699462 12.885213853962787 -0.22204175456023045 0.649572501528333 2.3086115262407336
Ni 4.552728366600977 6.262852619948814 7.465250898076445 1.1365075585966813 0.524473934554071 -1.3229495616754312
Ni 3.151513507215297 -0.1097693473701158 12.757267603195668 0.2998615910531868 0.254024221004098 0.5481962178716753
Ni 2.76513878669545 8.322236257207612 10.476634601673158 1.3009193213482693 1.0156186588283929 0.528944825841231
Ni 4.08387922777991 1.124088244954888 10.740818905997605 0.5859199576746941 -0.313520319487202 -1.2994136833370202
Ni 4.829790287964972 3.3926338090394603 2.5056992567273286 -0.9572255636014804 -0.7878096627670819 -0.8116928971425827
Ni 8.8026562131189 0.834378829031815 5.113279003422048 0.2332926448837014 -0.03114094437917863 0.47075407643311185
Ni 7.556325797515172 3.5960935041202946 5.003457901598494 1.518156969651637 0.9307755969400681 1.0074754608959682
Ni 4.025008536993405 2.0042096931464846 0.7995000241608149 0.17296916540329565 1.1110484950936286 -1.7757467965198062
Ni 8.294547624617914 5.2181982191556235 11.253252688107393 0.12721895575137446 -1.5768668247880198 -2.762700997533971
Ni 8.7497650100779 5.326633040976356 6.9143201202882905 0.14346267130374646 -2.445913063039091 2.732092271509179
Ni 4.510446826514908 7.382624913161583 0.4088204421388715 -2.401520652966645 -0.5662602744622377 0.10772202336902738
Ni 7.260854077713703 1.616208404089993 3.4024727003128223 -0.5299413854265453 0.19511741936556073 0.7479112839102474
Ni 8.855621351093383 2.6879784417383803 1.605151434787485 1.5789231930964163 -0.4032453920581765 -0.8618664326731802
Ni 3.771393231410473 0.3701949845135779 6.171991207630521 0.7886766387530676 1.3912303483297008 0.39558736129228644
Ni 1.915376870565654 5.050384403880684 11.494293509878062 -0.9768708486362337 -0.7359867645585195 -0.07077090006597489
Ni 6.032822558147226 5.452276218565451 1.056891556471434 -0.32489976496873724 1.0323629681662672 0.7277237532187789
Ni 0.7292452019911357 3.0004551962411323 4.763539966630111 0.41032543883340944 1.2063585179515481 0.10962926769406926
Ni 4.383962639057433 4.294704690609071 13.263033378491885 -0.15299837870832358 -0.7662221664042933 -0.4239219465709215
P 0.2041740913756217 6.7040963029803535 8.444819452737145 0.08096532410047345 0.21192420651025434 -0.0723403014356238
Ni 5.052306712151265 0.37593972884527205 1.53129782973048 1.596586157593818 -2.4615682530778447 1.0001755848004452
P 1.396991326310416 2.3900021760651464 2.8183488341370992 0.8480662935652942 1.2343061522044099 -1.2717051616781583
Ni 2.5897281570050463 6.262436735947968 9.225685101100028 0.5987505337804592 -0.7254467842591441 0.113827622046133
P 2.7855725539370457 1.2708768135203607 8.469261417560233 0.48900299534097075 -1.2002665461211974 0.5194991070472988
P 8.847719555077298 2.706813366043388 6.608569596359231 -1.2883070319008973 -0.6416709872930692 -1.135251060481761
P 6.018174199450741 2.3934586342055155 9.096210245583132 0.24755481122967046 1.547858867591444 -0.2718643345093124
Ni 7.18873055010022 5.58116329136115 8.667991125271438 -0.22084156360454227 1.380877544340467 0.49870711000261203
