# total energy = -340878.2245737867 ev
CRYSTAL
PRIMVEC
9.17863819125364 0.00000000000000 0.00000000000000

0.00000000000000 9.17863819125364 0.00000000000000

0.00000000000000 0.00000000000000 13.43386478386464

PRIMCOORD
 96 1
Ni 3.665232062167915 1.4515924126389068 1.4830044652840335 1.275029598065701 0.5974220447770227 0.624427369721273
Ni 0.2395872327323574 3.895340515492674 11.912103331335548 -0.8907941714511238 -1.6222002586174964 -1.122438739208441
Ni 2.2657008839629142 7.129791562906264 9.75668011084753 2.2999826469211424 -2.1921739773755795 -0.6601402497418501
Ni 4.681243032406351 6.122573727820804 10.358852914117527 -0.6745803364265801 0.6434545615560532 1.0164959192270235
Ni 5.260506873225082 3.811649694694303 11.582664576014967 -0.48278401101445234 -1.1973493724744027 -1.7824753734928915
Ni 5.341719461777832 5.565898514988999 3.943565079264843 -0.640105185467846 -0.5770236836263289 1.215353522361307
Ni 8.526440648795987 8.422290644014334 4.525788112957603 0.1749885098261696 0.033716161305522574 0.4040856285712847
Ni 6.717120000820856 9.07748935656644 13.089097514658054 0.1049118076137419 -0.6849578230061624 0.07832917202920704
Ni 6.584020571955185 7.994162255626616 10.731696530424442 -0.9418171994662102 -0.2769258081926198 1.0556563914765689
Ni 6.963162569621155 5.347456110494544 10.672264849719305 0.7059261977277133 -1.0340010179903223 0.01831345359720717
Ni 0.8093034543588895 7.6148183279258195 2.7654281555179683 0.12564158396192557 -0.6948344586899259 0.27192475543360267
Ni 1.191506527780096 5.310328519999984 8.522134949735172 0.10638916349021678 0.18521481553986813 0.2675492520737263
Ni 7.573340063044503 4.094526137574868 4.86124530117986 1.0113071759372327 1.054280337064649 -2.6076339092220766
Ni 2.170362371610131 3.8177075957391517 7.044382501084264 1.1435832344965402 -0.2846954248357097 -0.4561311843136145
Ni 8.348274107611827 2.291492856593252 3.104243807364937 0.6505335798900216 -0.10791794142991736 -0.7160419460054764
Ni 2.638794159221982 7.874977641888203 7.162412442168976 0.25536479419239244 -0.028820780886434232 1.9848106507631298
Ni 2.112435987528258 5.033271333577652 11.047284721083392 0.3904202152690502 0.28500627120790917 0.1887660232262362
Ni 4.131929087207832 9.069871087070647 9.867442406406015 -0.3938611226297991 -0.478382282402331 0.03551979017316463
Ni 0.43072777865423434 8.065562880214303 13.200343524436331 0.7447398281608012 0.4660952375048618 -0.5536757529290077
Ni 4.655873277121564 1.4583295328918136 12.582977321773095 -0.0917097071011711 -0.30900931899072587 -0.625755087393761
Ni 0.9700718873150054 3.390129925628238 4.801827388431642 -0.8258617324437971 -2.1944733149327176 0.4447568810384018
Ni 4.616102238898341 8.110877815757357 5.340498702930916 -1.2785993176948303 0.059990007400387006 -0.13815745704074917
Ni 0.7402186001251652 5.577573742457251 4.408497052227602 -0.5440161183520567 1.0664131157724408 0.8672732055110484
Ni 5.616895027421083 4.689329412437429 8.608353567424075 -0.21688617850122002 1.515633689009151 0.0038296581587353397
P 8.506247645313161 8.984473039614182 11.46959201728529 -0.21488303202826217 0.42388466557508286 0.27698700044785846
P 4.051037750983216 5.271668096968317 12.591077469761093 -0.29712439462768186 -0.48781103191539854 0.08107588153640875
P 4.6395444802143135 8.545587287552886 11.951504470449516 1.1138867358733722 0.3644389607139401 -1.6564085290680892
P 1.426534731044308 3.278113828126229 9.564964982190187 -0.3675165711979993 1.2246994823525812 -0.6372772291007477
P 4.7982155943996 1.9623927930129073 9.680737896203796 0.25515704905696057 0.05624622408723861 0.3602627178490634
P 7.324534724222236 3.151751519513466 11.338934106113452 1.3600559796094254 0.5315784068093361 0.0903382806749412
P 0.5201066013881996 5.915072259758863 12.33340281309089 0.5887402007323087 0.5004521177181769 -0.822906506470215
P 8.16719793819855 1.2117454244526566 0.9565251355694125 1.1130261876452896 -0.7407759584170468 0.730447322797529
Ni 2.3640040963724944 1.301127000778006 8.696331730007367 0.3121974869107204 0.46973206292650066 0.35425353554050604
Ni 1.9179865426265816 4.689485449282523 0.34231638435985534 0.9450074242687337 -0.5754918203628347 -0.9421558137525516
Ni 6.752127325949719 8.838477624433343 6.60427599017605 -1.2013551511996858 -0.2772523382941032 -0.4071982060583374
Ni 0.3190109047492891 2.5718818885902506 7.615953725439831 -0.48221116923011786 0.5144222067450237 0.5240669289236394
Ni 1.9730308343931784 8.367411567730779 5.125569881042475 -0.5203763674459296 0.14079515177391236 -2.2740926665282575
Ni 2.43867231606922 2.2441769779778102 11.262320933035813 0.9093619071509822 -0.45322249530725167 1.3613353605424812
Ni 4.485921616899734 2.868599717494499 7.554722113833337 -0.3882494328699765 -0.6790183175932758 0.14070336339105444
Ni 3.043553735397301 7.087211861471339 12.152959051832145 -0.8474831673683146 -0.2538159616480338 -0.14912424046489803
Ni 3.1352391498472816 1.2963173944939144 3.945163080131371 -0.6849539663514203 -0.1934469736416733 -0.26957296737197445
Ni 5.6162249868509715 7.5333762734244 2.726214260618113 1.2411319168769916 -0.35957031976772913 0.18044953294074084
Ni 6.540697400846575 4.737122580226101 13.281188967471213 -0.5995884563007222 0.8278666786889678 -0.010652594617839718
Ni 1.6866206159031187 8.952246841783179 10.956418041138262 -0.3794462327560497 0.9393018892435242 0.9512585473847681
Ni 4.061639077811701 5.319690730705658 6.416376421313167 0.18584087915964123 0.75521450243988 -0.2776621721380121
Ni 6.919729254857183 3.5890585458479234 6.869715774549194 0.27781283878326346 -0.8449447172171771 1.3072475775591421
Ni 4.482791701359896 8.064516515488375 0.5012481718628287 0.8259296095672549 -0.44509678087632376 2.566896836514031
Ni 9.13787561561804 7.045825382969491 10.524156512083128 -0.31923459626315986 -0.10257210373697172 -0.6727764504486219
Ni 0.3171742592961465 1.6916046163081981 10.442680496621305 -2.239102266496002 -0.15200850399122853 -0.9076487811146176
Ni 7.598278422345794 6.710043270963919 12.41905694454607 0.6795122265105588 0.6442842565462001 1.1683804960458781
Ni 4.640251235336213 3.4125992313218565 0.3572252459767444 -1.4584081317277784 0.9409741347396247 0.9013128115942607
Ni 6.41189357453998 0.4011817431036799 8.95721707423134 -1.7459412831225996 -1.3366720534678465 -1.579588594594557
Ni 9.1412258184686 6.033596011565111 0.8848702627106012 -0.8950724871115037 -0.8088950226824713 2.4440387288345136
Ni 8.296194515902027 3.5771538524310023 0.49972635369125923 0.9891028719260513 -1.5311497823668792 1.4036364353035375
Ni 0.32345795483448436 7.1404754974762685 6.6053508086796136 0.5947429552829628 -0.810157948555295 -0.6434180518911627
Ni 3.183436177705611 7.698022680913013 2.956296095892827 1.2859701562376047 0.4364686728876806 0.8165445688079292
P 4.176858519957122 3.8268311618582107 2.43312841874939 -0.6807291296367954 -0.4786219092169628 1.1302374093172534
P 2.2895469853485437 7.600141685848983 1.045788307465249 -0.6714389625841211 -0.31784414367353647 -0.37478353717305773
P 8.760826347403928 5.16536111226918 6.554261592004266 2.0782710220068203 -2.5343057899518873 -0.6104981612346906
P 5.431495719534892 3.7825534124031392 5.415150401079338 -0.7219122887433245 -0.20155957544647868 -0.17174969117389777
P 2.3026724376123813 2.308776231846963 13.541738373546334 0.05897673564452424 1.1995610354137407 -0.502441894454696
P 0.9573870096726113 1.1146354349761527 4.303955119605623 -0.974843790903876 -0.08251621352736112 0.3345388307203981
P 2.7611821176038065 6.301070699971047 4.7353024563212625 0.7011318616628635 -0.016440662054526524 0.4758224920949547
P 6.791127358585416 6.8217014015860045 9.08724349511244 -0.26191416527513606 -1.7765317543149468 -1.4173699828395463
Ni 7.686108808858145 1.5738977632792106 5.394179966962422 0.41091987788429885 0.42662906108943943 0.12515950211918445
Ni 4.509510716422855 5.701466997462341 1.4108649603416343 0.14004927474682333 0.3292719258945039 -0.7064802704589704
Ni 4.850185042454039 7.183238771670127 7.989925396350402 1.0814504697215375 0.8741876732426944 -0.08529069094870473
Ni 3.2611425265627076 3.8485937124299294 4.616654792902735 0.9703716140651354 0.01183350229981833 -0.4705393893191444
Ni 2.683998951109674 0.09887871300884071 13.09480754532472 -0.4546633415188363 1.04754867476777 -0.6941101789293918
Ni 0.48957753371354934 0.2655499280285048 6.706185489434905 -0.5891024691677339 0.840022083104579 0.4320818566738946
Ni 6.8679617368375725 0.42168682027669596 3.266363335826813 0.16933208287134063 -0.6676499278553341 -0.20480199364317633
Ni 2.4878698154637444 1.4198251467052412 6.324797479063368 0.7007168856126319 0.4828166640246007 -0.6703267033565488
Ni 7.128680947714708 6.332920573646232 6.860460036043702 -2.035181389906198 0.3574352757025973 1.2109137414223985
Ni 8.121993146310858 4.648723118161054 8.64862759500678 0.4843115034025724 0.6913763249379964 0.1127089350606575
Ni 0.46837304432899174 1.5014966671553296 12.799261828486271 -0.38067753405998955 -0.452717273536059 0.1899962960889115
Ni 6.629996369430404 1.0740842125274574 11.078518708152354 0.24797312971401167 2.5930243868390184 0.429383483906125
Ni 3.633960442683373 3.747142227204618 9.823284897108044 -0.13014589959018233 0.2856927557519725 -1.347566331782847
Ni 6.794505097349816 2.7025306211241413 8.971846905254647 0.3640700074102956 -0.13426454974424618 1.7636163318048597
Ni 8.301573197738817 8.159230880460779 8.310900529620293 0.6282140904572149 0.13292063412184205 0.8266322920612343
Ni 7.886203116097067 6.216278442619068 3.4338431888495853 -1.182496109511654 1.3922081388619378 -0.612308474970552
Ni 2.3985524896040222 5.379737380153228 2.7044388599532683 0.25219925198021725 -0.17176717467539449 -0.2808997052387033
Ni 5.5487711765803835 2.3122365783528838 3.56260754701301 -0.15619066039337617 1.645095160937799 -1.8493019441991376
Ni 1.8334788230509507 2.9246353021593436 2.3010863689751844 -0.14575146733792316 0.858914806244024 0.3776174070774271
Ni 6.592859600297896 4.234142399382723 2.3410125261797066 -0.603630744690896 -0.003163228219330036 -0.5607665983375181
Ni 1.4047354659208018 0.5953723504152584 1.6099147385822166 -1.711491586085162 -0.14745250918942993 0.9352503448819699
Ni 6.217361521896782 1.8336623958098857 1.0962799948102628 -0.5891256090961854 0.5030206497763015 0.7854398769833247
Ni 4.906312413498351 1.6272807215774479 5.538889454966922 -0.16597859301807544 -1.4630073210626868 2.187353416058485
Ni 8.034511548040484 8.170557319687056 1.5593890902767995 -0.7141125901932476 0.37996071049862307 0.7781911658407115
P 1.211479243952201 8.625202793102904 8.913046714840245 -1.1063780862011527 0.9109876156798634 -2.0769067946694424
P 4.453576096775424 0.19813466803729246 7.400608193388607 -0.3714151349214571 0.27097807524961715 -0.7961557207389321
P 7.77705075363444 1.253526584386215 7.617162552057417 0.9072170928938376 0.8441132224548171 -0.6680574477063979
P 3.4884882098654986 5.617996463974692 8.554792543549672 -1.0141420742828662 -0.21581634247580894 -0.4526884771806526
P 4.695424028034064 0.2455772118563996 2.8737590298843614 0.8977526050468281 0.028829779747498736 0.45925995975058326
P 6.542000767435011 6.660634662896619 0.889808369925947 -0.257507294456692 0.5942238495546992 0.20036169848363558
P 8.714244759824226 4.413144196620037 2.5870936452593822 1.5688496109104981 -0.17517054392998863 0.28082694301923894
P 6.554327678197483 7.363296112271316 5.080634023246622 1.212688059714002 -0.8047414055254141 -2.7057433492020047
