# total energy = -340864.695698094 ev
CRYSTAL
PRIMVEC
9.31722231123618 0.00000000000000 0.00000000000000
0.00000000000000 9.31722231123618 0.00000000000000
0.00000000000000 0.00000000000000 13.63669665176127
PRIMCOORD
 96 1
Ni 7.621441050075138 9.081347255730702 11.85392985594374 -0.15224890213680875 1.7603595154304583 -0.12044255625948933
Ni 5.429918617456023 5.305990246980593 0.5043095509642442 0.7934799736789818 -0.07705621885405439 1.9250456148893553
Ni 4.756320732192382 2.1125869274189166 8.090174652089203 0.7851434287888285 0.19229717630794627 -0.8966007508305721
Ni 9.136784726923004 8.209013024159196 5.816473389274588 -0.1702679644220487 -0.9944597653625905 3.189695155272313
Ni 3.315775713954902 3.66635482799738 11.715762906732834 -0.3199210808072232 -1.1140669702049781 -1.2760621530952734
Ni 1.8754729434906994 5.6023338114751065 9.669727032966419 2.5905041915203255 0.5987520764423558 -0.03077533350964377
Ni 8.981112580926201 5.299337750437517 9.21367510188342 -0.4902108996061429 -0.10270271577756505 -2.1867178393570144
Ni 3.8209741279026326 6.147055881355231 4.897210173686041 0.8582758871084444 1.0599984704953487 1.9076788414761336
Ni 4.312727790433474 3.1115701583041986 3.0987887930972073 -0.05939942500423964 -0.6800940671559579 0.9960296809528716
Ni 4.097425423322262 7.050602806791312 9.095049162476148 0.873181086355051 -1.3075489108496448 2.0052563202119917
Ni 2.1041734759085555 7.375391850201809 12.030797750380101 -0.313762260294679 -0.4416175640784717 -0.4446224123430665
Ni 4.324178656331851 7.359580524384441 6.741941874747853 0.47806115161748636 0.08479472514889268 -0.20429471498945462
Ni 5.131432091890209 7.048897755156322 12.17675110205746 0.3906490434504047 0.9090042667012473 -0.023412722496985484
Ni 2.3449211764359323 3.2401944086923886 4.397644020467007 0.28240585747058455 -0.2334335413369399 1.6043935694533789
Ni 7.917533049574326 6.845353722271106 12.53378798270219 -2.008649919274573 0.3247329003735698 0.3593417486966908
Ni 0.8754722719576528 0.9785319284874496 5.262510498566139 0.7712306753624784 0.35949241534194215 -0.6614682245246544
Ni 1.9642660696188738 6.044613024925087 2.9621219166362116 -0.279577386882854 0.47665192997478556 -0.8774725146415533
Ni 7.79570105405995 5.725889493068571 1.7745292280882592 -2.760631773709768 0.46083424621623864 -1.5747500355553332
Ni 7.0795234640318 7.6625579509779325 10.01772154961247 -1.1549025161641016 0.445455192657007 -0.9896947398737793
Ni 5.304257243679455 1.5526684683766665 1.651458042041349 1.9108703518302381 -1.1215434810876814 -0.11525535563159504
Ni 8.820511624465409 4.993807405002563 3.8713765722995865 -0.18919925410891286 0.01949821793392771 1.3594201457976394
Ni 5.920992122777277 8.535339409207797 4.366933524870881 0.672954370787383 -1.108378661570949 1.4692594726199857
Ni 7.917458511797933 4.841610582830085 6.019210550730349 -0.4671663590818535 -0.9068905627923542 0.09662874166934325
Ni 7.4531999715340636 6.591496690320609 7.683610214197934 -0.2601215921510875 0.772726028961082 -0.917906968507516
P 6.16509402324234 6.218230140588507 5.222009466040792 0.4434193931739009 0.544838871363668 0.35816469766945414
P 5.579245735237371 8.473044462587339 8.250841760826543 0.8137904031015598 0.17048265153601605 0.7227373557477811
P 3.338416563534279 4.631954452280643 6.96460205211126 0.11184067352309127 1.8584129053614704 -2.3712140315633037
P 0.19635672779651892 5.913687420690763 7.046272161982878 -0.17258992768700598 0.6000576826276569 0.342084761388456
P 9.172255391264029 2.7419186907271587 8.871761936068832 -0.6236940910996742 1.0671163124870526 0.5278618771896973
P 6.928733542388739 0.352899102332711 2.8610878241798945 -0.17579172245375532 0.1046572684007746 -0.11583642494604568
P 6.436355625980606 7.581302457487502 0.4917257108646942 3.1023339549478246 -2.4426035390498835 -1.1837248397124325
P 1.0860247192682206 1.10138881842723 1.1359053992304236 0.6157141582179911 0.6950548022308481 -1.4019451636440434
Ni 3.366480036346247 9.24082082832355 8.543090406230466 0.6213425601483622 0.5512522310891796 -0.8356645774668316
Ni 2.9302942861163954 1.6949331318447773 6.4510842905958645 -0.15975112405112488 0.2672414910253204 0.14963897531778747
Ni 4.841079501173285 2.3883953345171562 12.918342346946808 1.1890053713850812 -0.4465725940909019 -0.7365922593530024
Ni -0.010078439090540011 7.687779671064918 10.709538330870974 1.0162534641989145 0.6825188745473666 0.08024592943594568
Ni 5.588376612845515 1.5407144724876374 4.397207042752902 -0.4419008996468454 0.42796294940951457 -0.014018939986911342
Ni 4.621407356921031 3.2397844509222264 5.771868120436601 -0.9237454295661639 -0.8717070729126858 -1.5788622579514937
Ni 1.623758872611501 1.5945493814874896 8.652974927911247 -0.2857014975027209 -1.8960412572372054 -0.5690077553003877
Ni 0.3744554272655698 5.488225793039455 11.33396271332594 -0.3017482665529384 -0.9766049965693567 3.1277212846726776
Ni 2.6310717000087016 3.608830299066074 8.520930325308823 0.4251311363876743 0.45466539840136533 1.4776309845131326
Ni 1.609978701200843 5.71257518276037 5.295565207229825 -1.3547656777447636 -0.47542654220811675 1.5125964448447238
Ni 8.244670032941203 8.466718068815982 1.4493628371847729 -1.2227403017436813 -1.0061161186545962 -0.09313564091442025
Ni 3.3475194894762756 5.454665159218503 13.073105132071618 -0.27597732823642146 -1.2225469547859527 -0.580071469313717
Ni 9.139766237978725 8.337217999555174 8.363495360900325 -0.44919100555035546 -0.6334622262300317 -0.5470554193990127
Ni 0.2904466946596217 6.389415461297107 0.14651145327810258 2.3364699432138987 -0.42926238494722846 1.6253431751218521
Ni 8.266155546986488 4.039658646617678 13.40472276752192 0.48255029773709146 0.6828268927060885 -0.018394443346787675
Ni 2.1406969863411307 6.955669631332762 7.649395511389131 -1.0443445660081756 0.1241194908904443 -0.6317388157810216
Ni 2.3054906927240295 1.5776013545801288 12.993126098001914 0.052447419166438705 0.8881965859272768 1.584372903357078
Ni 5.005137147014302 0.3251421661261586 6.414279400057405 0.0853588251824788 0.31885895809129605 0.17643141292028325
Ni 6.231926457000724 5.3417404279830905 9.262057572540122 -2.7978106967529106 1.6379454372668951 0.395564478474151
Ni -0.1456058192949275 0.8599814585787752 10.099609682480036 0.18447948003574036 -0.5699901738183151 0.2521740551692367
Ni 3.1516435303374912 0.4598095667354117 1.7771613433171374 0.038423594083520925 1.8319904495038837 0.10760220996171146
Ni 4.857263515872617 0.17710734704302383 10.50862920838125 0.7506147988843396 0.23049734152675141 0.31329920461533145
Ni 2.069774292103181 3.5083720109323933 2.104060737521761 -0.5421865213424856 0.06394719227592213 -1.2044936968286675
Ni 7.764982172963978 7.138743727376047 3.5855241998323892 0.5939793376440609 0.7059627073926035 1.2726035051227116
P 1.176131573705322 3.6289461814701376 12.607780701605327 -0.2626430730213606 0.8195838698548853 1.3743896226232784
P 6.689895872381433 2.681822608510293 6.293526338856317 0.16000283505061477 -0.3057242204815509 -0.2729262001149235
P 0.44589522732724635 7.9826138455874736 4.001197153998884 1.5512974609593477 -0.582292902445068 -3.8495325290617637
P 1.605702096280294 8.400127882830876 9.348486919434434 0.34328495234414425 -0.4250154367454164 1.6626393404691493
P 3.9857119309532365 3.1186512470615346 1.0245934791317157 -1.0009312320195471 1.229674052749037 -1.111061607719751
P 0.26797262335492394 3.0102080996317526 4.280818168359626 -0.939713522859646 -1.2748074547525658 0.5090339458499169
P 7.396504675365129 5.667759344704072 10.861191958997987 1.0546469763754482 1.711763094578994 1.5521099295583138
P 3.701909347336846 8.742582379246516 12.477904216573734 0.037338074328826014 0.7878083772155013 0.24012175199039293
Ni 7.766538149046183 0.7148815644411153 5.0157131257622645 0.19584555578083693 0.7453419805211744 -0.4538660424285216
Ni 0.9521828245325201 3.2592947138930977 6.856271643068273 -0.17902488467907232 1.1979543530482528 -0.995666126965866
Ni 5.561328717236901 4.7669609997724836 7.027698279827945 0.30690898481827145 2.118044959470649 0.1758472582820391
Ni 5.6635479603378664 0.14814569402551936 13.24904596291409 -0.7655937887916751 -0.32779457001802903 -2.070833591892169
Ni 9.037845145983331 1.0322829824888597 2.6570015289714206 0.5709319689062943 0.09094171858689498 1.737182048872731
Ni 1.3238374948501224 3.2764756713516867 10.587367188474008 -0.924603149580769 -0.7519898248549952 -2.0715285610766645
Ni 2.3383339004472 0.45559259203597713 11.070092462839245 -0.3415800538378956 -0.4201416535928829 -1.7928780568834544
Ni 8.728112733404224 1.4883237329053998 7.157219778699465 0.11642700734219304 1.1214972012307782 0.20068308637879634
Ni 6.234116004182268 4.492652665424154 3.7430821515719357 -0.20609243031982571 0.637829759170108 0.5893472381886883
Ni 0.3859351765522984 8.887837870992396 13.293774219083124 0.3174530788827049 0.37262612451042276 -1.3448887849506839
Ni 7.012309024169403 1.4293829862226262 9.264225690110955 -0.5389250769823944 -0.49645739473648687 0.3469037800436542
Ni 1.3028364763513918 8.436642076041402 1.8409945632979072 -0.7112596941254847 -1.868535852728085 1.7852927883370286
Ni 4.804919362400625 8.246347132910044 1.3068876044983517 -2.032815974997815 0.44039808984907375 1.258434412711181
Ni 7.229568007910931 3.6887906986916765 8.338976159355845 0.9557916593684315 -2.5039351480798295 -1.985970475399186
Ni 7.5024135383975485 1.3148929616829612 0.3243502022519828 0.8415207791372927 1.0176140919918666 0.4815365117605964
Ni 2.9153494619495968 7.117090503333878 0.6854689578764331 -0.6542578228191442 1.4712060548233952 1.2898545788936753
Ni 7.431770360821072 2.5793704348580997 3.2486432656465363 0.5259682597114103 0.2230015473703385 0.20781506943788725
Ni 5.59439553828925 6.655850743013925 2.8655880424296227 -0.6151125200782503 -1.0250224686407958 -0.3980332517296177
Ni 9.121523117206534 1.9511567381957529 12.153391894658098 -0.1747555678797571 -0.3556128777818779 0.7014478502413856
Ni 7.390774583804916 9.13990599630946 7.1527885078929 -3.0053977093403916 -1.36304822946853 0.4329331489305963
Ni 5.25727981010776 3.245421370261948 10.095982487936311 0.0019584092779514656 -0.5950658858400203 0.8484537588117
Ni 3.945647876141993 8.236200678098546 3.423343042512066 -2.5451705005805327 0.41527712641173 0.6450944111523212
Ni 7.903799464273914 3.7002415645900526 10.6901603724532 0.6381367488875654 -1.9812267900666136 0.1761712172803611
Ni 5.733632104591396 4.634926646114313 12.008856624176614 1.0838022577831656 -0.44433136346520896 -0.5712919233488741
P 2.5089136017226057 8.934079244022211 6.443393855516516 0.1384940144445615 -0.8389257647166068 -0.16637351446364895
P 3.4471112759593874 1.9585173436145629 9.775343335226495 0.5297976607598295 0.11169746307700763 1.3865555685618507
P 3.937206472965484 5.155172373671383 3.2513294207632994 -0.116934800216547 -0.9140456857798969 -3.0798213756676054
P 0.1955200412565074 4.741962893014677 1.9972984169496417 3.4717063484076407 -0.3540473330669709 -2.5907057660081705
P 6.917375848710853 3.3833628426992646 1.326767761184573 -0.5124941364843755 0.5259158092069202 -0.4185341998964469
P 3.380614262194772 1.1270950340607697 4.23358078429276 0.32034711260104826 0.19516292789151551 -0.3510360570444728
P 4.0982546560846345 5.516065652522245 10.908743333447909 -0.717974387141499 0.5921656814740899 -1.366185489545931
P 6.869317617381459 2.00888624601214 11.554154758568533 -0.7882922588304553 -1.312559733800675 0.5516962606051337
