# total energy = -381168.7398773653 ev
CRYSTAL
PRIMVEC
9.19869340762614 0.00000000000000 0.00000000000000

0.00000000000000 9.19869340762614 0.00000000000000

0.00000000000000 0.00000000000000 13.46321762023866

PRIMCOORD
 96 1
Ni 0.6658225732539068 1.592661746493016 8.514690363197793 -0.08939777113854282 -0.502154188010948 1.3286921205861633
Ni 8.367591300088783 1.2874675023833633 10.584687019499732 0.384607465242015 0.6969944424557222 1.173932793322675
Ni 4.290353312464255 7.353913703115021 0.9653651402407382 -1.2763010085789568 -1.2038918015786106 0.51598646590835
Ni 7.081531197770186 7.244936784374679 2.3296619682511026 -1.494263450863491 0.5481591939861526 -0.65758868696459
Ni 9.105317298743014 7.935068744237441 3.1762830172758942 0.47373938431368084 1.33225669800897 1.0173495254765705
Ni 7.869528054946908 4.021558297480587 1.2227942498647746 -0.6640496120985855 1.0713879432792128 0.9514927748827613
Ni 6.226439072146426 7.847313210787381 13.310827384035019 -0.44199757312570975 1.456054029673305 -0.1607253150389361
Ni 0.9237051784543676 7.7673949639724835 0.6701312411645995 0.3282355142101895 -1.0709171742903814 -0.45768258796113437
Ni 0.010900451482004298 0.1292020855534074 12.461796277382982 -0.42350414230721256 -3.3650050529936433 0.24232981538530524
Ni 5.750875830654325 1.3352179189598057 3.6352702135607617 0.6040413498657533 0.37022291438556887 1.082635491168574
Ni 8.468353785771379 2.8305758884261203 7.28825895002839 -0.7335899821915689 -0.08149574268264674 -0.22231711970880422
Ni 3.059577356480548 5.943864414698586 5.364324664108014 1.0564891717905096 -0.6693442848386215 -0.6064237340550007
Ni 5.368568941166071 7.310661447529886 10.457621790384525 1.3051775824039908 1.2216393553700187 1.9771292229584725
Ni 5.636830431942182 0.6133265508381681 9.629445041162747 0.6818946106998063 -1.2943786920162739 -0.557623424722846
Ni 0.7755215894130987 2.0052691314932716 5.762525975634881 0.1346844108904842 -0.6088865937731964 -1.2542998217175172
Ni 4.301612512982376 4.637429206867212 1.041300352885418 0.9420588831633712 0.0049095214864754155 0.6465465702178156
Ni 4.048390885643461 3.097466773910401 3.1644351003908127 1.374059492977369 0.7789699529882649 0.7252459811022477
Ni 2.8272183653957983 8.290478654710183 12.199452305964147 1.4581296812554114 -1.1470552522055406 -1.2121643260000479
Ni 7.778626568410903 4.904108522407117 6.527357763641028 -0.23624478553348993 1.2271996230666153 -0.6218992039827805
Ni 0.3569102173391687 3.5758448155320326 3.702922922817765 -0.4793557020591938 0.22648847747767448 0.9420352290142873
Ni 2.023289371538205 3.962015156178465 1.9217128015044225 0.14834673886892516 -0.7995174381223135 0.7661465759713515
Ni 6.248285968576604 2.4266060763723645 1.6505095686321556 -0.5056228632858388 1.0071553585523882 -0.3173170675254729
Ni 0.8397698623042877 4.308051598246007 8.144129285099725 -2.165970322397018 2.043934196398164 -2.1936737018495576
Ni 7.642697478495648 0.6411001653188564 6.179024407873015 1.7515737988180287 1.010210600438944 -0.4288697774945001
P 5.604920165114272 -0.02338859741615538 11.58894883407942 -0.48782877252721146 -0.4634873675683695 1.4649703583263285
Ni 1.0682442452364211 8.991483469975247 10.442313325104905 1.1951878460467091 0.5336077785345391 -1.756427527365904
P 7.04566549285176 8.36787645957903 4.466664665675712 1.7358977828436684 -0.5235537367326467 -0.11374020453864929
Ni 2.3424380332834702 2.5916490303724666 7.289537568387882 0.6640730091373531 -0.6505119826234668 0.48688800588049697
P 2.5067450918248717 0.30465428081683116 6.402055924018734 -0.6180839440017485 -0.1105587214868741 0.8611892041004975
P 3.041557116435614 6.230458901089579 11.067558622766054 -0.25783536722007205 0.9727390858560473 0.7522387076410078
P 5.510320803898296 4.747565160955008 7.48277543701878 -0.9060912068195106 0.22292904226119029 -0.8637703345641123
Ni 6.023175547760055 -0.05985037765612891 7.282469292507062 -2.0350019269055406 -2.5932205620102238 1.910147100510968
Ni 4.5717137424052385 2.537763085409107 5.930143643871112 -0.464152254845878 -1.467190505906099 0.9362828999115423
Ni 2.1647100813140145 3.598942734242001 9.575646483785107 1.074871273842123 0.3020585987045056 2.485832782052164
Ni 9.14147736184492 2.182739520052182 1.9836163274903265 -0.22589635241963033 0.6354885126314411 -1.2320394676574202
Ni 5.97955534444557 5.014833192861873 2.7191521172855984 -1.2468068557745817 0.7625318620368996 -1.0263866959781742
Ni 1.0097957484291171 6.9690771729874825 11.561107149268802 -1.400588135395517 -1.0325077212742475 0.045756894520140555
Ni 8.287038343440758 0.10391027850718729 1.363850691388527 -0.4094186107484239 -0.4169979657575786 -0.4966430283847318
Ni 2.983458169971193 1.215671701693875 4.49018480440511 1.3763991968541391 2.203801534312179 -0.028860375875118038
Ni 6.37293746058727 2.019554702085299 7.959938331264231 -0.42995915390393696 2.7808642987065593 -0.08448285033542868
Ni 3.7806445216884406 7.357574783022057 7.097350190524281 -0.9632967094962248 0.8020142364022381 0.5691923605073681
Ni 8.533774892049871 6.414138407581277 8.652432515549421 1.652556759422167 -0.8004780022633698 0.8011719430066009
Ni 5.00491700155588 4.603771188324888 4.973622127305309 1.055488498440137 0.37980464453673296 0.4572028201112384
Ni 4.561696365473675 0.4776642230266919 0.31153582322500617 -1.1133694299173214 1.0900801203720774 -2.055798037715285
Ni 5.153871441090138 8.850734264805503 5.208097737703146 -2.6331315392725494 2.9104031608403615 -1.2138831084633674
Ni 3.1597143310232476 2.9217073422929696 13.301107124894903 -0.18160498670142272 -0.4203501700592631 0.29027369025443556
Ni 6.440124715966645 2.5836645646455634 10.533365670209946 0.495185727112915 -0.40565065906555947 0.6407268782122449
Ni 2.120850711975452 6.360059290060009 9.090673898984193 -2.25979321918645 0.4332105709616991 -0.5669390456968172
Ni 3.210656694151804 4.682300432461488 7.437323773881453 1.1105846680833327 0.9233103989112744 0.026588034901173563
Ni 4.342132756677084 6.597376376797754 3.748846478917983 0.4141525258889835 0.5924976108922119 -1.993570142123315
Ni 7.667451161987692 5.764609479652327 4.291723917756085 -0.15037919591792165 0.3128194367654355 0.027949176914758317
Ni 9.127127400400257 5.987079875510786 2.1764098992380325 0.5433700001276255 -1.7358795280112231 -2.0859267387798655
Ni 6.750249459649593 2.638635955410507 5.545512244602687 1.035375529740346 1.3469217562203124 -1.2234964631834155
Ni 6.03622849345876 6.887585949629614 8.192516251247945 0.812167522786156 -0.30228896954775686 -0.20114305673435037
Ni 7.218177785757674 4.501242553541412 8.710742112088896 0.016554819034887615 -1.065831789347674 -0.7885557969044871
Ni 3.641459094368435 8.456432279340428 9.247480343062788 -1.0418873627169345 -0.3492877068947985 0.7536810965144891
P 7.878901523352108 0.6406945029472476 8.70562579891228 -0.17889504396942738 -1.177269571005392 -1.6295415294739164
Ni 3.992407638622804 1.5627383974035984 11.121802396896207 0.2985413295798665 -0.6425297357489386 2.720898973896521
P 6.548945256922013 5.6636814174915235 0.5715838008126937 -0.3116526701508439 0.09845371069322398 -0.01845280738854887
Ni 4.814586839856174 6.034315165266138 12.61069920423513 0.9470463090756334 0.10342339599367349 -0.5783621999320943
P 8.191611099833741 5.748217408309768 11.050339588901782 0.615781778231133 1.1241575216717608 -0.22869062733531584
P 9.023964055783651 1.919288945837327 13.29118449450365 -0.8867786225338276 2.1605627782282015 0.6603495375391789
P 7.278861565020782 3.6549443786491254 3.470426871203832 1.1280038920010445 -2.0572697371648054 1.0581138518781263
Ni 1.092400013668272 8.40230716835299 7.905857374004316 0.19186445964590182 0.2381029217881512 -0.07289437416688091
Ni 8.39552773143971 1.2747457096410748 4.103170943589142 -0.9412505283294629 0.09253014611993741 -1.2194829711486481
Ni 2.591897395089778 8.261263604999765 4.643059726995596 -0.08184104183720745 -2.3637467766519804 0.14168732457087857
Ni 2.3895905347997184 8.211342296820156 2.2139856412286143 -0.22786350344833017 -2.053985924207211 0.7795834182025477
Ni 5.525765409837777 3.1490806416450217 12.746503191922406 -1.2850198765091936 0.7116178487958518 0.5615615834349876
Ni 6.845207569901686 1.2974296871555242 12.819595088488532 1.082480967868581 -0.6064957249435168 0.2571311420641959
Ni 5.6078453495626075 6.905946541324196 5.7810521438076705 2.039588517834958 -3.2808114517638596 0.5956600677805934
Ni 0.8975505339828208 5.8136569119747294 4.206258858921231 1.1495898457019362 1.0571149782999667 0.33870710316547475
Ni 7.571002863431731 4.058242686096817 12.352286754304405 1.4176605174967714 -0.02494278598826672 0.48358285276666396
Ni 1.5739792005352518 1.7631963203536722 11.959523710217336 0.21105465942110746 1.2531345977648225 -1.754930116884771
Ni 8.042849832857394 7.6584732373915445 6.875530142277448 -0.5680852434861184 -0.6309057783567651 -0.7753117874103874
Ni 0.7060144236001696 3.8697798591235646 0.20438208548359552 -0.9934989441112181 -0.45656878607166534 -0.8358761792570055
Ni 4.453722104295814 2.9804317998972865 9.420926303331928 0.5220776664077524 1.21806295087267 -2.2336785243772694
Ni 2.538802537744522 5.659404025137826 13.382034468357546 0.360491803140734 2.513755733714677 2.667728817631444
Ni 1.2680766570465996 0.7692756767073764 3.044329602576269 0.25247050336373295 -0.08552183312290433 0.5019508137508903
Ni 2.183999741025207 0.412099617133752 0.30606995970550666 -0.30645158556587865 2.3494738116727345 2.117434836690476
Ni 4.004273952894353 4.323477806799021 11.323508582518102 -0.49508648253088927 -1.2723065427075828 -0.05778631488084887
Ni 6.201998144224328 4.7725672091643645 10.599766437317832 -0.9017498991316792 2.227020138520487 1.0833577140465793
Ni 4.439381341544383 8.848103438540647 2.6812001487417563 0.4065338330014611 0.7790936230503228 1.6652371831033128
Ni 0.3117234765669749 8.698256725762715 5.371419616199213 1.3593486691297556 -0.20044680199827414 0.35086764978740864
Ni 2.7141204320867325 3.610615875955641 5.208258714834737 -1.289483825817818 0.6733737177129886 -1.1414602746162665
Ni 7.775002283276802 8.020202650115879 10.155359169808474 -0.0374278058291549 0.37834580060301937 0.6980483376415333
Ni 4.021153554978301 1.104993024705288 7.9096398766620375 -0.08522718470062096 -0.30912553285361605 -1.0931371620308465
Ni 8.83900593093246 3.805324615634616 10.268557368873788 0.7185616271035367 -0.2474645655087093 0.09380335640540619
Ni 4.261294640538811 5.895056148400262 9.293161053661635 0.2829262487504288 -2.483987501313309 -1.2723767338238863
P 6.12839020096779 0.32863067473062374 1.5898313085849884 1.9278324336058732 -0.9724140984164608 0.8263903512537574
Ni 1.7545771447936402 4.516631967321491 11.858240578497712 -1.8411176086161325 -1.907959091720714 -3.8463726432765433
P 2.553216890041822 5.831309204290313 2.537830235869713 0.7278728772021336 2.392269566682022 0.31060905937767797
Ni 1.3749010815702416 6.4786764393093295 6.532084052224533 -2.096160757803048 0.32263128064953467 1.5594979944922691
P 0.656890642123927 4.433071037986025 5.866852954945557 -0.02145971253567272 -0.8266847425657247 0.4987371919095992
P 2.8704890183674 1.92345595387222 1.9935122816712043 -0.7965221029394153 -1.5365688964999213 -1.2439717003186317
P 2.5956504619291514 1.5575963278859273 9.591599777460415 -0.765479631811314 -1.7760869534680443 -0.4604408674325618
Ni 8.27292754802017 7.106891995015659 13.211967188113166 -0.0181563591940526 -1.9002558095391853 -0.9655387114528661
