# total energy = -340858.3221395997 ev
CRYSTAL
PRIMVEC
9.36112255094577 0.00000000000000 0.00000000000000
0.00000000000000 9.36112255094577 0.00000000000000
0.00000000000000 0.00000000000000 13.70094909007090
PRIMCOORD
 96 1
Ni 4.2543306613827285 4.710301581635181 3.002768229412861 1.2505331555862333 0.4975323729682205 0.5766488167854134
Ni 1.1555463336730978 6.455832666563915 7.0397673242894205 -1.323457097439469 0.1970092370716349 -0.4318352878807273
Ni 4.436292162293591 2.661413958044167 1.8912650414150132 0.38395389081841613 -1.6264580054525861 1.369244588087229
Ni 9.120438767411386 7.561811856121208 8.27256444991471 -1.622418802386206 1.3947866982223915 1.9668877477361222
Ni 0.048607629050295774 1.8059852146170945 0.09439756020090179 0.5443992127230882 -0.9744815224684507 1.9803816684574989
Ni 5.322013498422977 1.9167741004736663 9.830020284768835 3.2864586227473076 2.4341489805246272 -1.2052454873930276
Ni 6.6697343177529875 4.585040400253956 3.94646206163191 1.1131151478146701 0.5251966716527084 -0.4392593482589403
Ni 4.97354570999789 7.4418584312487015 11.157738257347827 -0.5522169089952941 0.8679764022256601 0.9235258573561901
Ni 4.791986737358413 6.133538576901395 9.34052624840815 1.9609657258247324 0.9440507167824191 -0.5144803136764687
Ni 2.8955262729057654 8.938130904964682 1.2278479001117815 -1.211396851706404 -0.5355260786031745 0.3511481571423049
Ni 3.684416156960763 7.157710916141783 3.59926644976685 -1.4015893229665217 0.2431523112866006 -0.6376744645391662
Ni 2.6693241066329976 7.681016391186488 10.730158685799593 0.5446352399932942 -2.889807596077197 -1.067562913106168
Ni 7.8499097649612475 2.360191755332484 8.991823495806045 -1.8670821510006943 -2.1411062121654867 -1.8041508015837964
Ni 6.961735814713195 9.156816089797413 9.04570892577277 1.0998698527689896 1.1451768042359054 0.42857564329284903
Ni 0.5122359475816388 7.6654582054413565 4.688861802566545 -0.23875469643953723 0.44695234602782374 1.2393030911983691
Ni 3.0269657951966087 5.868188195955861 6.403029382368632 3.828219883626917 -0.724120866358869 -0.6329909430205679
Ni 8.542763892362036 6.388573000752384 3.1102797862505582 0.16770560301151116 -0.8002918543944927 1.0343051794943026
Ni 2.382555477200786 5.133508572821474 4.336089769974424 -0.333932821705283 0.8129257411084193 -1.7291802616141767
Ni 5.1318516541229835 9.218187609499626 0.19759925619801028 0.38876673882602725 -0.012416628496797972 -1.4429853694148052
Ni 5.152960985564182 2.5996024655802095 7.460646204287497 1.2119025876982288 1.4773083110663912 -0.6245903776616986
Ni 3.889377936076069 0.8001101255917689 7.903502191790895 2.0143371994673376 -0.7688896859341273 1.7389702511214051
Ni 6.214184648017101 0.8172503410546657 2.0699669994399215 -0.4295845441733376 -0.12083310682968866 -1.9528721501833206
Ni 8.599174017091372 3.3117030610267184 6.789655914808687 -2.8153898432872544 -0.058839181625395434 0.4467929376318241
Ni 7.407016332967488 6.902713936781155 1.200890675388404 -0.07903828228108968 -0.4320869988802171 -2.669761274680441
P 4.674083398333188 8.292204085109224 2.04960749391821 1.3514121878914984 0.4791533562404006 0.6666736799849938
P 1.5680722839838217 6.284683262244886 9.599062668220181 -0.14355060303186246 0.7606346450141868 -1.60251666414564
P 8.836487835878863 0.40609673131568436 7.762080904481982 -0.5707681896349202 0.7079478561434324 0.18571540932537048
P 4.797051104679782 1.334867998013486 11.925388690357622 0.24149214997535828 0.07292677006671312 1.968837158153009
P 8.869766626687491 5.2317722766521815 7.688507161483272 -1.664459938617656 0.6557765734565159 0.3915011070380548
P 1.1513806341204003 7.724489444495987 13.283042596868233 2.300131513794181 -0.023329161644243694 -0.22767529869692404
P 5.224302100825097 4.5410337629568085 6.2838173584052806 0.21187227022639638 -0.9037211639254371 0.44713000925626867
P 2.977482901184117 3.5763045521650256 12.408798933146853 0.06808615414496015 -0.9836930137643898 0.796085786732945
Ni 1.267982777105568 7.562794773993193 2.545485815885504 1.0211982097986996 -1.7121184210358835 1.067553400024471
Ni 6.474742134196385 5.731927695530998 11.358251631008208 2.4301899958768796 -2.0510137289527646 -2.2539670994229764
Ni 8.595307873461566 4.1934927256681656 1.9962968368785317 -0.10382808763125989 -0.3616809383528287 1.31377740825786
Ni 7.6624252017220895 8.596346958069091 2.949636369814658 2.7165414682587734 0.5606668395348602 -0.1656626044395534
Ni 4.531036084030335 7.990167464732182 6.377777754181214 0.23431157306651904 2.7284351343725657 1.1340177022952922
Ni 0.9589159536631869 4.411382215080719 8.833015795510109 0.9868238460838876 -1.2363128982217935 -0.3233902703027463
Ni 3.072629351192245 2.4535034253129075 9.955273977251988 -0.414691429111589 0.44750976119319064 0.03893344384040392
Ni 8.583194580829677 5.803044143849746 5.74198528564205 -1.0969508793499816 -0.02663765719218638 -2.1156764592384723
Ni 1.1049213827045856 4.219703868921093 6.010784304149862 -0.7375026869824137 1.2558237145612114 1.422458453106047
Ni 5.54498607740208 2.725004063800289 4.777959095156802 -1.4541717250489279 -0.34502661762559933 0.06498848905624291
Ni 1.7335301257679292 2.868959406994405 4.398346851873683 -1.839939272037315 -1.34952396972985 -1.4008226200038263
Ni 0.6257330062035937 2.325087545618741 9.65675807508117 0.8982030623206854 -1.4836957026499737 -0.29907740458899457
Ni 0.4786407508294575 5.892227558767833 0.7925809746923654 0.11061631419768692 3.3814094624935955 2.4046879949510327
Ni 4.407909238599706 4.5567136432956135 11.058200504732575 -0.46919881613085 0.0029236014046981904 0.6429177152159766
Ni 1.8080914671999186 0.2210310821538688 7.688918114764987 -3.1621218736397347 -1.266927537783857 1.8919236355244062
Ni 9.262484441597074 1.018976916202753 4.073236936535991 1.3849455437622535 -0.5486165932385455 -0.8142339183968815
Ni 7.54208797082338 1.3126634152292198 5.617115399185101 0.253470405383157 -0.17276861935671536 0.8091660169556709
Ni 1.61378264559241 3.2738747646391895 2.0472644049338498 0.6055991812711764 1.3296956221500131 -0.7418072278950385
Ni 6.849243204545182 2.854767945147463 12.075989494478614 -0.14257075561709637 -0.014063677181917715 -0.8369997513384875
Ni 4.76902390364433 2.9285803967722255 13.364316799309751 0.8427736777077872 -0.7763651683755661 -0.7791087925589744
Ni 2.943033970051697 6.347580644929323 13.009942142530164 -0.6307738807645912 0.4498412375398446 -0.3379324297829793
Ni 6.514480099592341 0.012195670510683742 11.716819134596003 0.9430117339949436 -0.4385605224197027 0.8095758507995799
Ni 3.630879896866658 4.580088366403671 0.7604620269726793 -2.8256449453563595 0.04981280975706905 0.7155788903261289
Ni 5.750041467743289 8.975163505932032 3.917032564432426 -1.838601527062498 0.37789251511568467 2.922907206844644
P 6.116323472457776 3.7946901810748668 10.088995741230354 0.9096922939072075 -0.036638220048324 0.13578844258794034
P 9.055603632350751 3.031356161691474 12.265432404563668 -0.4344889234534904 1.4979195595588397 -1.9865975674602239
P 6.230033028562531 7.123336873990086 12.80677021005413 1.657393261578862 3.3548175709376804 2.0678313147307357
P 5.089530018892096 8.191487767159849 8.760058014377844 -0.6771175010261371 -0.5859706084069715 -1.109596078917818
P 3.4766366799457677 1.950174585875969 3.842445011857184 1.6673434308130384 -0.05756931377403634 -0.4377400834009364
P 1.3824505841401407 1.2194359953521097 2.1264969465384147 -0.17253233497619316 -1.0355333954744488 -0.4194448846361744
P 8.260357546056918 6.5928139734282345 10.327693133936696 0.5410305533611716 0.89095846494313 -0.1240780961295476
P 5.479233552327592 0.9030862185344505 5.923482474872431 -1.1580397762415022 -0.8915446764639033 0.8787773494959059
Ni 3.244874006854343 8.875233522280245 12.392713716199886 -0.3616063763611514 1.5515211469343797 2.1129855426698705
Ni 3.337661453969708 4.784909728680122 8.626021716680443 -1.3693453753311513 -1.6818637359164001 -0.7111573642196655
Ni 3.239800278410383 3.5029039899342376 6.013387632342233 1.939511155495382 -0.565909061770406 0.205897026479568
Ni 8.133252223525398 4.786791314320779 13.394363194487937 -1.500313513712313 -0.4687095351992573 -0.8589238051050884
Ni 6.644234619816925 7.409862114234948 7.4004719721645875 0.7424646589733794 -1.1237168345899162 -0.770964309074969
Ni 7.442588598810747 2.0900672018658812 3.348032641687536 0.22922593101349553 1.7187888910775238 0.1946890735788905
Ni 7.1419374245770735 2.6877936015037216 0.8185477926456857 -0.30822976051222406 -1.129182742800494 -0.4076856872177173
Ni 1.978772815389431 4.84615955378866 11.076134543391133 -0.6555968533455419 -0.061936846714112676 -0.5729433429093681
Ni 0.6529935312988978 1.6740495528289634 6.269745718927494 0.12402667406632188 -0.5116186758579576 0.23003531428866836
Ni 2.9418731908504965 0.9296465316599978 5.8745425259701785 1.2467199524877302 0.15732503110813548 -1.5025508876832638
Ni 2.126556857722993 0.0027821256338464912 3.8730661799624166 0.5153370052498093 0.2872940388008214 -0.7701274149959705
Ni 8.741893692103565 7.068050083971588 12.474837908572606 -2.022465227891111 -0.8726794641282842 0.14092550670418955
Ni 6.846051061741879 4.859096625208498 8.443154995215096 -0.29702643559723685 0.5113790490433258 -1.1956241622531796
Ni 4.372308889388676 0.18302305221260526 10.293934117539186 -3.036541481933048 -3.7176076831942884 -0.7546681430181068
Ni 5.16450324971806 6.269742910590717 5.150487776975816 1.551315715791793 -0.7829479637994065 -0.25334210733540885
Ni 0.2753255931777909 8.867613568491716 1.204336504613905 -1.271834231056855 1.0623492301157123 -0.7733171255778618
Ni 5.977572913423884 6.80961757262031 2.978901111256552 0.2005517030072546 -1.0005795051070832 -0.18840863988681744
Ni 5.32552391939435 5.394899198911296 13.385882017421096 1.014131275649589 -1.0009001216712956 0.4581543853912303
Ni 8.393032736529685 3.9689474780938863 10.343175494588847 0.27910713211465477 2.0022450441894937 1.7186019718776981
Ni 2.8849575655012814 7.4576787284263615 8.221021172820086 0.9911954927890221 0.5708885172628684 0.9686104083996543
Ni 8.904000252000333 8.742736193136695 10.834875011431818 -0.618677097501057 0.2548166349984063 -0.6227227283253405
Ni 1.1718253258576843 4.346294329710145 13.315418039346895 0.8131340004644835 -2.77010474619721 -0.8357756491233993
Ni 2.5435480635093053 1.4718118603874442 0.02166912657209912 0.5266030650819318 1.9978199185386045 0.6390083528592414
Ni 1.5245898695517326 1.428310723710174 11.638421605126496 -0.46375373385587865 1.1347718068524972 1.157963414477612
P 6.262703346402788 4.45943285733689 1.5744715473865725 -0.6819627449335804 0.8139130447223532 0.7544691396334232
P 2.3548746377011756 5.762501121911019 2.1388555005821703 0.08374828616224932 -0.9436097725902587 0.12071226498110824
P 2.6625185705098264 7.818521920915866 5.473146014307099 -1.9297679600656894 0.3561888048900059 -0.20239621241516115
P 1.544266949236609 -0.09085999197401556 10.289084119925134 -0.503607375517707 1.4256304230761254 -1.8381433564791567
P 8.868044180130871 3.759071109618656 4.341433098748985 -0.2571511966688539 0.010563634448459225 -0.036748777484259296
P 2.472637559887545 2.735273215281882 7.876826736857486 -0.4404963059898349 -0.6265932670243402 0.2679333748860224
P 7.298773672455487 7.394163511650963 4.908228477123853 -0.19310193159742875 -0.006944035418000945 -0.31968453931638496
P 7.825055984483917 0.27870870288193667 0.3534366722960341 -2.1047806382615746 0.8052160311689874 -0.05849722490494441
