# total energy = -381164.61043353507 ev
CRYSTAL
PRIMVEC
9.27246747783415 0.00000000000000 0.00000000000000
0.00000000000000 9.27246747783415 0.00000000000000
0.00000000000000 0.00000000000000 13.57119342919134
PRIMCOORD
 96 1
Ni 8.503937499074464 8.845729920492216 8.524174659209683 -0.16172161751393438 -0.15534451034299698 -0.6446917763972639
Ni 6.106596683496181 5.267290022877936 7.740289536336313 0.509182298502323 -0.3632356844344583 0.5917316792604648
Ni 3.227504823324445 1.1136233366504418 11.5692112324902 -1.1627528654464556 0.7253038309233767 -0.02782833506617788
Ni 0.6988630873966928 7.943045945086245 10.130732563403903 2.0953238637240497 1.049698117010605 -0.5697037529261479
Ni 7.041975379010641 0.4461698053783927 12.273705489348572 -0.5552582669247792 -0.23754550662278445 -1.1111348841598478
Ni 7.738068780390202 1.3445541376436079 10.10454062469419 0.4638095267944787 0.04049487479025284 0.9912358591086542
Ni 1.9927923346896728 7.677973919067709 1.6350299426415047 1.412683118886838 -0.49173247845699186 -0.9308601862340743
Ni 6.743309203544274 5.640126665204144 10.167347682735835 0.597522574910629 0.33120051037578446 -0.5486338196297261
Ni 6.053956885976078 8.417638644834618 6.611641093485135 0.0017573490107389087 0.7343253176956966 0.0731468564973192
Ni 5.193082466148431 2.208961367556715 10.788365624435766 1.8143850777172947 2.0391997670369717 -0.21116778796020408
Ni 8.641642912668102 1.6962959165986276 4.640384991615648 0.25969478902631404 -0.10653391659819718 1.977540856574594
Ni 3.452269433486033 1.9552295691878332 9.208258360792161 0.6878914517131894 0.11489591540964728 -0.3559648618046579
Ni 5.354618121000948 1.83937936129349 13.295508217412994 0.0903904740691153 -0.2824739917043587 -0.22438428665047808
Ni 5.91614020277345 0.8473356901536804 8.678859815135327 0.8482146462177005 2.3741751710741563 -2.8178681296244177
Ni 7.199143701710266 5.154036105860046 2.186916076275396 -0.16371396535361482 0.6306062448384752 -0.5865791885252478
Ni 1.8614200163411012 7.327400471007094 4.084155634244146 0.2819623421752628 -0.7248137786608355 0.8162576336951296
Ni 9.125814071257105 7.936935389059162 1.1582303956481461 -0.3083200062331852 -0.3104383381277686 -1.5859276494387073
Ni 8.5366600365852 2.434894308612707 12.378801489533947 -1.6542398035515449 1.256470604116591 -1.1077307435743053
Ni 8.109338375723123 4.194372818183326 6.416270205031973 -0.40891647430102473 -0.7947822374301732 0.2284857104133613
Ni 4.780272216792247 2.378508434256576 4.854076421189159 -2.7191853336395235 0.04348043978113802 -2.0077330638872586
Ni 4.124690225552784 0.18821439810156534 5.06920693770562 1.8495492843232535 1.009754229627816 -2.3988305077289915
Ni 7.0036708161155286 6.060484703036876 4.377537430530188 -0.21461743707170133 0.45981814624689843 -0.2622746339383483
Ni 6.146069577285698 2.2233429645187868 6.416188607318713 2.4047954670631744 -1.0857750652388205 2.6242524916153642
Ni 8.173457487904122 6.531257146209894 8.186632736855383 -0.3919662195999314 -0.05365069544592051 -0.6159815529467649
P 4.090085377156618 1.491077667749772 7.199409821525103 0.7278674778854949 0.5458912238875825 -1.006683818232608
Ni 1.7721725174629952 2.231104019745901 3.7663186323953908 0.6517270859774905 1.4363071860636811 0.9218471841021867
P 2.672612555754317 3.435820076290214 1.3097554946784502 0.15738853735621924 -0.023932856666513624 0.6023511066475239
Ni 1.6475783727954518 0.36229013788735553 8.201560482148253 -0.2618252051057556 0.11349389285579808 0.4143060207477123
P 3.998603213631279 3.335658883263586 12.159327749279877 -0.46345137212411147 0.6863523893608439 0.13323328026625442
P 8.986921781834234 5.811212961495045 0.7419995330622342 -0.5629186116835144 0.09463176584397251 0.49288690377640926
P 5.107349232420954 6.149398393088009 2.205957088113961 2.166274741011314 -0.4557318919926667 -1.3358976371956672
Ni 3.2074484763038384 0.8388402555072262 0.35624078014521776 -0.9742066715405093 -0.036749034594575423 1.0694976682350357
Ni 7.01363871858763 5.501002564095873 -0.28235405078830367 1.6975999157047343 1.2673152601405788 2.478677144843989
Ni 2.8539078386701324 8.406112967836645 6.2414192869702125 0.1637013669481245 -1.3112764962128771 1.0205945147764295
Ni 4.982143104903961 4.143198070514934 3.2733849920983538 -0.44782266444791907 0.38145169322185274 -0.5956055603935743
Ni 8.035696439505989 0.5084705866991308 0.8377767034946217 -0.6631378989175934 2.6061295567624083 0.21646554602403367
Ni 8.967764864152969 5.012983331529267 12.171596150917864 -0.4574789565907605 -2.284216385225821 0.5090727695076522
Ni 1.4646882254841 0.7652799170033521 2.11398441106232 -0.0006106370008054 -1.3025159764114278 -0.8669903841633068
Ni -0.12564935145947384 3.5906795546032786 9.103895812779385 -0.5975750254151192 3.256661851100849 1.9705168598482776
Ni 5.615610261356485 7.258793484596797 11.76319866880491 0.49086575958132234 1.1028880707700233 -0.6499342557431258
Ni 7.343135848211888 3.224602541023266 0.7997345514273797 1.3242960484009967 -1.1255428320550616 0.022284522429813235
Ni 5.519547498927687 5.022858509327208 12.00323225106027 -3.3892441280466663 -2.775125853560885 -1.5272165087507439
Ni 4.536536138297714 4.68656466108709 9.776456619104115 -0.7958772702665649 -0.473851484411513 -0.589474764905488
Ni 2.243167499853996 7.272164382610535 8.235610836992945 -1.4760975785877417 -0.3440925358471042 0.6544830514560728
Ni 0.8873232058847796 5.23927789881448 7.696101592865808 0.3884828890370212 1.033681944088007 0.07885959061138031
Ni 5.591483301140295 4.3392551215568735 5.56368722556763 0.3048865550716039 0.37690289750890577 0.01637998401992018
Ni 0.5304722973835952 3.114844344221174 0.4706472648629042 1.8130038810990516 0.7813510516259317 0.6725702479750869
Ni 2.5896425173167805 5.853059606943034 11.66710067099993 0.6833848220920876 -0.8380328205886921 -2.0819515561822017
Ni 3.0868600375599664 5.566160192627453 2.011128639004629 0.6299709252473216 -0.35627827928001865 0.687418625841829
Ni 1.8016960537152436 3.159482002361351 7.802404868308733 -0.36992132398475003 -1.772205101915135 2.338826873481849
Ni 2.479040525979841 7.91840899916218 12.462711756167456 0.31484392339463196 2.494390698924504 0.077485335971673
Ni 6.705023185583993 3.1321745858215047 8.913709160858456 -0.5845708998459674 0.8549892459373726 -0.6829366788110754
Ni 6.843878385137202 7.946346943486309 2.771942935700481 -1.2704180674356185 -1.4412768713641309 -0.7182456385250147
Ni -0.014084878004762873 5.808366313998362 10.111747186369833 0.9795152282376163 -0.5433723141204707 -0.29788184161899667
Ni 0.277951483259231 0.6424614498459548 11.698097602324566 -0.1446132399684219 -3.189678443101765 -2.488617800996469
Ni 8.18818216616058 8.45621210928479 5.106460002795768 -0.3740399741388139 -0.512987016960394 1.58150638044256
P 2.6814863070713404 8.83119996405149 10.149908953266738 -0.952647457312495 1.267837708302952 0.06675535114867859
Ni 4.684450538516263 8.193986730762939 1.5000914333247752 -0.5354705427748907 0.7606061057690965 0.5094435225835097
P 7.83336192802348 0.5804425515346602 6.773708060720584 -0.6861551857483732 0.7478251519543443 -0.9475222202707875
Ni 7.185123730977415 3.1767102468201065 3.670872489049751 -0.7462796618440953 0.44414444426538346 0.2272099290247313
P 3.158369306271442 8.73051951284957 3.1102322189285023 0.1536979758785095 0.11045022093346785 0.47956370430494183
P 4.5640660940555415 9.037781265610484 12.662438849812611 1.4611548412349804 -1.4186887016509695 0.7857592079959564
P 0.9351839736987257 0.842680911510895 -0.05279001149224226 0.778892305672794 0.4231220763774454 3.013926058526377
Ni 2.9366831552919352 5.112106008205314 4.695673933076478 0.03043054857571533 -0.21638687026729828 -0.9389486196691637
Ni 0.34883022418642484 7.127894062086436 12.314989296024416 -1.0526695409341034 0.9246771973518139 0.5535909065246852
Ni 6.725070260137184 7.981285600709446 13.750061260582108 -0.15239082703131174 -0.8773205624447213 0.4514057538134871
Ni 4.4791302925258325 6.791711483455309 4.118300568256482 -0.7232461770633996 1.3437577566700343 0.17235955684375476
Ni 1.3580455777337528 1.9821660870310431 10.167429280449097 -0.7426140400670501 0.3474072020426339 -0.5122529670078468
Ni 8.938120785824314 2.179289471825812 2.375325196192695 -0.36319197568071643 0.5695425447579352 0.6793039671544947
Ni 3.3648115208191975 4.236506910121207 6.745683882449487 1.6777831380891235 0.5420034587974021 0.14649477326185092
Ni 0.8707013807950246 7.779164355977502 6.5424555051080855 -1.9356599000700923 1.2442043851547282 0.8954661230054964
Ni 1.1928102083822885 9.512717046653247 4.762172360396396 -0.28742619350331144 -1.7203577782265402 -0.9170654464428271
Ni 4.110095361840146 6.57746185134336 13.450450220686061 0.5296989303984362 -0.9397407765531558 0.8073873277886934
Ni 1.2541197629362661 4.3361859348422085 2.8003482123823704 -1.1261789229771637 0.11842115495408638 0.19659940322772593
Ni 8.636468875850024 -0.18329349964394345 3.1096897795846714 1.5527485915835773 1.722289962252247 -1.065937718797919
Ni 9.143913927652957 6.625205786067865 2.9636910711342477 -0.403304527430886 -1.124009940350303 0.9204364197975891
Ni 1.7021839334077284 3.7408935267409733 11.955759999631052 0.8140380003359917 -1.5266279832371257 -0.343750322016337
Ni 2.161968502692898 1.623089786350041 6.142769506132376 1.1138021465793657 0.46070414839627755 0.3976429582697345
Ni 7.815503155780442 7.976983175828465 10.577523624099161 -0.8140837659722625 -0.13102830219513562 1.6072672914567483
Ni 3.915345728703849 8.888253456061566 8.328152843543924 0.8708560377663002 1.4557426690804736 -0.2840071405194335
Ni 6.139347038409166 7.93793681554008 9.085275770961502 0.5033842037633073 -2.8633000367049717 -1.5552502749595085
Ni 3.954188094709084 7.1405417076417335 9.982223798023993 0.9028485315124968 -0.6947694097799454 0.8305023165396019
Ni 3.8485654183744864 1.4156646902561996 2.7045487880281844 0.8806647963266059 0.9850631546390388 -0.5193535826083701
Ni 8.953207090309995 6.279101667301718 5.679829516185574 -0.08775406488753273 -0.8919002600311091 0.16824502045474893
Ni 4.364865676559609 6.815411910170368 7.624961368357485 0.6441029937733294 -1.388579540970415 -1.1859563001461122
Ni 5.121146663935824 9.276269127547614 10.455233687584471 -0.9950675741499186 -0.8193565843354276 2.8515320975357663
Ni 5.275264344855615 3.945620334816786 0.7964604431828229 -2.707987665151491 1.2863694485585524 0.13106558319097425
Ni 1.2690484354758766 3.7805611423462238 5.692762753737282 -1.304585971566579 0.5661461174818766 -1.3338986044877672
P 6.0336965446723205 1.7392088957994458 1.8521966930024982 0.43171830268688877 0.1824709342461438 0.8356051849838061
Ni 9.065450308379551 1.8116361387850959 8.14940656192074 -0.5063517710320635 -2.2241919250430726 -2.5405962509462894
P 8.792552319861988 4.727187340836179 4.288252841782418 0.16624341664368789 -1.6954139637970091 -0.9648527411294351
Ni 6.447971843880217 0.672721220011026 4.18036211991789 -0.31173597389326957 0.4439138163118161 -0.6434262794212791
P 5.605790718363039 6.424716495601122 5.90242436897184 -0.10560086326096652 0.4227263836009236 1.1181406260537194
P 7.651797743552603 3.7010126443851568 10.768253642610661 0.31701650556591854 0.054156945658377705 0.43200626624095273
P 2.4586132802625973 5.636065324475976 9.52011091217069 -0.7509122755201003 -1.9236124819872549 -0.4463141982231927
Ni 1.7628073253729293 5.526177313130061 13.667412976763904 -0.7742362949580215 -0.4169681409609077 1.5082397105379253
