# total energy = -381166.3386051226 ev
CRYSTAL
PRIMVEC
9.26174762244606 0.00000000000000 0.00000000000000

0.00000000000000 9.26174762244606 0.00000000000000

0.00000000000000 0.00000000000000 13.55550383724642

PRIMCOORD
 96 1
Ni 4.423864357123936 1.4410723162454895 4.442273932319646 -1.3384101192048756 -0.5197623880110146 0.9532732638219519
Ni 0.9061332393243011 1.1115022987558723 10.576382916398863 0.7386244592916827 -2.2262256676436496 0.2412653786765329
Ni 7.573553085141628 8.44115652934007 6.863367855850561 0.26951614599211 -0.033481162476581054 -1.1298735982199315
Ni 7.105992293973452 3.616119586009897 7.28207107742956 0.4666912192176479 -0.17244363191712883 0.9915739591743633
Ni 1.3192988621663106 3.265775469227642 10.154698338349823 1.0734124299084093 0.972334137108145 0.784742593805984
Ni 4.0523571476605955 1.0765577260268837 7.059625208245085 0.49146508372821807 -0.2673044830527719 -1.1164488401735935
Ni 0.5964824618474683 8.589298178107674 6.531529636436393 1.2153869467024037 -0.16613131654585583 -0.6973466835888184
Ni 6.531180468561523 7.0562289254940325 11.149577640724527 0.11443465950251261 0.3648331108285652 -0.4724409772172315
Ni 4.623334609672101 0.7470340172739866 2.051110271505666 0.7392523226836688 0.7845752149901843 0.04450939526628463
Ni 3.628493280461508 6.0843567296966095 2.1679583283472943 0.6938507546204179 -0.4870538420343999 -0.4559154687583826
Ni 4.935251736724015 2.410332699291898 12.004875927401704 0.2871603414364345 0.30675780395238783 -0.7415750572795744
Ni 0.5484186240056753 1.4769523254562238 13.316479203699869 -0.15201107509438982 1.4635863334946086 -1.9859103115852121
Ni 0.7903808471934703 4.162321873876148 13.158015337517353 0.4145340775981184 0.7907381492677866 0.27053198885113405
Ni 0.5393865679957867 6.701920780848536 12.642838050904102 -0.7549296242096095 0.23999962459023183 -0.35556402682181343
Ni 4.433811473771414 4.204203495365808 0.9567551717825127 1.6476456952737946 1.5107514212161852 -0.559966728144042
Ni 3.2623208374683226 8.31884589391494 2.596529941721347 -0.8574947859680457 -0.5292497586761594 0.5145618176466815
Ni 0.8666105848831634 4.412277911196567 2.1838598223622427 0.19997114791343623 -2.0453344191798 0.6563774402653083
Ni 5.215975298721269 7.599421145473477 12.9383618851571 -0.10260321408522331 1.1032994472758288 1.1133889703013469
Ni 3.117022545135333 4.3120287579448915 11.7034829238568 0.3070956469077808 -0.7051566665515403 -0.7821462938337176
Ni 2.651943902255355 5.064749488088107 9.200133569814172 0.8171526347055733 0.7892332825874859 -0.4268411771002455
Ni 2.917005849493871 3.9918779375041424 4.466727723832062 -1.0299384178851747 0.5574195362421561 0.967225612236986
Ni 4.058590303623121 3.047216755403452 2.8395118832917188 -0.3867252829159662 -0.33086266742039144 -1.4772792576006686
Ni 0.14054886829497634 6.25400415579703 4.0780649797633926 2.5309715833723314 -0.9708770929466441 -0.9628542226421676
Ni 7.271722000947352 5.782738665691246 4.713614418082672 0.5024964018417152 -1.36134873027892 0.7949457595912309
P 8.818683874577024 3.2536055332175997 11.710761731094465 -0.5851902785975212 -0.4736902762433004 -0.8525436126103575
Ni 7.97719855788872 7.853470875119953 4.416288247796528 0.053785935472204144 2.753953333248328 1.0293270095534208
P 6.886451834930797 9.087598708710653 9.631524459079746 -0.3501377135999196 -0.33647821383495596 -0.017317408232525013
Ni 6.217957435134102 1.1441684816382316 5.793757366506426 0.30753761954120584 0.3564335739109603 1.0825568154118388
P 1.3807227705518532 8.635875505500753 12.396969222686598 -0.13902520435768315 1.9008425352805909 -0.9600848874271465
P 4.245344177067945 6.291884702434071 11.637480933759107 -0.3696685845439956 -2.0983477381520377 0.09120114289586874
P 3.8181182955829787 8.383483628628856 4.56777060883112 0.7024618933281966 0.1177917489002036 1.6279374182115898
Ni 8.675413904912375 1.9757900374051554 1.8215615682830613 0.72075169277632 -0.03926408770694528 -0.5435540911139736
Ni 7.934983513494674 1.334849335956921 10.994706406336757 -0.5905170901270733 0.24580466130778314 0.45461269078655897
Ni 7.444305400955825 8.815812732900378 2.2779888129689896 0.5647505226859305 0.6766842701434604 -1.4418967643363167
Ni 2.257939908493389 1.7223608448307288 3.8087574475423778 -1.3861259372236 0.920602255951492 -1.8924903066611536
Ni 7.192358087956442 3.2418708993327257 5.0533019683708975 -0.3830259796875081 0.19457234549536814 -0.8977957995799376
Ni 2.684174783012545 7.913357333446387 0.4003455121684168 0.18744036243627718 3.2360210349220466 0.3943254638607273
Ni 6.716433938936617 3.4247441006404062 10.775703128640055 0.7379950532377999 0.16041138334294308 -0.5474503408445862
Ni 6.229969921439296 2.3478251664671053 3.1565479781006736 0.48710629253889015 -0.7432809842270877 -1.0527800983700384
Ni 8.958573306461107 6.47198864128589 6.5627750672761795 -3.4669816892384615 -0.007452599623303295 -0.3811549879170404
Ni 4.1126789081121995 0.46986233538316413 13.269441567463792 0.21673551185596868 0.19420210664014295 0.5699930020317926
Ni 8.282410179863565 1.1561253974593617 3.846211027626861 -0.7207537496588491 -1.1162614067531358 1.2246241490299554
Ni 2.665299341925432 3.860324078229679 6.999994374145344 -0.6135467182530272 -0.8125835272776523 -0.07932547450420532
Ni 0.4347445679788425 4.744218936006253 8.385515655996134 -1.27468764134525 -0.08790961662879054 -2.4830760452426333
Ni 7.957637747498149 5.939753068414421 0.5836929149401109 -0.08489936904755702 0.24242160376816313 0.44598046903285776
Ni 1.9311576769543217 1.488010851784984 8.277030957006156 0.5967471301971852 1.7923304119101005 -0.010204194226511459
Ni 3.497902642910822 9.177076449801232 11.047490956799797 -1.8740794082541339 0.5930005186705594 2.040209953469041
Ni 6.0423176585021015 9.155718860425923 3.9763580274797685 -0.9888159368132519 -0.4609301483641545 -0.21239600394035033
Ni 1.117846595686526 8.908615441287461 3.983677586405747 0.5561820642906292 0.015428932960560523 1.2471428989577618
Ni 5.013309743339418 4.9264438149998515 9.848547575194296 0.2954344085197686 0.2709927305376365 0.22487151069954173
Ni 5.507396178900867 4.844495874499961 3.7824466756874844 -1.271846572352029 -1.0275773738521656 -0.989198259853335
Ni 9.199702898562675 4.271036264200258 5.423773714481177 1.2625978000602514 -0.833005799687746 0.522844369370448
Ni 2.614313422796601 1.8722437020990088 12.06259513684964 -0.6414267324927468 0.774163532738557 0.583740176414556
Ni 8.507841110217017 2.667448067309245 9.200527194076292 0.006451154941982439 1.010046564057254 -0.8100957278587919
Ni 4.318308222644137 5.512508663434766 5.808791034795241 -0.6872044529484939 -0.40399538285032355 1.3771170488567703
Ni 2.7866560173741295 5.977494688841303 13.280801100581234 1.074845048589878 -3.0153154826747364 -0.8341525116976795
P 3.6956594722003424 2.8979822204492534 9.86021922919723 -0.6621649934813628 0.2566115221153 0.9861653865642822
Ni 2.08105905771729 1.1341565327593457 5.902174454740794 -0.875312273765441 -0.05289196290302504 0.6868031037450172
P 2.6845267294116186 3.3963197980416076 0.3397847986353371 -1.9014966239248219 -0.556467456741532 -0.9384963626230933
Ni 1.6973170800124981 6.060526253780445 6.6466837196888 3.3253136479412926 -0.8088757394087617 -0.29858760943676965
P 5.920497895686203 6.578591353215563 1.0905596356615734 -0.5905541140125959 -1.3614271489253391 -1.5073313397910428
P 0.25771089837156713 2.8469685160783897 3.632576784865486 0.9448747553456115 1.0373460232031553 0.6848624350788786
P 0.28569989884519637 7.811876367797957 2.4732968362607513 -1.0514724353022085 -0.6948450002128872 1.4381745782897233
Ni 0.7827862143713736 7.190570570719046 8.611499512666025 -0.386222889358251 0.02177827221735604 -0.27336277343170984
Ni 9.203991087582956 8.876616104213872 0.7901326323646505 0.6513159665820009 -0.4872284199390512 -0.9925684618771485
Ni 6.569144370924663 5.920108902297754 6.893488910562783 0.3945689473301011 -0.8107786128584296 2.391217214158108
Ni 5.656751116570538 7.3474923559687815 5.558271883236304 -0.9990982925758666 2.3728929619276227 -1.659969764056786
Ni 2.143344308605826 0.7839068858000001 1.5616213673257884 -0.3795051110184432 0.8859687250380226 -0.4443303350239445
Ni 0.45465084154534524 5.626261444314023 10.31182017734219 -0.3982147716128045 0.3806685351989251 1.9977211881772108
Ni 5.8058096783252005 4.797251701298113 12.45232946508601 -0.9215414799363096 0.8755812111561113 0.6819342056884901
Ni 6.207926962760528 7.01139280660163 2.9855585248101058 -0.7459431044402831 -0.22148022562980568 1.601047021578649
Ni 4.827352380166179 3.008058087632934 8.07322435435152 0.631753471069041 0.6817452296061356 -0.7764019351507725
Ni 2.5982535529020696 6.464699646126145 4.281248266821774 -0.002397810808215225 0.42436160521150135 0.3067439199953169
Ni 1.1646554667632045 6.343750487560586 1.30871361112683 -0.3330997842810263 0.7212931671020869 0.5941022363751705
Ni 7.767429242294004 3.5905571633404008 0.4647739313923594 -0.26752354104211346 1.1745028068935321 -1.0495687905215925
Ni 8.516704602425243 1.41213861754277 6.125623371162627 1.4731063571699017 0.6045244601497589 1.2235820809186864
Ni 9.085514815558248 0.40089843848485485 8.421749463955411 0.2426722863263885 -0.4668136037281251 0.815036616803835
Ni 7.886368601685913 8.933066454275675 12.441078294412495 -0.01989442493108187 -2.162129094274057 1.0643351501974894
Ni 2.3522708051922354 8.730428684135855 9.084546036786064 0.3378511829230827 -0.5485510301079327 -0.4618480321927337
Ni 7.725881043708729 4.220346720986435 2.7674916097698827 0.5174550800340765 0.5502286749206717 0.4144515451866411
Ni 4.5458786166340595 0.7986108358833668 9.224588287501323 0.40226451620214587 0.9076580370859981 0.9321791621558139
Ni 5.794297326376582 0.24303102883129502 11.432087793784442 -0.006160877395073261 0.04001330716814399 0.01719682349426071
Ni 6.941216546975988 1.192737084710274 7.996038804335925 -1.2497697950576476 0.8147769353845451 0.544602586983146
Ni 7.155051769654728 1.4562986288790585 0.144238748436834 -0.7050270829522116 -1.1952120144164255 -0.303169058159865
Ni 7.44880661016502 7.085421953122385 8.886743824934559 0.27983912518467285 -1.1384248302240523 -0.9919043459305885
Ni 2.1792150560692165 7.005743140721778 10.865549487274926 0.2917932122227555 0.35424325112786087 0.4858536510787116
Ni 7.980977350805079 5.43840542293526 11.764482644213986 0.3916031798335578 -1.3175052507314082 0.2911113556643825
Ni 8.750128420736587 8.198952574546595 10.456701691044698 1.5582031869402455 -0.24688041087046514 0.3430399262128737
P 0.5101194463886826 2.9164316211585417 7.351936142344443 0.27126449614178444 -1.1016894224762317 -1.1965358754341715
Ni 4.392744886048028 7.472359233660863 9.96069251673463 0.8709619672165452 0.05317632691266326 -1.9119391594143846
P 5.007650815712221 3.356642472419825 5.351116232742073 -0.6203575705272736 0.265603184090949 0.9096820094945625
Ni 3.021191245366755 8.127164770883095 6.673251968119857 0.4431707674982045 0.22941387865458554 -0.48616089790648526
P 5.234998927765886 2.26591427295659 0.5862241504892315 0.6153390342667596 -0.7164049857718501 0.7800989243863855
P 7.230303466824893 4.900835083593635 9.151659436565039 -0.002439976900060314 -0.5265827533669576 -0.2435685728884128
P 4.078197422750412 6.675728559359648 7.9784164776644575 -0.37709367336347316 -1.2009370898256606 -1.0200466126927594
Ni 5.558854447144244 8.340416503479162 7.829238439369059 -1.378500302357542 -0.10517020348145113 0.2866479205763902
