# total energy = -381167.02449091047 ev
CRYSTAL
PRIMVEC
9.28590888905099 0.00000000000000 0.00000000000000
0.00000000000000 9.28590888905099 0.00000000000000
0.00000000000000 0.00000000000000 13.59086629318050
PRIMCOORD
 96 1
Ni 6.169622971642977 5.300889036736984 1.6095386866555295 0.40701822883704736 -1.5407875625669594 -0.13694466767957061
Ni 2.1166486798035598 5.343149208806133 3.1119411976907982 0.47320588040771405 1.0665164741195245 1.9036316679899536
Ni 4.902811401836444 2.9366780217623587 6.031803366761435 0.49523689206582455 -0.32211423180380006 -0.48629176705739474
Ni 2.0559281205506115 6.211920287348311 8.035423033064031 1.2089242217961953 0.2423897220889632 -1.0932850004626204
Ni 4.283357695275057 0.3506015677201531 6.171762445087217 3.2777328128385355 -2.7350274428781027 0.8577220714875035
Ni 5.464404609131105 5.852843470441713 9.822662446772622 1.0753849802537478 -0.3447257985557289 2.345213236624167
Ni 8.112235144103098 1.6678792674199425 3.180697782632307 0.49109972996899937 0.6951697305421576 0.3218527506122973
Ni 2.3017354189119494 8.334103368943392 13.549509112773988 0.0031971667810590096 0.6356628334257762 -0.04323155699512555
Ni 3.4197867257987364 8.706403320331745 8.673731777943678 0.7397390325121003 1.26345063497885 -0.8716379102376473
Ni 6.709970019039988 0.6039917394085985 4.955896158080721 -2.8220644270939523 0.40472840436160623 0.08578742807946516
Ni 2.6949100938361075 1.460608491600237 5.379971552537841 -2.5169359312148716 3.2612605262151257 -1.7977171301433104
Ni 7.634865131857257 7.459732887246369 10.678194604787667 0.014064962733498358 -1.7973414919714465 1.0127084271601332
Ni 5.9670972953458685 0.9681581630634062 10.981664612553045 0.5680592753441894 0.36464079231210106 0.02843305852971232
Ni -0.16088208858862602 4.286394187533157 7.856675784061466 0.6921324863777306 1.6487296723665927 -1.464759527867103
Ni 5.264107551005077 2.6779818816449277 0.8784460671773905 1.5836100570491245 2.265284067097692 -1.307273545701071
Ni 4.312766169224298 6.534847060338144 1.564879964279753 -1.4205434954715213 2.0817834060354534 -0.01929047279849581
Ni 3.763086783235881 1.5368365189603002 10.107037839766349 1.7023975942036937 -2.070013409983719 -0.5495406477147116
Ni 3.2232968903816417 6.20456584738374 10.830928308188273 0.47760015282066776 -0.29939622138099403 0.7139925196756154
Ni 4.325060712801435 8.766845302313309 3.0967336644458747 0.03659579684616278 -0.5764973788092136 -0.30276873739765275
Ni 3.8642939059301584 4.96955851606036 13.130285605793494 0.22446167685563279 0.3646593042548623 -1.2268090724964162
Ni 5.739722526441191 2.182597205849505 8.352376180764459 0.6855733451029742 -0.6521132656723156 0.4073815257137371
Ni 6.593738295508996 6.5653605574638805 7.934198267142565 4.0999543774265845 -1.3578201483003713 0.02970241216043917
Ni 8.903580313018256 0.6762054682879991 4.979109073514352 3.131688496850542 0.09382392523069649 0.9375388838058305
Ni 4.762909896146748 -0.07319803523829535 0.4379095417541136 -0.2982453956060025 2.1981391938200785 1.367780859057509
P 1.0040482015268783 8.039693622634367 6.194988360793514 -0.6200986604389321 -0.7453486653893937 -0.21114927601744282
Ni 9.13655448507778 3.3347649425719443 9.768000014581398 1.310326216484466 -0.39688165462367775 2.4829672875789113
P 8.466278998306668 0.9683995966986068 10.72255524948306 -0.9698224264298846 0.6524176842866118 -1.0696761027944288
Ni 0.5073087116016182 4.200295238857008 13.526595203611643 0.32727366451755247 -1.3490670846980894 -0.7580285748499074
P 2.045750764236002 4.6713415470424025 11.88967051399713 -0.2767314327936266 0.018922547936115797 0.12472241458176583
P 8.427788905310267 7.460698621787171 13.362879984173029 -0.7572284475461153 0.24589953501443454 0.4486757564768338
P 7.554634877698293 3.6063220667183296 2.5220575398960556 0.5583744439562578 0.8493963252306275 -0.7068296833785892
Ni 8.8927900867066 2.404502574325984 12.306271680262983 0.5620166686945353 -0.1563806649169952 -1.0813044310619766
Ni 0.09498556363333924 2.4340596228199645 6.44459823890926 1.1520161957552417 0.31344267217173116 -0.4669401020036603
Ni 2.0119221975807813 5.469762578650748 0.8183207346943023 0.24841767345059798 2.014044350817267 0.10970280124448203
Ni 1.5760137692261187 0.5323230933902083 7.1531446712232825 -0.48245722380265293 -0.47392784617540307 0.6379169195672756
Ni 5.7694095776618175 4.116099901535326 12.32557058503365 0.48496353516427443 -1.401619919094141 -0.689455967986832
Ni 7.592261381153399 5.9129883033337975 5.835021025209387 0.3679256337109599 -1.6184379633615869 -0.035622120078983806
Ni 0.13993586355316573 8.39856614954195 9.291817670102564 -0.2733398906135744 0.9969223679704702 -0.6783873688774963
Ni 7.288092144436842 6.45757901116491 3.2811481037393215 0.15841183641441106 0.611938750335959 0.5460231214797563
Ni 7.751403290386771 8.7059111671523 6.930404499523552 -0.3054316289417966 0.6546535155956662 0.22599868232544948
Ni 9.126154266946061 6.7320054812065635 7.5934072623296975 -0.8158123186275951 0.21234098233269882 -0.41020074033008713
Ni 3.5521480733429356 1.8654091246502087 7.706116840559473 -0.3256705816964907 0.3695048052726217 1.425229588093281
Ni 7.494007177535806 3.7495572137556015 0.37013819176240376 -0.047697306075963015 -0.11119866906371818 -0.6056215498686797
Ni 3.083367526964808 4.968657782882881 6.229577443399616 0.32980311580762556 -1.2544458603770783 0.2838166217751822
Ni 8.19611476051721 4.925896171725238 11.808886819659014 0.1331288934779062 -0.3762459806511972 -0.8773634998675148
Ni 4.343010374987694 3.575975715955425 10.370877444904455 1.1270168454974268 1.5113479171496036 0.8803675768011613
Ni 3.0476353489551213 7.5303986550877715 6.226832528685566 0.5752413949149254 -0.2718612491855189 -0.49728349018220813
Ni 6.590413940070465 8.475908485987553 12.710857808813985 0.4765372587737922 -0.07342916362442838 -0.6625889683926589
Ni 0.6788343091389716 5.992577829768577 9.808976874020365 -2.199260966129348 -0.4139262688107903 1.9550300770665878
Ni 8.956732856398572 1.9592896651070528 1.0780522536703818 0.21376151682930927 0.7581453029334297 -0.4901407084898398
Ni 6.283895368365226 7.79823212970664 1.501409847358232 1.1124713435830842 -0.3497924144453589 -0.0796697452175015
Ni 1.8116901408180777 1.739993637072549 0.06425477623592278 -0.06456425703463074 -0.3243647184008736 0.3980049695948436
Ni 3.8070834202966646 1.5005564723168885 1.8790185529482848 -2.2059856864476908 -0.09514521514528129 1.5608100284354733
Ni 1.8361956547909375 3.288706833702909 2.0230550739362423 -0.5565312200999318 -0.31814727673625204 -0.5078880051709318
Ni 5.415848590728648 5.326508859795384 5.539704974177455 -1.1835242936658519 -0.47275285203069545 -0.5112448374583066
Ni 0.5980654722553286 7.235283179691237 2.881984017480379 -0.6110874580792572 -1.2529978150766419 1.571678595718861
P 2.9191647973012698 0.061318571795521776 11.454504958366162 0.04017322978477597 0.10843884693039389 1.2339256289365395
Ni 6.99571601220893 8.910507601166705 9.087994752311703 -1.1806935090852761 1.081731491297066 1.0163871615633011
P 4.180126244408712 6.453335350730808 3.6514720136826484 0.0313142367322493 -0.1728462666721862 1.6397938033295434
Ni 1.3224527368112238 1.2563556362205395 3.0476427776823583 -0.2754047435624031 -0.21940071739295763 -0.6623246589876787
P 4.527586389098544 1.4295285540226845 4.18495398852182 0.17260381164407693 0.6416175083473143 -0.4888628702186807
P 2.0566152778200286 7.62300702600529 9.776019325633676 -0.47155188974405887 0.19081673510767783 0.12223615782480238
P 5.565453871371597 8.355303099295813 7.601357857655033 -0.083421756060766 2.917266463619099 -1.3152768756215218
Ni 4.49104633700184 6.684015903255924 7.885515960377081 -4.0972935427649695 -0.8650147484941748 -0.4292204759656995
Ni 3.853698683708471 4.435488743178566 1.7294104865326216 0.6045198321640686 -2.678064138119181 1.269449789985078
Ni 8.828763743833214 5.837726010514538 1.3882935463122335 -0.9088831677423509 0.15996606827540838 -1.460092718519053
Ni 5.759817233617118 7.576846772136746 4.822936797993947 0.005168174464500777 0.39561178677231873 0.3180128080409168
Ni 0.3501103431316103 8.733573890200859 11.695022074343893 0.5820255077162945 0.6405075631125873 0.5952479199438393
Ni 7.737047275001383 3.3902389632138026 5.007908391830164 -0.011161415933458197 0.11116498761230532 0.30690384261194886
Ni 6.433714224916237 0.9268544396260131 1.770645494243073 -0.3206592445248284 -0.12185666299819657 0.099789398785512
Ni 4.057060091819736 1.6302434780557893 12.741926603300685 0.08521844294987259 0.3966227445353363 -1.070426607807208
Ni 1.117475580525924 3.3965440954561563 4.387308804092479 0.2990807470231042 -0.8945294701238401 0.8165561387721549
Ni 0.9944094279369471 5.747039822769578 5.534173358158648 -0.5612983024712721 0.48731069524021237 -0.1817998763210482
Ni 8.463697515591832 1.463282833405536 8.464990114131059 0.318840960369167 -0.4048104225524512 0.7213157928099061
Ni 2.2384705205803486 2.580804843476691 11.44016658620796 -1.308736760510159 0.833899258036293 0.4412840919984529
Ni 4.509896732365578 7.420091341528241 13.089281817218295 -0.8250839737375081 -2.569988588065477 -2.8168782549073232
Ni 5.779596219885473 3.347495923874252 3.6090957677504223 -0.7344253336086706 -0.45683078148380035 -0.24923579847651917
Ni 8.789465776749795 8.916599157500997 1.6311897121875947 0.8201348572623489 0.15716793670498094 -1.6612586580715392
Ni 6.559974730217098 6.173922347531357 12.918335660405424 0.274804648084559 0.03705473876045231 0.5437415245344313
Ni 5.003572800896504 8.239479955762855 10.598497361807953 -0.8358995762957734 -0.8955067464354448 0.09794154694349584
Ni 8.506988423565106 7.723183412795441 5.060708999257629 0.44633373860721837 -0.3108628272596969 -2.466718686930532
Ni 2.2364090487720976 4.3390081481887925 9.435758546227346 0.24330632036596164 -1.9444834118989933 -0.2611790868813244
Ni 4.59989576284112 4.497500043788932 8.24267059411112 -0.5030059944882821 -1.9570152258174165 -1.207745628107062
Ni 0.7800943615148123 6.567440601090224 12.457741571442405 0.9224506220141404 -1.4670516663353896 -0.46003566157434317
Ni 6.7904417068341525 4.054265033196836 7.223083352386371 0.1511826656558235 0.259154857362444 0.31369078362679526
Ni 2.188270896276719 8.748180625130495 4.280429848152798 -0.31570987093935304 -0.8799217475129942 0.8372969708639322
Ni 8.97254675950421 4.873950796520927 3.532632806891491 -0.03138777028266207 0.5904366145981251 0.3722576854274105
Ni 6.951970094692393 2.9551755525823418 10.287307049261582 -0.40209482339350106 1.0247129078201773 0.4099590566329262
P 7.419524901076424 8.772890429102368 3.159183259963221 -0.7221861112300014 -1.2855083861098378 1.728580166136333
Ni 7.015736432112486 1.3109382095939648 13.050575362541116 -0.4573701989270381 1.5947750725270082 0.6050931881690353
P 7.769872963479616 5.286477305897317 9.637500491800957 -0.2512500006930705 -0.1374635162975181 -0.27461515778157225
Ni 1.6119130935986368 1.2466982908125157 9.435513398228526 -1.1724515807914582 0.01591281457551453 0.12863897602735266
P 7.288807159433397 1.8587232701369616 6.707269676689359 -0.8919858777663798 0.33538266677793205 -0.26088623823125395
P 1.9941118240302147 8.517750792149625 2.1550765572093518 0.9650296330269316 1.4412876699974082 -1.4297868684466601
P 1.9570517610269242 3.104567257317229 7.34689609206266 -0.8795450808998659 1.5172617115308773 0.0825925752912513
Ni 3.49776050405948 3.5825129959239326 4.0928897718744075 -0.49301777292731863 -0.3203532832486354 -0.028094444243370972
