# total energy = -340856.97385172034 ev
CRYSTAL
PRIMVEC
9.41786005172521 0.00000000000000 0.00000000000000

0.00000000000000 9.41786005172521 0.00000000000000

0.00000000000000 0.00000000000000 13.78399015758335

PRIMCOORD
 96 1
Ni 7.0448888394649 7.825309218953959 1.067407057451291 -0.43578604499835916 0.21177713940942883 0.613998203968149
Ni 6.21062655485747 0.5268576863554262 4.901490345252296 1.643943820942175 1.9540736266905896 0.48897137077208697
Ni 4.80044330089572 6.810374709789797 10.444983957505242 -0.1529083900976786 0.2975673957023714 0.8877841809802066
Ni 4.3496291826158195 9.195297046810197 0.732050250979709 0.15782562489363788 0.15205786917192524 -1.0325357462987057
Ni 1.4418931882863169 6.943157116692704 6.6770884473815855 0.8250520920583082 0.3177197022805302 1.2554491048306122
Ni 3.66402781672336 1.882065124865368 5.072687260951306 1.7023518285674233 0.898718311394207 1.2466726441895626
Ni 2.1645161614938573 9.179701070795499 8.380720914777356 0.8702019491220692 -2.233199527858322 -0.7742928592275697
Ni 6.475466193450038 3.133887064402521 0.13041475692096513 0.22677926924521588 2.006144636354216 0.8109102533402872
Ni 1.1219213977673974 4.784056224648394 2.9936485378070814 -2.0132545079261197 0.03253756761638913 1.8811067474145602
Ni 9.10779571036542 8.178318862045074 6.147686997063858 -0.19950089314523706 2.8652900705518074 1.2680482816518612
Ni 5.829203228411075 7.977012106420589 12.97655179121939 -0.7446608952937499 -0.15290581899451733 -1.8499503764164138
Ni 8.492809458095062 6.549528243800024 2.438318777364921 0.3113752481197411 -0.6074336633767539 0.29049814756041586
Ni 1.844421938796078 1.6648892752887297 3.829178466358701 -1.165590849115883 -0.29800988255642874 -0.01763159703883415
Ni 7.403709302121878 4.955301171432956 9.081499161918417 0.7016013451001142 -1.1148017914884736 0.7103266407882541
Ni 7.94521741135681 4.580734047002685 3.576077248360769 1.9668885190670706 0.9393599961749693 -0.39153941647515794
Ni 4.321903003034136 9.043358712845759 4.621648055819501 -2.4617160915096186 -2.630263987916767 0.7295222398800985
Ni 2.9605890241570867 3.5768466875156006 9.106254948483775 -0.5428737772174973 -2.1323505774600435 -1.626959884789669
Ni 2.213809240274608 5.139505093456783 5.482899101577486 -0.9478286957676129 -0.8310332493424074 -0.41692674620001097
Ni 1.9709603045771584 7.998277634102465 10.66788492412254 2.722963312624717 -2.821093578540251 -0.3405942928858586
Ni 0.8867122300307702 1.7900903049622696 8.273743444034032 1.4873952629887481 -0.7959448902797067 1.1577435851573221
Ni 4.855886242199175 0.9123853161515817 2.837737750531655 0.28344895402311826 1.9871565252874877 -0.02938899468507842
Ni 1.7697665632716197 0.4405580688354536 6.0995532568383055 -0.06880734858170084 -0.12779745396266376 -0.5897133632788554
Ni 1.9895229064642164 3.1689403389959407 6.541178369201818 -0.4550693187080034 -0.8922676706728568 0.11855125277404746
Ni 8.223976646899695 4.212533395873099 12.41190400018004 1.3824842267059545 -0.04739700122672482 -0.13223440668809483
P 6.907105548948585 5.178796405010719 1.251432981922777 0.4831874171004582 -0.047197226511092906 0.4491066733666652
P 8.493374529689797 6.470804352793471 10.050720320854477 0.19935536870630827 1.6987342864194936 -0.2581647255350328
P 6.5725266577057555 6.111494161421056 11.954399434218473 -0.3186023619957997 -0.017035358215731954 0.27181162689450605
P 5.33647021566172 1.136001098336221 6.956021913332846 0.2003778964335517 -0.020425100623571273 -0.3628546469459557
P 4.5512655633372345 9.29355357927477 10.556441504208824 0.45855856280818447 -0.39176284533987366 0.7535818519324635
P 5.175679093379762 8.28630404379901 2.4053892301817155 1.0235181161811275 -1.2443604511166182 1.3777315425123176
P 1.3804981595183157 0.39754387725820384 10.157518852259466 -2.2366144670771417 3.483201236421117 0.913862109014181
P 5.6360900109102525 4.030655685247599 5.155777271813181 -0.387694588807771 -1.0671417664083493 1.53367871943632
Ni 4.329587976722538 5.546092941588729 13.192146382116759 0.5272175587374791 1.1787353569176409 -1.2287772519663807
Ni 3.4501858895556605 1.54482097926737 7.774267243587501 0.131692932362328 0.4410506358314081 -0.4532291801754711
Ni 5.997001238467752 3.6662692673824773 3.0609834108217426 0.3425547590463391 -4.478919813891474 -1.5438214642972765
Ni 1.889768934273594 6.336279641806797 13.751514520889295 -0.036487296292756516 -2.0728773617950753 -0.42666891318843936
Ni 8.583296256132023 2.0891638643358914 13.87634260331031 0.8598414318233515 -0.326932736238366 0.07584548637540485
Ni -0.041028906707746074 2.5376894426571144 2.559314732587638 0.026137063406684022 -0.03871618562327526 -0.2672774864695784
Ni 7.557691311687274 2.8847375804237716 5.077415026627259 -0.45950704276438276 -0.8936810060806156 0.5180083814343852
Ni 4.155301061186316 3.1354786827276926 12.953559969815595 -0.886137646515719 0.05405178753908111 -1.0489987769507352
Ni 3.7512748709505055 6.710422962541017 2.111155509017002 -0.43201680776391405 -0.3888652120771045 -0.29758436498323587
Ni 0.19471802082987105 6.422528402883244 4.837132457755899 -0.8558323106639584 -1.1688029282952774 -1.7596696884522856
Ni 9.291020174958373 8.273542843617902 8.877178691122008 0.32033528552650636 -1.1577525840183867 0.021703710225678748
Ni 5.149318503485357 4.3198781631530005 9.575090141705779 0.003149087151942964 1.8976883059223255 -2.3941125334280318
Ni 3.56011115045152 7.539401827737672 6.666557396427699 0.06265906959211791 1.3712449063467094 1.1454151454989563
Ni 9.23508750493948 5.3344547936404965 7.187399895657167 -0.36472229628231384 -0.8307828238944982 -2.2753244820528296
Ni 2.26239597956194 8.629245994643922 0.2068011350972963 -1.730297920158388 1.0222410492409169 0.3180680867588845
Ni 4.721879513507676 8.61595739430773 8.523316731708833 0.04006472923136971 0.07093519355798107 0.05734588490932059
Ni 0.6539874937389961 3.355150265181079 10.21426710894676 -0.7822874473972721 -3.139356297808445 1.1427728227801028
Ni -0.2356574578684507 9.237573819956316 2.154162166306322 0.9896476886859278 0.3763771069124228 -0.280897134135542
Ni 0.5563082760870439 8.794397586065255 12.321329616045896 -0.37162982203542444 1.4074378113274986 1.1436153732860563
Ni 0.38453592914739493 6.74582469795119 11.74182326742298 0.004798192719591736 -3.4507731977993994 -0.8784261368040743
Ni 2.582810409496736 9.021358592090728 2.6509646363237636 0.6116705842762369 0.02219993313580693 -0.7235901906663796
Ni 6.541146348478116 0.8175352236172715 0.8693494634965339 3.758855376990165 -1.1609528361232393 4.360641098052523
Ni 6.093948688404522 3.9143168617514927 11.579957567325035 -0.16258088019043612 0.20902245948242712 0.8258481055970421
Ni 2.5568171161389075 1.3303198019058124 12.215344787737324 0.5883717616492964 -1.7993806338886624 -1.4417430123672719
P 1.1327896081061415 4.32534052190211 12.00698593861054 -0.30702622712242605 0.6472893619211111 1.4977467814264012
P 4.733576495518698 1.9928379931533309 0.8856244672109045 0.49430332450796166 0.24276201782671739 -0.12098325925430777
P 0.584992252021804 7.353238990852095 1.2397209313358948 -0.6406307189540128 0.685702928702303 -0.31752121311647896
P 8.67584556548977 0.838968389205585 7.0708143242313595 -0.1931880635533318 -0.7888198491991512 0.016833526617571006
P 3.330663829409212 7.433818200261363 12.560013032304154 1.0915551622557071 0.2607139743194478 -0.9383271840350808
P 7.423675165135863 1.801815540553029 3.108276136157131 -0.6054150902848283 -1.2510525184248131 0.04053369844798826
P 7.5093965260572215 7.258598916593828 5.2083223376216345 -0.32725592390573965 -0.2725467052883177 -1.3971680539703744
P 5.4556814864310645 6.311237552300107 8.41614619483731 0.36766595229167004 1.1749280673564086 -0.07315559824806755
Ni 8.78456534031686 0.5844921636604632 4.65114573485068 0.17571716046207803 1.1588028796597722 0.0006273491713537582
Ni 6.963414933363968 8.193971345219245 10.69182794937747 0.138646995082658 0.16572713912890166 -0.019925535279333426
Ni 5.655330698710992 1.1653942391223742 12.863357591147984 -1.8321861104544572 -0.6634538874961154 -4.363515848497156
Ni 8.288168780061637 0.8790526845641318 9.389984930488348 0.7562586274336782 -0.582590379080829 0.49003812147370435
Ni 0.5799169673150889 5.077130607257908 9.14668393751511 0.5745651947835073 2.846730048161433 -0.1120882707575231
Ni 9.420591091631199 1.4774738630348225 11.645679160936727 -0.3851515106709431 0.8478881161162173 -0.5065574592849663
Ni 6.593019920874825 8.783406943547652 7.07536315056898 0.8089253616997746 1.709908043648126 -0.5587629376439279
Ni 9.546978771653684 4.577277692414887 0.7561336023473317 0.06427989302499251 -0.19383058223333716 0.10336400351064778
Ni 8.407521318729664 6.450094478846419 13.502989441022729 -0.6977763149270693 -0.1348906133640193 0.5138380521067796
Ni 7.284573374231831 8.477458346438082 3.346903987041907 -1.0179246812537501 -0.16758064739787268 0.6140413985012586
Ni 5.3677563462902365 5.517613333214064 3.8205771349008377 0.33110897910324266 3.908340343228592 -0.5344217897954022
Ni 3.351976446390648 4.2614874316970095 3.5066054629320167 0.7053168462784886 -0.06534175863060361 1.3790736583625087
Ni 6.2970448374123364 4.839028272956236 7.080628676045923 0.3931119031686004 -2.1264324122033957 -1.1793380234986464
Ni 3.0347075816665465 2.5229316561746082 1.8991990374037366 -1.5170675932422002 -0.19553496651895358 0.4749902260016465
Ni 3.8882858969540153 5.1340992418671485 7.492508419662563 -0.9952622066592278 0.17332654874271441 -0.5059843603903158
Ni 3.5836746359519864 6.565774052148667 4.622337443165079 -0.5152650143612932 1.4307073233784007 -1.1742156146704166
Ni 1.7108578495204543 2.830688482387331 -0.17384615969232786 -0.73739135821553 1.7690357030482178 -0.08596971929360032
Ni 7.5838917979631715 6.831847430389742 7.442141704851815 -0.17640827299183168 -0.5446064436378879 1.4044741007134844
Ni 7.01196400121165 2.4337445228055374 8.417896033209006 -1.778745217026498 1.0615768707260622 -1.7162049324004314
Ni 4.521062486598627 4.344119734567149 1.4011016116483597 1.4532674680671036 0.33776787918065704 -0.5521492889821523
Ni 5.571897877748311 6.817212076086094 5.930451814969772 0.2439113009398122 -0.30927774216076415 -0.10406591467367883
Ni 8.903833118245679 2.988663664555524 7.041358083783795 -0.4005079385223554 1.252836092687797 -0.7343438296384578
Ni 2.6485659074041115 5.107107655358621 10.603665479166853 0.14887638612015006 1.9715807823364175 1.2634817453271014
Ni 6.218763585821659 1.4292920917237175 10.638993755269711 -0.6545591561096469 -0.7359973060814808 -0.7883210551858617
P 7.8614738010170235 -0.0927565022758157 12.659313063647005 -1.0245270170616163 0.2781069729849146 0.5465234581549426
P 7.73671541075936 2.913980035451329 10.415982599691437 1.6455726147948497 0.7774992819800094 0.2562263708617394
P 1.1732393164292838 8.790724620699475 4.153764066448636 -0.870785589539681 -0.020183416926410402 1.5284946041322192
P 0.2965015418315847 3.8789433799210564 5.05347294315832 0.09513338807073939 0.729743354751969 0.03248768821506018
P 4.413830733637673 2.7411434703415947 10.627098056414539 -1.6746685037195417 -1.2630423437968377 1.737446358277711
P 1.3310261413992317 1.20018381363825 1.1426896624459058 -0.27253822064788547 -0.6669886401222512 0.7082476467720383
P 2.4661419609037005 4.7610860643224004 1.462798011933553 0.0523142360226841 -0.174597445035338 -1.1882684932190568
P 2.273612650717438 6.42360203891324 8.567494028985248 0.38185252820469723 0.21068570611746296 0.8371079947815777
