# total energy = -340890.92747227644 ev
CRYSTAL
PRIMVEC
9.06577639941139 0.00000000000000 0.00000000000000
0.00000000000000 9.06577639941139 0.00000000000000
0.00000000000000 0.00000000000000 13.26868014326021
PRIMCOORD
 96 1
Ni 6.309979974099974 1.8997878852284755 11.564849508720084 0.30416998862055356 0.6464961765958543 -0.33625324230834347
Ni 4.6155137977448035 0.10359281627311433 5.898856976770202 0.27358234564168366 0.5702223444337793 0.32478997886375033
Ni 2.83187664256246 1.4506783772862861 5.020483852483074 -0.46096511536714807 0.7833611400774251 0.17514277601584674
Ni 3.2630359127984883 4.514031494268656 4.762341302715234 -0.2071779500745206 -1.0957239489214161 0.9487918310118305
Ni 4.904421967047811 4.787763553511 2.3412848605434613 1.0307745406332247 -1.225573143206786 0.08738639713546885
Ni 7.342553799481985 6.061242260996966 2.617724867261982 -0.528395123985348 -0.49697110114811177 -0.5136801863726765
Ni 5.017163965085096 4.382287628437374 11.459508810714771 0.5602508350433641 1.310266309780808 0.01973475942476601
Ni 5.840617521190326 7.898421892892739 12.519039722874194 -1.124828065376224 -0.4508359973529461 -1.7705907062401636
Ni 1.5877166566632244 6.742752952574231 0.33938188063081276 1.1260909912490475 -0.5735516659173283 -0.33812474829944345
Ni 2.6243882130771476 1.6146601447757052 0.31699303869185497 0.6795271389088943 -0.9276018271977766 0.9474147481586456
Ni 0.8048623679920863 0.021747891531975174 4.646121672766795 -0.9967704157736382 -0.25483283294832243 -0.9040119556929785
Ni 8.407102619000176 2.24589203922248 1.3707871274066004 0.8842730825031544 0.20526967730821422 -0.36918007494335126
Ni 7.009522495372974 0.7825451456884207 4.779232657712264 -1.711124175443414 -1.2391331412794078 0.7284935415052679
Ni 0.6071069562852259 7.448115702436806 2.5060426585114897 1.2460748627045637 -1.8524939687738742 0.8437247287671468
Ni 7.5320375966014215 3.892980466965326 3.95719789564795 0.8388776850874907 -0.7480262122215569 0.07258198513278467
Ni 7.543134107183412 3.9196157186727514 12.637131435694513 1.53611072591658 -1.5623107813507158 0.4029085775440481
Ni 7.829667043012169 8.6311542223689 7.168351275431998 -0.9765700295663633 1.261535420234008 -0.4940618979211169
Ni 6.740912599920519 0.6421235184771698 0.4699490086569134 0.7828235224064002 0.5292541295515337 0.21554251998913201
Ni 1.946639818796881 6.7598872703846595 9.174204214217664 0.45644228779613 -0.5097129741948125 -0.13465175788033584
Ni 0.28161656516812594 4.679291536261393 1.2548258720918113 -0.8112902623875253 0.18945636442504146 0.12275217822927247
Ni 6.080035615928721 2.035973981603202 6.979352497361694 0.6993727128799117 -0.4662885844625905 1.0678380211444254
Ni 3.499879326977008 4.4019875610310555 0.26863890593763595 -0.04398231911822103 0.12586424149569292 -0.49697007270684723
Ni 5.677161568744826 5.307985013254771 4.636912656876937 0.5640478401919512 1.946340005491758 0.4186964365059241
Ni 5.335671895050033 3.0711768822048033 9.250353111508913 -0.43414465274019426 -1.4769547843817146 -0.198521045730471
P 0.22410418487311684 5.6217878051543035 12.45434180803075 -0.39017261803461833 -0.563371640060533 0.18288462474479472
P 4.178788140664542 6.240255086121142 12.536873012061967 -0.35693082526235304 -0.23522817134351745 0.9471918335145624
P 2.3311466025501275 8.331439647335719 1.5865489846346619 1.3679762628977665 1.379149763016083 -0.20533472621819476
P 6.17812731894926 7.641026363118327 5.755542460239741 1.3378154230436703 -0.32053171780802864 -0.6150675257729278
P 4.759967882396308 0.91592447762182 12.85514885814545 -0.03394833192098669 0.9944960179171647 -0.8634003528192034
P 3.9477649550755958 6.066282832797283 8.175975176980108 0.0001537519690448965 1.968251203742552 0.3348252516125653
P 4.893851271509738 1.135697034426248 3.9008595334251366 -0.4766136205376824 -0.628498197356537 0.4361678538178101
P 0.00402157850830972 5.6493749634067525 3.792799102434044 0.9533917916776871 -0.6176098325788073 -0.1961360904380622
Ni 1.5291789370325752 1.2436523024085566 2.734263612547419 -0.16130201347801254 0.7294597620732791 -0.785156541414951
Ni 1.9575550138464863 6.507360062654796 4.563417312402149 -1.7050131774496702 0.7169024942335589 0.7360014198465389
Ni 6.220709271729987 5.428097487683526 9.343977199811475 -1.1970850630694223 1.133795816092473 -1.436426485250365
Ni 8.88147844638028 2.4450671515479185 10.160027642729405 -1.1179984440489006 -0.22729966052506018 0.8903884513722728
Ni 2.150601661177296 5.432394665801061 6.99775602389882 1.1205613196800703 -1.0060323006915384 0.06413462569637987
Ni 0.666453343190314 0.26129744003134825 9.372067508666293 -0.42699698595181945 -0.8287858480691275 -0.8743864195170619
Ni 1.6777307527159908 0.9493318644638429 11.4219855612876 -0.6164677485545641 1.0457342472668505 0.942630439396125
Ni 4.089526504071175 6.844334979593191 1.4822970864013263 0.16037693056058186 1.3259929764874454 -0.5528691978673124
Ni 5.424752216111014 7.698412729118328 7.813408479223164 0.22467379286643888 0.10316217191248686 1.7832130229898644
Ni 5.0971966410800436 3.085382954167205 5.06917976501584 0.3189474040400443 -1.6256792183050324 -0.5337324770378614
Ni 0.62502546377322 7.308366755850705 6.980174763301061 1.2293889174084505 0.20535375238158823 -0.6553659682816585
Ni 4.843309566857289 4.463906815340693 7.113432613827762 0.2275184614040856 0.45814255831668843 -0.18584087915964123
Ni 8.440827308023874 7.071686525651333 9.12964864186692 -0.02672353203777333 0.33160417357210636 0.7746492141257239
Ni 4.673416913012104 0.294056623845093 10.601502860180506 -0.13890359117815435 -0.25687068931395757 0.0798918885306366
Ni 8.254861032232716 7.457625702110424 4.791891201605756 -1.1943496664161302 -0.6895973786607026 0.22423130601238156
Ni 7.447390440307264 6.2490307578885975 7.105046770454935 -0.5788563659596935 -1.596002002955574 -0.847799670167469
Ni 2.3955045507703505 5.195950145793788 2.355177256634836 0.2567305641916675 1.3543910680141642 0.06973191727849927
Ni 2.6259021977725667 5.420255590907854 11.218337394778212 -1.0480752366952013 -0.39298489067243286 1.2595734114116308
Ni 1.1985047348445748 3.6937056310970755 3.6032962671837088 -1.272866271865795 -1.0902099610817226 1.0512706037040476
Ni 3.597037255005762 2.741826283403217 3.1291797210149155 -0.1008198969325554 0.46190871022734 -1.3965103657817175
Ni 1.2225109113324109 2.9652523481852118 7.9878122635141 -1.0582370077195515 0.5473544386966702 1.7771287644689975
Ni 3.6690648502458902 2.474802898859135 7.246451127851715 -0.006117682861963657 -0.8127833019932841 0.10962772503217248
Ni 3.987346135795344 6.775833971457961 5.980180619355734 0.586187609513784 -0.03745197419887099 -0.18125094579611364
Ni 0.7122944426656704 7.4609619079063165 11.27293784762311 0.3596384540015032 0.21335219720603252 -0.17370270113521052
P 0.31126165471315026 5.316914803224755 8.125315617231607 -0.07313940029815146 0.9813671938446905 -0.03033438931748324
P 8.349335490382165 1.5152267068155134 8.16018531384232 0.7852437018121187 0.6909641771012422 -1.298561362639054
P 1.815167926264177 3.2394195647052806 10.43740958363867 1.7464225936343922 -0.04665138130995192 0.015934926062701586
P 3.8873234223548994 6.217499986806764 3.6807053074250375 0.9479364249900708 1.1794663215463945 -0.8222333916625905
P 6.887986694014994 3.771227086968483 10.522978729415005 1.1931811000293258 0.12224772778902818 -0.1869233135905426
P 6.563141786193186 7.499319208782462 10.139461021890924 -0.6300740264840891 1.0731944003603324 0.06912487982211966
P 2.424224931100208 8.402451875594489 5.827790353851717 0.16064766772346525 -0.5480046706861595 0.438738956979096
P 6.99995810103964 4.007590014986182 1.5971242130610446 -0.21122075268532658 0.05567749606796217 0.4020215469534044
Ni 5.375171483780207 2.866217804396268 0.45459792910749763 -0.12377522017714812 0.3121432366340173 0.20014752559030047
Ni 1.0050138644594206 0.784413602249653 6.823365838272812 -0.2168931204797555 0.5358716348680513 0.8323429692927664
Ni 6.868730984475657 0.6671251172378023 9.328466562593558 -1.5306831271431056 -0.5559568356537007 -0.377901256866433
Ni 2.9974630525134907 1.659635462583921 9.417366474699817 -0.1952089506381025 0.21169537832889995 0.28610310381651366
Ni 6.372434109230149 2.0121219233178933 2.6061542165628033 0.2666002578968957 0.46115460567013483 0.3998499932233824
Ni 4.4205361399940895 6.8596742736330025 10.539896375164233 0.3338798569801604 0.5954024432438326 -1.7125873902525022
Ni 8.20077460892213 7.636756382330649 -0.09894751233339859 -0.09423273063334094 -1.5946801988203567 0.40031793399873633
Ni 7.738492527552136 3.795133539913507 8.316132083514075 0.3464898324346871 -0.49928535110358524 -0.5053014753906782
Ni 3.270487981179531 8.437291655142356 12.680294504756537 -0.22570609078569515 -1.076311091612443 -0.177640602737036
Ni 0.41573566447365795 4.894739717618427 10.340853623177434 -0.5363938259201085 -0.23540197791722037 -0.4129870448259726
Ni 8.306427169643143 2.3113288148603957 6.111116724490238 0.6288239561270719 0.9621304571022655 -0.4972662637910275
Ni 3.6953284051119253 2.6045432280575582 11.6605034244077 -0.6110782021078766 -0.7469388926946491 -0.40273657074255803
Ni 1.1924578618395194 3.2596725096727375 12.601040578973185 -0.4690754031791083 0.8009089191532014 -0.5783002363459072
Ni 2.7858043657833127 8.830329334694339 7.9969940820741 1.1222618473109445 -0.5787064706453905 -0.4018251146718822
Ni 5.72140255864688 7.851143867823229 3.431585925126359 -0.6865246532726499 0.05934723161006553 0.6377765373346693
Ni 3.096225623003856 8.57860898108359 3.5794251707674998 1.1075073147095893 -0.797043265550208 0.3682303094355723
Ni 3.3492333168945407 4.3802750260278955 9.172412816757694 -0.47812465786557007 -1.426397640259453 0.44060686342577027
Ni 7.454090049228908 5.873897987159681 11.3065745986136 -0.24303995407845239 0.8010318178843108 0.7298996778241752
Ni 0.6220573285080698 9.173478045510459 0.6445431742568539 -0.2562402548188103 0.9883891336884785 -0.9356743197932659
Ni 4.486888559070551 0.6169632686257002 1.7450704348662922 -0.5515265677964889 -0.8563904971602734 0.188939572689623
Ni 6.122789818465215 5.588661457387478 0.2315054849050917 -0.4822389371442598 0.6957582560557759 0.6129029140214411
Ni 7.792995976587208 9.136489676903825 11.353943281449304 0.6121035580485974 -1.13703694873759 -0.2793328749722157
Ni 9.237845059507302 4.784799044556498 5.881475163258069 -0.7498555521208119 -0.5610602183185369 -0.30523879620470007
Ni 7.910443112689896 -0.4182822411260119 2.4728048016922477 -1.242772537804208 2.1930676928344424 0.5393603647476002
P 8.524912386167633 1.5887048263147252 3.6554154169679123 1.1977417228168146 1.220706559143104 -0.9212584014782521
P 2.046580940247752 3.2641147402161814 1.4692015720747857 -0.853932008317452 -0.14311377260476 1.1792508631014789
P 4.811896650871507 0.8118928777603329 8.347127973775372 0.16439042259534914 0.5498144702013886 -0.2327807382442894
P 8.773260270876012 1.5985230623933984 12.379758570361647 -0.44687109916792717 0.24134071199915855 1.5906165702739445
P 6.443029311764432 7.620728089267773 1.2672251347739916 -0.3368469100282844 -0.20708667591229496 1.1459627904723102
P 2.02926530690494 3.1848435894572544 6.128843037513903 -0.639335397181357 0.6986517755534871 -2.6149283860009613
P 6.7699956113151485 4.174672278079392 6.248328160200605 1.065000037474998 -0.5590642709344307 -0.8021967847266894
P 2.583347442321697 8.481849947226085 10.315854744149789 0.28350603251329887 -0.5893711494480882 0.03756664539986434
