# total energy = -340867.8449255633 ev
CRYSTAL
PRIMVEC
9.26003595384250 0.00000000000000 0.00000000000000
0.00000000000000 9.26003595384250 0.00000000000000
0.00000000000000 0.00000000000000 13.55299863722333
PRIMCOORD
 96 1
Ni 8.566505589837234 8.515529091740204 7.086849069823511 0.13263009946461674 -1.0009080920910955 3.993772444851167
Ni 1.6964571125108623 3.665159282978621 0.6668911235697743 -0.07466020781805206 -0.8606652132762275 1.2255338053284184
Ni 3.9197824924561986 8.298381247893632 9.41972715749574 0.8619898456249219 0.0709462493015746 1.5000486900867005
Ni 6.727332802726656 5.60148836764307 0.1359076961435979 0.1582845668079274 -0.8003419909061378 0.23451057645120257
Ni 6.99857777679718 3.2017222620409065 12.24522897352658 1.6521176150022192 0.9257187512424508 2.6386480982154037
Ni 4.170127565308739 7.25228424271225 7.285021247929768 -0.033701763127819376 -1.0501048655307206 -0.477314760369765
Ni 2.574595584997612 1.0287344377096415 9.791065712534552 0.9486013122675792 -0.818375451369081 -0.3905983927181273
Ni 3.5020530091400914 2.5329069029934645 2.0092731661285255 0.2690466625548592 -2.1491043998796147 -0.2827886947313001
Ni 8.808201789079853 4.266394899408056 0.1426601143838077 0.6807353002843824 0.7120096849176318 -2.0400556872793643
Ni 5.422556692306297 0.9341987303395068 10.534921625193059 -0.8754338869449698 0.8857715214255519 -0.6675278004551729
Ni 6.141885547651524 8.825879197775082 7.297097260857712 -0.39363306577939305 1.1055455629975284 1.539025071349898
Ni 6.921265736359013 3.545973359816607 3.4576140964484194 -0.07318336616220944 0.24111034115590735 -0.425712462812441
Ni 2.0427361581672616 2.993741853819414 8.066108061269277 0.5413933360172289 -0.01655764724836503 -1.1526234903219377
Ni 2.9330886181181324 5.898698482615333 11.14320783302142 -0.3346396179643204 0.1401271791726103 -1.7478449279032156
Ni 6.395666093854474 8.047610213385784 10.883111942276749 -0.24623274998413724 0.04509946344179975 1.37877206796169
Ni 0.689563395675273 8.054351519582813 9.446670158197488 -0.1954146388910054 0.3467446287579706 -0.05050957871377753
Ni 5.394202462120446 8.440708000981983 1.0809665966862287 -0.353529770000604 -0.3486511017520641 0.13276405393931975
Ni 5.105530100326288 4.934386115252839 10.612879090139376 -0.17097501779140234 -1.1174171176241336 1.4548204143765202
Ni 0.10489305761927704 2.381523834711854 2.523216275335237 -0.08727635392016582 0.1730288149966375 -0.07925656893948285
Ni 7.234903155168539 0.8693812564558032 2.0722534488728197 -0.09091703599654664 -0.3315512088469838 -3.2417034300188043
Ni 3.6122844775046796 4.870834488288275 8.576378640204366 0.5382373068867504 1.048104290160924 -0.9936583525072177
Ni 3.6998103376342235 9.138405412266417 2.447210825974542 -0.8108125514201585 0.47877566118600773 -0.08781088626739715
Ni 6.507694009200137 0.9966206329139096 5.366092696884598 1.3314627413527649 1.1104322016658683 -0.437607157367498
Ni 9.105523024483936 4.1724888744848965 4.322823706693012 0.8911520690111748 0.9832443562627452 -0.27166481690399663
P 2.459817438964424 6.695487538974487 9.138272067748234 0.35534702571500093 1.1151321782446988 0.19983925032126226
P 6.77854080172331 5.91919094224998 11.623376812980302 1.018996059941058 0.188411725210611 -0.7843091058129912
P 5.458300431208122 7.538095253387067 5.5451141945704245 -0.06293160652721419 -0.27952802170215735 -0.17208110637138752
P 5.803699773445953 5.14657057981149 2.2084611701823293 0.24511843387403592 -0.4195664978157032 0.32014476678225506
P 3.541565582687781 7.345079063317217 0.436094912685016 0.22345560418862165 1.003246767526601 0.5196580012226664
P 2.7222561188132812 4.47669031662578 6.560057660687711 -0.24134456865390047 0.4934831425995113 -0.6454145134959014
P 4.560113980814001 1.012233053584499 8.413430712981178 -0.07471240121222618 -1.131240139550155 -0.7595740649601563
P 5.834230112088262 3.3632080295820743 5.2782556995459595 1.0194866264242315 -0.6835360029579711 0.12722898305370348
Ni 1.7983915886329547 1.0580980118178496 3.657154907873249 0.8903599121271827 -0.04741602739011834 0.29417302530884176
Ni 2.065589926978065 6.064906868508814 4.872411472416509 1.882582046408506 -3.205534693407731 -0.19373005209973085
Ni 7.935350797140497 8.214105660394798 5.058277062698796 -1.5627175298708311 -0.8350361998542134 -1.4894508599661964
Ni 4.777113664084815 5.194417185745615 5.876810535557758 -0.5191026429398286 -0.02924449868741415 1.2751851498069586
Ni 1.7098934247249935 8.577302791795661 0.5344207527837818 -0.45567867015722807 1.3730086831153514 0.4662849849181648
Ni 1.67862228320389 2.8678146244603715 5.2460131802500385 -0.02937793894148489 1.4516679847904677 0.3604349817608696
Ni 8.70183175572098 5.164849890845738 2.2852935407564776 -0.014350098074084962 0.6372306921335283 -1.136567208190023
Ni 2.9900841396053672 5.405749726993652 13.316458642374657 -0.4488788736265753 0.8840244568274582 -1.3576352859830747
Ni 6.973010817442792 7.0711671988830345 1.8583734717253286 1.571768841439822 -0.5568068423588217 1.5891422997212632
Ni 8.742011051859585 8.63778008681323 11.387920951987926 0.26723017817141076 0.07163504783848308 -0.31891063726483787
Ni 9.309669777807668 6.679912158447837 4.026826656434775 -0.5352070047008589 -0.9312543363486994 -1.3109049718060715
Ni 7.340912047124 3.035587956435305 1.1352868937774176 -2.219345909804681 0.016062195669185243 0.8986306367764071
Ni 0.73149839463662 1.0446061393878088 7.884782666630401 -1.1426725497568126 -0.45682486794652943 -0.6299369866855925
Ni 4.156256031403316 2.805707563109457 9.435665531433 2.002331690366029 0.5358641786688836 0.37910607580781164
Ni 7.530001981936239 8.622445467222189 13.553540565685983 0.49570508995149465 -0.4287129402016617 -0.13192330320557927
Ni 8.193715061155986 4.74651850519061 8.479827023000313 -0.3086881882058813 0.19610420875886228 -1.1550734945243268
Ni 1.7904927779378106 7.867437693227032 11.985106228677553 0.7900899741608264 -1.086536368884877 -1.3481499722004588
Ni 2.3203798171033716 3.5670121615743646 10.536521759411256 -0.7650492291421146 -0.9286804049739361 1.4168555050969727
Ni 2.165403854859609 6.704460513843883 1.9557659001968137 -0.9003069960375655 -1.5275062720770207 0.3627978255660913
Ni 3.6389348610693033 4.695856848317066 1.6433285820509338 0.8352259472675164 1.8980266630983504 3.00647037357928
Ni 0.023551975524067025 0.8314493710507407 5.469055037001017 0.05056408610079679 1.5480984944060758 -0.441732235279465
Ni 6.008198408137113 8.307326442655073 3.6239771249428485 -0.1833484517550907 1.938505339938687 -0.4346727573295224
Ni 3.0227535465601947 2.404859125393874 12.522198501842986 0.6987003694032354 -0.039813018231879826 0.8312574495380717
Ni 1.2586240910714752 4.930589500499019 9.122143863073283 -1.1351199342205356 0.508778378195685 0.21394946447039928
P 8.281916903912428 0.5288675092036202 3.5846867922587973 2.7471627926890556 -0.6914025501902415 3.7840663290381538
P 5.914227562962059 4.606469720954553 8.392789166767175 0.2940182448985323 -0.10312334825475142 0.1502257010591929
P 7.517778734436134 7.848713900465506 9.205495298980821 1.5184225646081977 0.008531691620094985 -2.2013127064520543
P 7.481516433519154 1.0193077210769843 11.962309872089856 -0.25329351348566054 -0.0917511018620678 -0.2689839276377239
P 5.430149921813939 1.428323510531274 1.4727633492265442 -3.2458058822229523 0.833387608507197 -0.11945679530745233
P -0.07305612789949452 7.249997013823973 1.0889931958779648 -1.0468881583656355 -0.7170811859032683 -0.2144981378850177
P 2.1372811255733812 0.9532003241805801 5.994545411080933 0.8662403933711598 -0.5983059900438729 0.49706160397938903
P 3.551464561155669 0.2622645911723406 11.944475042782885 -2.0406586109706852 -0.49906295068013407 -1.7634805775579434
Ni 0.7052823067596891 8.49983333074575 2.745512699189429 -0.3230071759317147 0.42998306516333695 0.13125507349396107
Ni 8.939323898626439 1.6117648233927064 0.06823072314774832 0.6581571578735503 -0.5312901861449559 1.1179740185688682
Ni 4.293156403404499 0.2181812638624902 5.7304649268519485 -1.2233640513706092 -0.8996907026098054 0.8570224743173176
Ni 4.534028459444458 6.471857669938466 3.790814267279706 -0.7219202591631244 -0.4307502823466646 -1.0683396433711922
Ni 4.259051690872007 3.934848571003677 3.8085685342736095 -0.15161281121470663 0.5009213440451115 0.37314625867995094
Ni 6.300148822669937 2.608255815802827 7.944158017365762 -1.0596601133193235 -0.9810270368964525 -1.4741013740933193
Ni 4.887659973672891 3.9258848561702666 13.461150408653559 0.8524212280998803 0.5532854594691246 1.3014299424361007
Ni 1.2073420117869413 7.862918795666387 5.780395040882683 0.18687523396142655 3.197661461307242 -2.054518142561597
Ni 4.863639440327986 7.006828468859751 12.393308986972366 0.16174167211859242 -0.41551392501288437 -0.3885451097335244
Ni 9.097985355192204 2.574502984637763 11.53095887583992 0.6151050638790825 0.08704084087059204 -1.460442388548988
Ni 6.9011344181277785 3.2786268608957374 10.043829506786357 -0.06832423829769524 0.18713620093229708 -0.5345076646409892
Ni 2.4293611806099946 8.67654259744614 7.617761194972603 -0.04532906295410258 0.8092567768972644 -0.0061107408834281856
Ni 5.623166111883787 6.521482202781697 9.070818261619621 0.4369129595139508 1.9869726914114556 0.35936617417672306
Ni 8.846945779640793 4.76412183359796 10.829496333924013 -0.8398986701528374 0.7276242515264372 0.11772335755611338
Ni 8.36011790780515 3.151208765743122 6.181319410893343 -0.9720564579667258 -0.17085391883250575 0.9225400964041531
Ni 4.785651417262919 1.5821141881689658 3.8754389581351716 0.11981032199212914 0.18585270623418315 -1.1104771959711908
Ni 6.772623638728941 6.54886412918913 6.9729089570469585 0.8695283200938122 -0.9520231934649346 0.5343022334984023
Ni 6.790421427891973 5.984168614756223 4.5576563672636015 0.912142555219913 -0.7021639024718036 -0.7594979603065823
Ni 3.991927432814776 2.6681219484453895 6.136147103351664 -0.037260169903039056 -0.14742859793002996 0.5975364588676999
Ni 1.3783378362846304 0.8414428018856756 11.7743978138549 -0.35661817911794064 0.11977072700344535 0.433626318342879
Ni 0.9817027149421899 6.637621574104669 7.539072187183477 -0.68722065089841 -1.4388034701229735 0.1602242070328015
Ni 7.519778902208878 0.8715369928330945 9.415119363589639 1.2795663095937897 -0.5655575919682582 -0.15074814922156618
Ni 8.925711645728596 6.5081755310713545 12.459664552833166 -0.103414397132609 0.2303235349530485 0.9493775283119714
Ni 5.396545251224634 0.47627420882362054 12.80156637947949 1.239614966011833 0.6046573861831973 0.9093331107955758
P 8.733278837925797 6.091983213728745 5.989422759174071 -0.2509638369112194 -0.8666373716992622 0.3581197033641317
P 1.276014438651171 4.525185125078851 12.2818357477822 -0.27700165573587776 0.5702285150813663 -0.8524947616502931
P 1.847034557661784 1.5022093376550183 1.1077012465783158 -1.010557699365718 -0.7917624767672429 0.09449601159705662
P 1.9208740846056034 4.511304331137444 3.0536126164799686 -0.7280276576124429 -0.5168608980935033 0.27709318700841956
P 0.7927933508316569 2.14392983141056 9.640478081344048 -0.9251477092303292 0.6377179161825921 1.310312332527395
P 2.767982176506858 7.7359081420971085 3.723266008784047 -0.9925082980631746 1.1592713346557584 1.2708456418913403
P 7.774124310606908 1.2949697323123193 7.189404894360192 1.2516605843224573 -0.4014222228065087 -0.24408819283730868
P 5.0979461308546306 2.865332934816411 11.791935396006755 -2.662211230247325 -1.3621352307359573 -3.5377847280939525
