# total energy = -381169.89704064786 ev
CRYSTAL
PRIMVEC
9.25914587228178 0.00000000000000 0.00000000000000

0.00000000000000 9.25914587228178 0.00000000000000

0.00000000000000 0.00000000000000 13.55169591288799

PRIMCOORD
 96 1
Ni 0.18827825065461326 3.9239612221552016 11.829357036951105 -0.24483792651913963 -0.0124348833292431 -0.3567477627172695
Ni 8.297833603168014 1.269317794354348 5.108000430859731 -0.8149101185282999 1.3798997538082298 0.6803357508531187
Ni 1.2748547636078489 2.0047717538954157 10.137942558049374 -0.4141946919808286 -0.6182045287400127 0.41177476968542637
Ni 4.198494898353019 1.366761045899233 8.657338461371475 -0.978744668620179 1.3449726029137417 -0.7541518655033206
Ni 7.761738314190697 2.586894257185696 13.269373667537499 -0.5090894816782007 0.9440987964115354 -0.8113383420166415
Ni 2.9841116166759614 8.133409690118407 7.684652220841041 -1.776941588158856 -0.8386100332484009 0.35060873969906714
Ni 3.8610453257044703 4.458408383160741 0.5330286598523011 -1.8778481312679467 0.29968187094221294 0.3989773608104419
Ni 7.6799522783777014 8.464322305755298 9.751176922461033 0.32497895494610485 -0.936912048855109 1.2421068791957512
Ni 2.962287809768769 3.6000392616795036 8.842400084737351 -0.2656432933002651 -0.22153961811283138 -0.7473163306387258
Ni 5.358091813687329 7.994124358211367 11.671750633034195 0.43769226088213653 2.351009017370338 -2.731965259013011
Ni 7.391650252213403 6.854703121812471 12.046698820699051 0.6047165215559069 0.43336432293074395 -0.27194455292794456
Ni 3.324950036727154 2.010938345070719 0.22495280168503268 0.8661195515225794 -0.3568704043380628 0.27917372368653215
Ni 0.677303745489629 6.843888439390917 11.345019447689747 -0.514758764148836 -0.9241619482782922 0.16201806570843064
Ni 3.047018253980783 6.148517322489322 2.9212170162608206 0.9713954273439592 0.8421782102156334 -0.298854232834595
Ni 6.279469423078385 9.081675859228804 1.7504591264479663 0.8944140275918983 0.5167146023236262 -1.4402543436368873
Ni 5.136427860629126 7.610425351748042 2.833944010582232 -0.9611017587274351 0.4300694542295561 -0.2756184022351059
Ni 6.807287035613178 4.020626705443742 5.470345069113441 0.34709481300853773 -0.9272043346490418 -0.013455611284273599
Ni 5.212306561352265 5.955093764453153 4.243944341961269 0.17021577102787458 -2.252862553504888 0.6233107396183265
Ni 3.629937043819225 1.9513464820012705 6.284260105171632 0.26696406899421765 0.7292903263749504 1.0614953667558493
Ni 9.045000382283794 3.389347396523303 1.5497856571651567 0.1270567191418973 0.43150772933797943 0.17115499501269232
Ni 2.4883862038612916 6.920693054704945 9.671764005744482 -2.670139998176098 -1.160868503939549 -1.346658989477229
Ni 2.6458564983333415 4.68312785436887 5.789433755424713 0.5507835189828773 -0.6253696790298842 2.263046178906109
Ni 4.339372803356385 7.839542917262881 9.366837183100817 3.7252867970061008 0.43241250054043595 0.7463724786682178
Ni 3.3800234365930772 7.109524076370317 0.5336425412260587 0.8919563100800252 -0.8537612870675424 0.5254758934560241
P 8.300092834769776 1.3932422031985838 11.16075688861581 0.30803641355449535 1.2222955008967789 0.34633788023785517
Ni 4.263558916654606 0.06518346128381168 13.311939813109726 1.7287434311870744 -0.646127480402526 0.00012084184858043704
P 5.928279277901083 5.793716110407562 6.3128541995673855 0.03805464077987639 0.8803400659973354 1.1535740271606647
Ni 2.01101241823799 5.252111629614472 12.902772599909483 -0.5964414260313082 4.0174178521842485 -1.5658478479696967
P 8.665930948774902 4.785080309971372 3.63818323916566 -0.3345928238867851 -0.8563987246903897 0.14272476469645742
P 4.576888414210565 0.41369586146427095 10.389434849652982 -2.5639349256722297 -1.153942466243677 3.066571452636235
P 5.680217499856708 7.486834272156525 0.18154222200591472 -0.1509055007350369 0.44325201435810113 1.2443622508888312
Ni 5.7661423738909665 7.892671896487943 5.410636540805542 1.3484847298320584 -0.0011436266861399658 -0.5738609696276311
Ni 0.8966251346328906 1.625674542948797 12.658557996990238 1.3154743363443084 2.091713777775288 -0.6665165855818392
Ni 2.499450883222384 0.2554163176397861 11.257014043569768 0.20536018013949148 2.088433821472435 -0.49051866065454874
Ni 4.912634304011882 9.055037296449003 7.141242206595722 0.26538258343971066 0.18651630796011104 -0.14258438246385122
Ni 1.2306330827471144 0.624446985154288 3.947513711603579 -0.11917217418749798 0.40717738012273097 0.2351836912588272
Ni 6.843629183305469 3.076777148931872 3.0013077024579036 0.3422171732012622 2.4480761321286804 -0.03565425886849989
Ni 5.972899102035899 4.425112494472466 0.48009041903296196 2.9605394153751208 -0.18668831476160105 0.8388038944267618
Ni 0.5590274156498003 8.500053349817604 2.050574896877384 0.8721076507852141 0.14377094657278466 0.2021118484055229
Ni 1.471398653815305 1.6966088597566042 1.7480600817429797 -0.45204004496337635 0.09338246681790369 -0.17325867161925645
Ni 7.9393194735768 7.657415517235527 0.7354002564947962 -0.7773997802876675 -0.20532649868807865 0.4863264769500721
Ni 3.9847567741928027 0.21196592363326003 4.503309685331185 1.064903878216766 -0.13738304076856986 0.6773609844955109
Ni 4.0030806239464445 2.619680892848983 2.7125343857668436 1.3599281957823095 0.17709835708032082 -2.5864644742333134
Ni 1.0406724452808604 5.1028912341472195 9.640296798373207 -0.7649517843323019 -0.995180702689015 0.3134961511174859
Ni 8.184344251763068 6.226497849333775 5.437062143229439 -1.1286713503817143 -0.49633526733632594 -0.513265210322445
Ni 0.3326903716513924 4.757043616159331 6.593225767260742 -0.04968836836406281 -0.5526928201904482 0.18367472474625787
Ni 8.27064875077959 5.249000556589094 0.2760345837496445 0.32091892594411825 -0.11323318299524371 -0.5200122992382915
Ni 0.7321447407932397 8.498571886472186 9.159130466585633 1.308266762852276 1.7062362512234939 0.3850918610776013
Ni 6.377097857541448 1.043709445138968 3.76867238245928 -1.3385397028042045 -2.258530807534259 0.4812441773311582
Ni 8.615107496881148 8.4672481958625 5.666059339847464 0.017131517473964047 -0.43328204762958283 1.083121172555741
Ni 6.786074332335971 4.394668422724121 11.819084940479812 -0.25011434442673053 -0.888465266207631 0.6179085947661488
Ni 5.8255120174586015 5.768614565848632 9.94632175572166 0.5568909174321957 0.21344372847857435 -0.19308444809593198
Ni 6.041722333576486 1.640794728217972 6.222952522365271 0.8703263905150753 -0.2813725311100638 -0.4476002640244679
Ni 2.2417132977032455 0.16791090739888512 6.068409043915013 -1.4339841943574594 -0.4339145390072592 -0.3828747988216245
Ni 3.071953133913354 7.505315527390617 11.612556913238828 0.9574561915550478 -1.7239053863684828 2.691098088485004
Ni 5.024808856697769 3.314052021992421 10.151222951026458 0.3043666780123919 -0.3015703462141774 0.592188050071593
P 4.939717305795309 4.78664510562997 2.4079464478634445 -0.09194470593011263 -0.069005580635436 0.14211592746786492
Ni 2.0217345092004546 4.069644623885268 2.4634133614304945 -0.35786285015831915 -0.14630091208348997 -1.1438593709760623
P 8.060382806335197 5.39630430885321 10.603158159179745 2.0723387156827857 0.5564139777957773 -2.272973208211834
Ni 1.1076716250774004 7.044765609883722 6.509435126358477 -0.1902600912732594 0.6342857505725915 -0.8741817597054234
P 2.156649524238512 5.761475764352898 7.844914147804613 -0.9677431753033526 -1.3606635312864372 -0.6046373315785393
P 8.17187218222383 2.8384467332377126 7.049198888944886 -1.3726713543805908 0.667439868727057 -1.2524979926220883
P 0.6582262012590055 7.165115988407137 13.625146164025097 0.8177226482764305 -0.4155203527707876 -0.3766601853704803
Ni 0.49383376930548883 3.1122767143464567 8.33635257606348 0.9740709172935935 0.1674855165809051 0.04924228196557971
Ni 8.701504587356757 0.7003506855713825 0.4547555439971283 -0.18200170791920914 -0.9760352401088158 1.8447750028630616
Ni 3.172859306028154 0.2717855616920668 2.426186965303907 0.16016738565293706 -1.0762725250650238 -1.7334899447331242
Ni 6.394375423807388 1.1070049665719621 10.119634448843778 1.0921172054067645 1.679833849970565 -0.2482976029329659
Ni 3.5543361174733508 5.031762475275325 10.629543947276236 0.008501866823424067 1.9579495647062282 -0.42901144527868695
Ni 0.9767287836342458 2.2090377717908645 6.028689159795167 0.6497028564586101 0.32694019243753375 1.0665784377057115
Ni 1.2477810209703304 5.611551673796573 4.277321711133542 -0.45443785577159157 0.6897627005939734 1.1970182143872288
Ni 0.5501117840541552 6.113508491807908 2.1350970103064495 -0.6194715683778945 -0.3672954563261287 -1.166122810359953
Ni 6.848323570281263 0.23866467086146936 12.669561565988333 -0.14398023437011334 0.5961524340359798 0.011564050688515569
Ni 2.75834586198013 3.26572853949406 11.58913960732072 -0.311686865822889 -1.4193605309070136 0.5509480695851995
Ni 6.5505957335817415 7.366206119255845 8.107586858093176 -1.084408781018913 -1.3603737679601602 -1.1803595227846253
Ni 5.967621388867846 2.9436121124705896 8.07118730369625 0.4916473749423532 0.40064549254148424 0.25299269441579014
Ni 2.0512341480660954 8.956353319352331 -0.011285972948314332 -1.656115937528335 0.054677336938221965 0.6263806367929019
Ni 5.777577419088413 1.9852256968818038 1.2086852032847433 -0.06011187769023195 -0.2487866267542425 -0.7448668406569687
Ni 0.2808252658428907 2.7464015637576957 3.871488716375078 0.17412410494334526 2.437568290618821 -0.5034412822534878
Ni 7.795969376615767 7.924717800478521 3.4172637214385277 -0.2314926155604852 0.9717121872534298 -0.0177354696065501
Ni 5.505747413495984 2.5676444928411675 12.496953493869881 -1.2741345970552573 -0.7442885995559956 -0.45949778679300224
Ni 7.090042833378067 5.805280783647734 2.726926802167582 -0.4690046978421729 -0.27308560851092323 -1.1185491743460476
Ni 7.383317020895426 4.912912078389148 8.087923209926522 0.12364589368813546 -0.038152856920637516 -0.5808021768321546
Ni 3.3851715217184055 6.812064754902153 5.503235407210908 0.30928082748455765 1.526390670415339 0.050430388736409926
Ni 4.243670271242367 5.834910050556099 7.947676778674141 1.5457346221595896 -0.42836506994393964 -0.3454639622733341
Ni 5.065012068234056 5.963454773208857 12.196024770429664 -1.2921477458032262 -2.41535935862195 1.903002261936071
Ni 8.889752282829871 6.7556210014417175 8.38981395862667 -0.37023474146011076 -0.944797879361089 -0.07942651885844385
Ni 2.7332257991293822 2.9932133571043744 4.380165822487067 -1.7728702463029598 -0.927182480272171 1.1659065805840887
Ni 9.129462311264453 8.894715185037022 11.90207466526096 0.4761117412005994 -0.8334683411464615 -0.11964731405170363
P 1.920680190751113 3.4981423609524547 0.17697283349989032 -2.5208499215572973 -2.3038683551287935 1.493967773999943
Ni 8.37789743784196 1.1905872766912777 2.701096562825624 -0.04516168413830287 -1.0027232909229635 -1.0414322774573872
P 7.150551351892493 9.21513718835917 7.278196085562911 -0.2350335388342081 -0.9846142400270784 -1.3978635373755022
Ni 8.348592241040405 1.0913199734023467 8.510004153925859 0.9325229186484779 0.8207460084837865 0.4427287948647795
P 1.993049675174794 7.971541301339646 4.204792969400229 0.6648373981072033 -1.2298275476077658 -0.02327876802228249
P 1.960374149262413 1.0182745713273185 8.213764261973893 -0.25669405452677724 0.2730583548174136 -0.3774739395210273
P 4.974068737117194 2.4478496630722852 4.554426652150251 -0.04851594532251644 0.551262772612141 0.7502072790332758
Ni 7.777071459815776 3.154868785527231 9.883820669007648 0.18169266131922257 0.39296226496461356 0.2264087732796746
