# total energy = -340889.99535462155 ev
CRYSTAL
PRIMVEC
9.09613638557317 0.00000000000000 0.00000000000000
0.00000000000000 9.09613638557317 0.00000000000000
0.00000000000000 0.00000000000000 13.31311505184704
PRIMCOORD
 96 1
Ni 6.470236579458569 2.181144396823373 11.235124016328333 0.7813862757392414 0.634460585587559 0.12495612785912673
Ni 4.738259406662829 0.7237286488340267 5.891133773311301 0.20444795273786726 -0.1551377936488296 0.9453727780279525
Ni 2.798053475413453 1.686514682198532 4.504305864364062 -0.06364045966878072 1.4350118642910255 1.532869079050831
Ni 3.46659222519796 4.655848409301744 4.898094899315092 2.1586848444791986 0.2561973173960168 -2.8161064097383046
Ni 4.040240078241757 2.9024771232837896 2.724622184078291 -0.4427879302374891 -0.21248213589625342 -0.34328623789572493
Ni 5.267217940718215 4.8413368263202035 2.6487776877100284 0.44614090587012195 0.1293658268910482 -0.4155303800731166
Ni 5.457845674901025 2.9341862553810016 0.48830153241025975 0.7134194207809649 0.7363217793004352 0.09883989038804913
Ni 5.570674152965803 7.885622718793763 12.628488409017702 1.110981646411435 1.1174849947475918 -0.45151631124942243
Ni 1.8087758538906225 6.825258789944566 0.26558717646241464 1.7853627223430153 -0.07107300468742599 -0.4020665412587269
Ni 0.7538696069858688 0.10917092154834454 0.26901278149620983 0.606600368842181 0.546062202247808 -0.13291883434962917
Ni 8.399372512497301 0.1806174358830438 6.576252960843026 0.8821390668792872 -0.6362284761212591 1.5443423697977532
Ni 8.819968771545778 2.315094104013145 1.2082334538382693 0.09114483573663658 0.7649291586244826 0.4831907595345679
Ni 7.111887149530123 1.1315593898144511 4.995720094709968 -1.1263925816498666 -0.1578572494625217 -1.7338871801715428
Ni 1.0976853772126103 7.9620393621525345 2.280110362749267 0.40590751227137184 -0.9897271357736117 0.6238990080216287
Ni 7.743368238911863 4.251179485394467 3.7099793707376967 1.1492700004686724 -0.4097659667855137 0.3087439811444812
Ni 8.10833252667332 3.966188430392244 12.573731486069109 -0.5924014516339797 -0.365130587464326 0.10857614383920655
Ni 8.32074550795103 7.552121967442018 8.710238437598127 0.13546859735467637 1.0715437521307867 2.5737133452152317
Ni 7.154402491877331 0.9979280474047719 0.06720498585020988 -1.308280903919663 -1.3311323545965397 0.5765187189654523
Ni 2.090883433598865 6.439600791477098 9.14280885083271 -0.17941260703579423 2.171091445673668 -1.3161453942694041
Ni 0.4829493656500763 4.7820209197206855 1.2049097255341035 -0.5361472571269411 0.35958754615890975 0.5482939197918041
Ni 6.3245164715419495 2.7350354412282876 6.969428916188964 0.44748842103695197 -2.271447258485611 0.5423636703502982
Ni 3.6090195316747664 4.5251915035517865 13.170212461141137 0.927482528011093 -0.16240913049926223 -0.0012618974315591169
Ni 6.197643558606805 5.947026803717996 4.632152063912631 -0.436523437385016 0.3331254953126392 1.3274952720645847
Ni 5.448076424220472 3.2880532565220917 9.05711232894107 0.47392527507224186 -0.44414572981696415 1.0355120553182102
P 0.40435601680912936 5.746175012025931 12.367910474966628 -0.6585662203865109 -1.8059328331848832 0.46289215718653187
P 3.9381177529246605 6.4980798535118005 12.557316598007539 0.10854760459411629 -0.8083864584771691 -0.12343454900827773
P 2.879400224795371 8.861438058186968 1.3461427092787341 -0.7665219570328992 -0.2959740830733225 -1.1338315544264148
P 6.582965000021033 8.181319926543667 5.723201809494458 -0.4943550036815034 0.12254957530016315 -0.17222894480316142
P 4.966590626945163 1.1106564679672357 12.520026076508477 2.194405694919576 -0.4929218707794026 -0.30469577921703656
P 4.431410335473113 6.57500588051872 8.245132053451748 -0.5051698349088203 -0.9634481474724246 -0.8367367274850879
P 5.032619482336346 1.3144463117727256 3.8250182099899748 0.28394826225704 -0.6861873245378892 -1.0061683120487703
P 0.4052856419669994 6.116005732854516 3.4563108620282876 0.18787642153243125 -1.0039646195292322 -0.9259514360785474
Ni 0.8219123470145507 0.04757916157799397 4.357955394182859 0.6102973580777941 -0.06562792241245471 1.2522884477144434
Ni 2.0975599978442334 6.984859602273219 4.501217725997164 0.9233119415731711 -0.5817316306249595 0.3262781333735026
Ni 6.518910006266424 5.984675712998077 9.071476947818844 -1.2910200599566863 0.08888072229280823 0.8712717851474802
Ni 0.19035939815387404 2.30940901865435 10.03780956483358 -0.2961825995397028 1.2272818983677767 0.8901506243298541
Ni 2.757320975834762 5.322022163576993 6.859462992304046 -1.70003423617784 0.8901827631193703 1.6783850333391805
Ni 0.7979767732335399 0.07860790265946548 8.832878918185356 0.49723515344277597 -0.13854260829430978 -0.09208534527303497
Ni 1.7916478287216466 1.1538813089672217 11.550990997317585 -0.23384594628401015 0.17536003423297541 -0.9089032223470089
Ni 4.433929965304131 6.974626448627388 1.4396537221011576 -0.2629768022116955 1.117130182511334 0.28105088610458695
Ni 6.041854027502688 8.162372674059876 7.773301805149817 -0.5012810413773754 0.36524345889310644 1.2140276044610319
Ni 5.617328237454213 3.166210507112408 4.813769165205167 -1.2607602326308802 0.6169896824963051 -1.1115627157258856
Ni 1.3525591240180839 7.467154955703618 6.740989451881399 -1.674258926985949 -0.13980964793219147 0.6489580078727856
Ni 5.09603774653077 4.867988506482232 6.934721697476938 1.0400855336215056 0.8651196495031552 0.3707080815521035
Ni 0.6169299997041999 7.373582998766149 11.154380340801278 0.4355731576566047 1.7746227102176921 -0.9324465568845876
Ni 4.818105293510026 0.5481986821368608 10.383005218978608 -0.03906919808731981 -0.6308988363782296 -0.67407228644191
Ni 8.313696002106125 7.4400666609860355 4.877858724278757 0.9974121631226951 -0.06460822289868874 -0.6409935016100703
Ni 7.861536149145622 6.340443806683147 7.013109473631311 -2.077007839023681 -1.2659492330309874 -2.2662199486484003
Ni 2.584439804107966 5.596734584250517 2.277993691768481 0.028609693316892663 -0.010470817624336807 0.8592161395345267
Ni 2.460677769881154 5.4833421457181455 11.146006437471186 0.2142960491765406 -0.3434240490251699 1.6697170732515374
Ni 1.4428382795157402 3.7061389818761237 3.5179108085215547 -0.939407304473137 -0.08569821079976854 -0.2874346781437437
Ni 1.7501421575341598 1.4358615427634274 2.3452387006196167 -0.1019151868792632 0.4205995670659079 -0.3609900829333912
Ni 1.37022382124493 3.411214945735015 8.164347445310108 -0.19406789505512384 1.7742558137965767 -0.21548698416084827
Ni 3.786148599181654 2.8900245123138864 6.675569128027021 -0.36394350913476026 -0.28599640303532037 0.8148111310565902
Ni 4.5452211962878915 7.3694533527615205 5.922738299837912 -1.0320912025621192 -0.6698867876056528 -0.3539673717586549
Ni 8.553724854022715 7.250275771368041 0.39773766783783515 -0.4616009491789341 -0.5132356426360902 -0.26250500478159955
P 0.5445374871657972 5.601491863678755 7.867052955977796 0.6504610747808733 0.06774162632134785 0.6977927699873013
P 8.913713555078154 1.8310522923605228 7.969417238527763 -1.1037486189981056 0.30503722171685527 -0.9448613856091727
P 2.1993548622446637 3.3311507516100405 10.468621694868395 -1.2793107419395582 0.7628082556267379 -1.555079296599283
P 4.1779464898366205 6.451325711521076 3.7525010803805072 -0.030512309656244224 0.560700520986273 -0.6284606592503822
P 7.252950035520818 4.0799720027973 10.446082378051505 -0.7722712008118505 0.8574526198762007 -0.047067642911764095
P 6.506857625305779 7.9486407529789265 10.337873827752697 1.0050532246077208 -0.09551879643461614 -0.3298403968034642
P 2.658500548094053 8.88747120106196 5.749695216880096 -0.07783963398729819 0.017571947445492318 -0.9129059157484988
P 7.258125737231463 4.172379654253289 1.5964556532059686 -0.3159135023097269 -0.5012926113416011 -1.0453208138785157
Ni 3.3132131702859726 1.6861508367355693 0.20187783589762032 -2.7277229387968895 0.6152482743251663 1.4047384101184646
Ni 1.6880610254161241 1.4738015284138783 6.827364545561464 -0.03130318098865577 -0.4877521536530051 -0.701000992511954
Ni 7.065360410953748 1.169008184089902 8.98093400436054 -0.9261931197757082 0.11276575644052192 -0.8007045164518791
Ni 2.820157087288446 1.6690410038397416 9.105172676143834 -0.012390917465185112 0.04192492236856005 0.3304947425580115
Ni 6.754227059437644 2.1668634624020817 2.664593140371366 0.026029848404858398 0.060295968676580027 -0.4770116273070495
Ni 4.3225932536375 7.19857333108102 10.414131288721421 -0.015547975036928062 -0.23818236887583497 -0.6424271487328033
Ni 7.109458481064846 6.081704201833693 11.674044442505275 1.6786953654907477 0.8290660983137077 -1.1080873555827755
Ni 7.820139631597024 4.095499107929239 8.299636103803582 1.1088129208948903 -0.546068115785079 -0.20907362443533672
Ni 3.2051419716494327 8.506161155876896 12.255055618105784 -0.15525914971804228 0.4120753316449806 0.4156257680004003
Ni 0.25945001311588883 5.0772087438224425 10.152048853680997 -0.7826417454128973 -0.7576735055033339 -0.1697329178541851
Ni 8.745316778682374 2.7304146038486596 5.711473250995851 0.7522189101466659 0.3027702800595496 0.2432029620188779
Ni 3.9501974222950267 2.7519997359389303 11.35950913591047 0.9290169623777483 0.18091541683356585 0.1747851355661119
Ni 1.4478502507680533 3.394014151473446 12.479474590047609 -0.24677499564085242 0.25140555243432827 0.9379728860194556
Ni 3.201039614054527 8.488378208874588 7.891655276569686 1.2502559906654467 0.2600123202667328 0.45481709348788124
Ni 5.78849023936851 8.191371157458017 3.4156929737704305 0.018390586692045748 0.03144510588315875 0.8867675667902342
Ni 3.418673777725753 8.854743301668451 3.444010156539171 0.35213057566023226 -1.3882383555809124 0.1214404013963844
Ni 3.546965687966453 4.576248118142049 9.102442925557956 0.1379265719768657 -0.3278866155112031 -0.0729311409420873
Ni 5.155817556095566 4.905582838942868 11.07551319824945 -0.362387220391234 -0.4385085861358448 0.2609317467572087
Ni 8.056548221157133 -0.15884128492471747 2.562535397623945 0.11819335521399643 0.8197306798453947 -0.09454743366028233
Ni 4.992732923459044 0.5296953211178853 1.5385696592758944 0.7566926296473033 -0.3488444487097928 -0.15171642667210644
Ni 6.156201560375337 5.678081333632434 0.43668732464800786 0.25908518046677315 -0.543412937550419 0.19975080437251405
Ni 8.26272125274503 0.29083532275106394 10.76348023882617 -0.17721559938447543 -1.1883019175601535 0.9533244287748615
Ni 0.3395242129910946 5.250390088056183 5.566626372190341 0.43944112525244317 -0.6523410654124056 -0.3318995933253381
Ni 7.4676279548054705 6.513497805004851 2.723916323880143 0.6183685651217027 -0.9162480927478543 -1.1877532441455352
P 8.868005468793447 1.6609363461522442 3.564173759137281 -0.5678178487573446 1.890719845024292 -0.5211854936107863
P 2.485410165226053 3.598040494829862 1.3449711268879936 -1.6076825246172957 -1.112229402775607 0.8389183085174391
P 4.739605634875792 1.3107168957773565 8.231365960360549 1.5121565290938281 0.30716995178914197 -1.1035688988871317
P 8.884651398723998 1.6625099777795582 12.379945573267781 0.5140044024813147 0.7572004225216572 -0.6424389758073452
P 6.738527127710798 7.919214751161807 1.216148911885026 -2.0962399477804157 0.3905431140001597 -0.029704211932652075
P 1.8766330327331933 3.5691147805243157 5.661495438203273 -0.7533473673241542 -1.6404746314466523 1.053530603382818
P 7.084944392997723 4.361552006584247 5.902768641603196 1.2459560777385121 1.2297074770901337 0.12769358139494782
P 2.480380001700592 8.713553069765718 10.054983070685426 0.3674445803094833 -0.8155009580347633 1.1135234389966824
