# total energy = -340859.56181718607 ev
CRYSTAL
PRIMVEC
9.33613489077709 0.00000000000000 0.00000000000000

0.00000000000000 9.33613489077709 0.00000000000000

0.00000000000000 0.00000000000000 13.66437712363173

PRIMCOORD
 96 1
Ni 2.6887974985204046 1.0418379593501677 7.7932722732636845 -0.25944230669587576 -3.6122847561850566 0.396670052833504
Ni 8.066775277089757 5.532322759786438 6.732520238335989 0.19394191100022085 1.5412447047090359 -0.9886968947368844
Ni 5.4303721673057606 6.623268788408435 5.587841952854649 0.4185912783866275 -0.8286819755014115 0.4831869028798259
Ni 0.554220039044986 0.3882898481017768 1.802632118761933 -0.16022754946691115 -0.2121260381084153 0.5195083630186795
Ni 0.3067891253802266 5.9305649276303765 3.819220439710651 -0.4432247606645915 -0.011050858497522903 -0.9174721949629425
Ni 1.0476263629525506 8.23650620852737 11.138120900783768 -0.9692038190092792 0.11935317985005252 -0.5578062301576135
Ni 6.615594485567857 4.722329036981389 3.053592029677412 0.3845737837906022 -0.7602307247075488 0.4113901326524979
Ni 0.51485609370833 0.26658399429425667 8.993920687126131 -0.5105398409714821 -1.512590531307453 0.41782560386519657
Ni 5.1569261139022275 1.3434978122478958 3.973833367997718 -0.0670037197140588 0.906760207862077 -0.8197386502651948
Ni 4.157315492444926 3.3603736861497646 0.13583702750520826 0.8595593818065584 -0.7797965626546183 0.12713230957483912
Ni 2.2699318088092664 3.95860519845603 12.604376749235941 -2.2645425609459773 0.1204484697967603 -0.8490260863754022
Ni 8.822161947200716 4.239249411823171 8.76653165412788 0.7085415238633732 2.504174260673829 -1.3182405862355362
Ni 1.8545018167201885 1.8224135212663342 11.285163157327009 -1.360886960151153 -0.61344027458215 0.3182938296164454
Ni 6.161727626331988 2.025969269238516 8.51002415016919 -1.4484674755752989 0.999601200354214 0.9632283181521348
Ni 0.32956275910166605 2.7460560135097816 4.016220353796393 3.599676837613058 -1.0788130320986904 -0.9935542228291857
Ni 3.409239015915687 5.56751065200802 10.750202630848726 -2.58154749654767 0.7288902627230543 1.2361917992628968
Ni 3.085303145283628 1.4908406923330664 1.7174212160539524 1.3334188366378714 -2.490591894003704 0.13344179673263468
Ni 0.6147639398854575 1.2155460842307078 6.155009343699286 0.2364723281632637 1.2452765351729844 1.242084767708564
Ni 5.706338977116783 7.337753851774169 9.941790449286003 0.013991429183085581 -0.9695342057655044 0.22441745388125867
Ni 7.1638403319270925 5.273674480108352 10.569409313236173 -0.03092522882394674 0.8236644676821622 -1.6742170180044198
Ni 2.005429772584899 5.2028692334624305 1.65912825732402 -1.1856462251048612 -0.380134517072326 1.6856630550578324
Ni 3.405019082966853 5.62481584767161 0.03413664343831058 1.9837153608164222 0.6954795484730925 -0.7320030973204232
Ni 1.4874983560594324 6.917739817477397 7.752169939619345 0.29094680506206017 0.9882037571505498 0.8099113797621278
Ni 9.088232454078632 2.445329774096309 12.679203069158548 0.2610068229695182 0.8813134856541983 -1.0346047130125924
P 4.088788262700588 8.61442361081907 2.3314980164149977 -0.19685985597796418 0.034178702764237914 -0.12985613626390538
P 6.176590753001332 3.1095677597394227 11.482052905021607 -0.5597582116776618 -2.368981799798675 -1.7294669396166602
P 0.49627065007725985 7.388934542981044 1.9272648508425934 0.291854147367678 -0.8200176149581943 1.0599123385394456
P 7.201586325095534 6.255322378128581 4.5714309567481735 2.0994314581345193 0.4476092628855324 -0.308207649025037
P 7.95732776833051 0.3043785353638795 7.879740753334958 -0.3183185122067937 0.2699725168032383 -0.1993204017033148
P 5.3952683002977615 9.036781014961324 6.4534528981437544 0.2808084310764777 1.4205481234572117 -1.2532472120832867
P 2.4474490767055683 1.9436899128710965 13.441633853008213 -0.3675906189690444 1.0530426080028057 -0.7580673985076428
P 7.496589513850522 0.6645423436389812 1.8124425292544875 0.6269537356875524 0.43701786052293123 -0.036677300816375547
Ni 3.7433699457958145 7.828769191548555 7.001052683971888 -1.4241258135061408 -1.277920803570567 -0.27622903923591136
Ni 4.966002156372021 7.252150831402801 12.5436115819997 0.7668158341242342 -4.504395075344442 0.2696256749867808
Ni 6.661939058926289 1.8159435798204449 6.3997654547316545 2.7598786975938276 -2.3084186935036373 -1.5898133576463587
Ni 8.425301527313476 4.055672992414053 4.906399337923678 -3.107744841550751 2.9392807631066606 -0.2862018341779071
Ni 6.606678476793218 9.05556531826454 4.587732781796755 1.5252868958281989 -0.8221680856422936 0.7428328409460756
Ni 2.2900511793949683 4.175595644466646 8.811309624059733 1.271260875051888 2.93093007714912 1.5082258265808544
Ni 8.108601161184396 2.565560518598706 9.899184997932013 -0.8390005838186003 -1.9920711889802853 2.253372660372087
Ni 8.156719600162912 7.633998746463217 8.980283394961614 0.7220822386622854 0.22147765452664436 1.5873052465125244
Ni 8.210477064586334 8.141034893627424 2.970908418671311 -0.7508156020412359 0.06431048915261181 1.066839404676582
Ni 2.7070683144072802 3.0172894029556296 6.979709346108327 -2.4484720820155186 1.6867647727624433 -1.4003356530650786
Ni 2.4124198987763097 7.6003046358164426 1.1576349734158362 1.0457051938011281 0.8060480401519796 -0.10698334543078994
Ni 3.821737461664204 0.8631153964456926 10.652338464588633 0.5164577491178137 -0.2519280005967016 -0.6169955960335761
Ni 1.2148178657129887 2.7838486873524357 1.9897385307550204 0.5210363696274317 0.456414262771672 -1.3589303506454145
Ni 1.7472669719186256 7.105694884127673 5.182720920858717 0.8655958178086254 -1.35746559317443 0.41510023451423345
Ni 8.674931100733655 0.3350019912609374 13.40469916995759 0.19369328532452448 -1.1802394522669932 0.6524971313742957
Ni 4.629910638174956 8.90318092536439 0.17531300645997486 -1.7541857825195788 1.2122193476076994 1.711794976258194
Ni 4.598139771305749 4.1222863145156685 4.591736116417241 0.8721809272253108 0.35953432432347115 0.6101603182792976
Ni 7.317251699659923 4.3617021564180956 12.577457871644409 2.6746682250637552 -1.3148019928676324 2.488664337963688
Ni 3.5101159528894716 6.437180948726669 3.2026704972298137 0.02752468778283002 -0.15001332793807068 -0.38263002980067
Ni 8.028263720864228 6.110920380518815 1.4416738054117297 0.24243651616649858 -1.2164701524642534 1.3148547004824387
Ni 6.784214416959205 0.8993564046775147 12.147166620112953 0.42751969122450884 1.5996835655722192 0.5636274648250809
Ni 8.752346330848106 8.43501110754973 5.978670296020115 -0.03820993541081807 -0.5694103900554451 0.4361727389138166
Ni 2.113616903140403 9.02989094744752 3.982564521302473 -0.8885100034026375 0.7120089135866834 -1.7366122924121896
Ni 4.857422908153129 9.065582990950599 8.582526706129489 -0.36664882388106534 1.1677009534803502 0.45672742313671666
P 5.252360084262803 8.897709950346654 11.52970080280406 0.7690601500737206 1.726958828482826 -1.3190455986353349
P 2.4010298142683952 7.057417730856831 12.43810859021143 -0.20641818909036064 -0.22555208170633415 0.7466002784083077
P 6.602766636294189 2.9106147262446194 4.532377904701774 -0.9033146725156378 0.019768955096811116 -0.022668902352425475
P 0.5185662736947606 6.712186136648909 9.696337862594381 0.3566120084703536 -0.9754958226655781 0.8429855366082772
P 9.161773188233422 3.433839731225814 6.687209175104627 1.1502521618762835 -1.4138557990387006 2.0038843795651293
P 8.596068769718611 3.8148100496110295 2.3013273630578035 0.9480068732166899 0.5593861730502238 0.7826265759042457
P 1.8115369241747599 8.795143172966368 6.436139969691725 -0.7047895130201088 -0.05266904825894155 -0.026463079287535073
P 2.6167505459404232 4.824195604248484 4.324953262450839 -1.9399520996875432 0.637347934437683 1.108302042696743
Ni 5.82923985618415 1.4376714044047272 0.44243196128070983 0.17621441181347072 0.27136168384128107 1.4458236101945485
Ni 5.960776659980878 4.104211557460486 6.981540162150951 1.561013402695531 1.7446171649945375 -0.2106682226159662
Ni 5.823003318109325 7.10828099347906 2.932840328850801 0.8504147391928129 -0.29822174145691865 -0.7465244308650498
Ni 4.47621918639685 8.296668261452782 4.443067505184429 -1.7316829734313726 0.6597579267017669 -0.031707101295293784
Ni 6.640335242900622 0.411600309576663 10.005343386386231 1.3254489310585174 -1.2920937526368392 -1.276209991527047
Ni 0.003773665703359899 5.515825809519647 11.814562148279585 0.21503524133541027 -0.9601401661451142 -2.339056215883836
Ni 7.928581809150289 7.98570961825187 11.646817946336467 -0.38870040436446607 -0.5121647781694147 -0.26748857403911996
Ni 1.177183906162658 5.071976622969839 6.5187274185089485 0.7384532238211411 -0.9742434383157157 -1.3190440559734378
Ni 8.607748274406646 0.949111468093932 4.360084204249881 -1.6082957327212624 -1.3969127434264588 -1.107524798211086
Ni 3.448478790658937 0.765624675579302 5.532350768190967 -0.46328553597020855 0.3590638124449558 0.8155919750866729
Ni 4.440228386578808 3.338209702033544 2.457442475441037 0.3291089179540784 -1.1149293182052735 -0.36255897008240784
Ni 4.6497499247153815 2.6037733185092744 6.367134729843448 -0.7330371950118924 -1.630627306338927 -0.5925870852822246
Ni 0.1360741653302091 4.269134379454183 0.3818684545570689 -0.09692467564320727 0.941426906006327 -0.17116425098407295
Ni 6.999281619192255 8.121036892794676 0.7491781404406607 -0.8856920743378683 0.7475119915892997 -0.4965442980233384
Ni 7.073447874381495 3.301836120686958 0.9502374059559439 -0.3524211103174576 -0.2845069629739874 0.15290967564925922
Ni 4.882462421800856 4.623879495066667 9.336568039209634 1.0108955423211106 -0.45764453563434726 -1.528498203676645
Ni 3.840568445641633 5.2151929314546 6.6150613922683466 -1.4153220991715818 0.16612206057447518 0.8870547590133497
Ni 5.078539925764153 4.8284995624109 11.963544453643106 0.8884017599595474 1.7280623459596496 1.6588176527302143
Ni 3.914491961324967 3.1238333737788437 11.11524643680603 0.11937323445471054 -0.3713413442607282 -0.5531890431005764
Ni 1.729752382953996 9.281481109184636 13.142875670819551 0.6755573556278688 0.23355721139899777 0.5824795645345775
Ni 3.348087332696965 7.967597516657318 10.729842387984085 0.46991178303747455 -0.420435787794534 -1.0203803418830943
Ni 6.598266619300078 7.642812057754586 7.5367647693049955 -1.1866224729752017 -0.6153171798898887 -1.543258392704955
Ni 1.0024488064494368 2.4036065874849397 8.733491072920085 -0.7438347998480286 -0.38737371513324254 -0.49955068894983
Ni 0.3781255980986894 6.907311354858265 13.49122179961095 0.3621061988157054 1.2314663687627696 0.5090593997712136
P 7.259797125838852 6.325184675155404 13.146360849956276 -0.23197444029291014 1.6075938215582313 -1.20858123663448
P 9.097167135122955 0.800004058523519 11.130277613902539 -0.7792630587486515 -0.505515391173697 -0.009700000896583294
P 4.944295642863085 5.215790444084524 1.7235970692523008 -0.7245384135122618 1.3170013145117965 -0.5633562134415653
P 0.8051267957116277 3.6414286894499788 10.601739414582449 -0.22095366370237432 0.9018992802253499 0.2307822197570219
P 6.889778093623951 5.301066699736403 8.426384518955212 -0.6277839448983317 1.1930245198468035 1.6933552814957675
P 3.0804856997048704 2.1261740045036364 3.8190701279396864 -1.0970318690995622 0.45558688177437023 0.20762609335553275
P 3.689239035978692 2.327311693551597 9.0394091369195 1.1894378309368097 1.5145587107774174 0.2670412020890562
P 3.666626917390029 6.553107735066649 8.864068122054999 0.23280773482748293 -0.11660801300474756 -0.7708954035102465
