# total energy = -381167.7650767501 ev
CRYSTAL
PRIMVEC
9.24880174624450 0.00000000000000 0.00000000000000
0.00000000000000 9.24880174624450 0.00000000000000
0.00000000000000 0.00000000000000 13.53655623883371
PRIMCOORD
 96 1
Ni 8.715635889681126 4.6974478110615285 13.05927079734048 0.5113201707809323 0.010462332983904563 0.8164826052217422
Ni 8.871293219814667 0.5788020246159364 12.684443691930197 -2.5890880278990895 0.8499815083101362 -1.1683234175556976
Ni 2.523738977314306 7.688510233235466 10.76900671666462 3.208012208413946 0.044175923186265856 -0.44198317494800654
Ni 0.3952762056435125 3.818062510620217 4.863481371657151 -0.05319869551016644 0.3834759227407331 -0.651899864109929
Ni 9.074507887532683 5.527509252821784 2.753592968144836 -0.33893464579524857 -0.5010396147905306 -0.6958731843670855
Ni 8.55989532033361 4.4316280056326445 7.689251062239845 -1.349141903800083 1.2206808481114912 1.7418527148755227
Ni 2.550921205077971 5.023449568194451 5.149576399850073 0.7220148757594598 0.5814845476111599 1.8377949720008027
Ni 4.836938236080784 4.136415508868978 8.439690496312242 1.9685422526204097 -0.10783052392243365 -0.07630288562779762
Ni 0.7305323136101612 6.198417317461541 9.777088473089986 1.4205036433725213 -0.451257658271397 -0.5420255702845891
Ni 3.813512100256242 5.65492074301309 12.651157255141687 -0.2064906941995089 -0.5868607243214087 1.4891341000567258
Ni 6.201423177966199 1.4641685250214405 5.583585661516536 -0.711780085405329 0.3426331776927583 5.153129397242196
Ni 4.868874347842587 2.680820622886978 3.8849239468056833 0.7324273293420354 0.09123636700917835 -1.5049361000859889
Ni 6.771796769727073 6.374597738240735 7.15118630894335 -1.3850915824218146 -0.7430133323879978 -0.017114805303415685
Ni 6.131733458265888 0.7297359917964655 3.722769333581303 0.20070956874135756 -1.9735718446245174 -4.385022098000048
Ni 1.2117779794472148 1.862995345581071 8.269198088488016 -1.5610661103103372 -0.9423555884681835 1.5506271743652003
Ni 7.529671315367763 2.7101023286031274 4.27049908450047 0.8760249835617493 0.4636285211319241 -0.6214690584238974
Ni 4.840267804639791 1.5595699130385219 7.875514526471896 0.35157650292897513 -0.471604083138233 -0.42306602632852947
Ni 7.411249660285774 3.1135720475422612 11.557701043719689 -1.2725325426754601 -1.8644421422746857 0.379152869885347
Ni 5.573762509387312 4.396445564525812 11.31727844735478 -1.6364040609217043 0.6971106563186124 -2.656345515495167
Ni 5.1252511268860665 2.216373555310266 10.162989168599431 -0.3192942458565017 -0.24335311444349703 0.4874194529039348
Ni 2.625318564768655 2.742214167594432 4.146626185783264 -1.5753861264774351 -0.08566838600309762 0.2381934246194285
Ni 5.266489575398801 7.521550867604409 13.112821358331162 0.244012859514683 -0.5004472326221704 0.9054700282957439
Ni 7.814737876828014 7.5079736269249056 3.5031528411895625 -1.1219913672583772 0.4986793420884702 0.39409277902463097
Ni 1.915223327949705 4.678931710352833 1.0379708011464681 -0.4114112156984205 0.9628035719098901 0.23096322541957642
P 1.3665566734332408 3.9898127554556226 9.203247505626969 -1.9134067450988466 2.338017747316993 -0.0053512370095843325
Ni 4.149669041494133 6.682083394664962 6.2766982489242436 0.2482505517451144 0.8365981450246948 0.6448990073120635
P 8.394794963814665 7.4470702686997505 5.678192577480233 -1.2572298508801185 -0.11848131876806046 0.6828775434383658
Ni 0.8545411697101932 2.8007868278282837 0.294570629935903 0.5429388261274778 -1.144928435670525 -0.7028781549300088
P 7.967010145593233 0.3775120325010589 2.5718919377187786 -0.6039477617106824 0.02316538237286978 0.5145816151410234
P 3.6329107523348116 0.3926883909690404 1.0448343367787973 -0.22387083734916927 1.2656666687935623 -0.5310014512599436
P 4.624215800366497 6.519748429810302 10.940880895440834 -0.2758953100455765 -0.47064994675507976 0.11618146699029024
Ni 0.889045673663206 8.567026146330814 9.015860312006254 0.42440865639935293 -0.09875710086625573 2.5953442932214466
Ni 5.2176836496047 8.426629338759385 11.078331034837543 -1.6913953295559194 2.622726027668509 -1.0776393235055635
Ni 6.431746083035455 5.264908030333273 13.095900675890324 -0.1462248074299159 0.11167226626602704 0.8652746870237809
Ni 3.3305951759785986 3.3704575106711454 13.178703346432187 0.7766904129254688 -0.67909905023254 -0.6114096173053664
Ni 8.889753827714047 1.2534068352363457 9.906484756094521 -1.2683465296185703 -0.15747904018749653 0.8994929847767025
Ni 6.3050929945714795 4.487962455890719 3.197753714395647 1.457537299087051 0.4134835248464169 -0.8286282394453407
Ni 4.077713365413387 0.134944639056057 5.817091079200109 0.2742965980998889 0.16160694631294106 -0.6191504375930499
Ni 3.5347994654627612 6.069563014228 2.1298417679823154 -0.6168073912821699 1.1992265348924573 0.23701585937155953
Ni 3.5716929348568613 0.7978154951464351 12.175035425364882 1.7501200970906376 0.22274726526768732 1.1470804490165212
Ni 6.733247764855023 6.603866279932973 1.3923839517694212 -0.528754821317612 -0.8688323224680521 1.4121177333016712
Ni 2.0184029580726874 3.447980965286674 11.255740621343103 -0.34289568732552556 -1.1101943746234493 -0.1621695036846304
Ni 6.040882480612781 8.133682798376153 5.281449511910446 0.5139450099982891 -0.9312247686623446 -0.19267949934802944
Ni 3.029731661466174 2.863354970332942 8.955487834990228 2.316893820854184 -1.002428899610996 0.6719704096075589
Ni 6.672011449773968 0.7847413892714039 11.63079802191205 0.5072956230025715 0.47758061243664207 1.831323762454162
Ni 1.2230892637462831 3.6795154633593463 7.003597633284467 2.0689386888623016 0.3878231439658353 -1.166344696562772
Ni 3.5178556610180407 7.152671666472728 8.828853244129357 1.3759860205761203 -0.9713411770672562 -0.5953525638425037
Ni 7.825142778574908 0.48250535260854427 7.584477863609316 -0.8551409410238886 -0.8649856950284522 -0.2218221823502567
Ni 3.2714120948422627 7.756784886298199 4.167594143783605 0.4335520134615179 -1.2643775176684935 0.04902116709370912
Ni 1.473667044216161 5.600010608194145 12.024021918490998 -0.3189183505743217 0.714179695985757 0.4845603861885848
Ni 2.933534876515552 7.766024439049441 13.762887248671694 0.6959919693331369 -0.324283471540977 -1.9250576990742134
Ni 1.716753295428275 7.538642652873974 2.0771300732924702 0.4217046272046286 1.009852188658261 2.5021628866707557
Ni 1.6687797617739266 0.8615045923992927 11.005599384306517 -0.8093405948603223 0.6650366586022031 -0.36442044877117885
Ni 8.805737714408457 7.8727556089686965 1.3261181384039549 -0.4623776794439585 0.4237615097336572 -0.4612232541245411
Ni 1.5849116292931804 0.2898084220163688 4.42461278965485 0.18794018489083117 0.6562013196987602 2.041914080644341
Ni 4.727460172100349 4.431933216083887 1.3792266066804149 0.9054078075992406 -0.3847910420077309 -0.8716402242304924
P 5.098383358375196 6.306952003683591 3.518543771853569 0.6973163445715151 1.3650392917566299 0.1250772268180233
Ni 3.2862286749298404 5.14971420699321 10.254320159053126 -1.0565817315043158 -0.8192637675113053 -1.2834849279219056
P 2.0982941058857314 7.408169809368694 6.1477755045592115 1.4985898461529867 1.3764997269877455 -0.31550546823803083
Ni 2.9771892198447447 5.074502952765879 7.629352123863322 -0.8222022813143388 0.7382853307847091 0.10808891979014289
P 0.12721541559838612 2.703766899539463 11.836594955023605 0.6101736880157362 -1.291453547949679 -0.022001958192387917
P 1.897345394548152 4.942365324981097 3.240110450866983 -0.9168016512584791 -0.8237652549260844 -1.1551544842739074
P 0.9421199213739206 6.617397276604712 0.4323546510686681 -0.19528402685041207 -1.4194937140507682 -2.7230859542455104
Ni 8.37992289091777 0.36545991919761167 5.236725082241595 -0.38394566328830004 -0.5943547187056086 -1.283729439832544
Ni 5.236218247916502 4.911289351763704 5.146814707706409 0.8640323299762473 2.557819299692795 0.26988664195765133
Ni 8.394369518943236 7.2548154308217985 8.38172733210072 -0.4095952455356043 0.7748243062510075 0.3987472470775068
Ni 7.314035507164345 2.6507897642450526 8.793563516924513 -0.9247815841401621 0.25732963122824715 0.160565135311988
Ni 7.971431072735468 7.074639527771796 12.51566971143448 -0.534553173166944 0.25647371098585503 -0.0867806452306699
Ni 6.854166596356267 8.816799281065599 0.752982854499416 -0.7256630140350083 2.1688802969549617 -0.50687267653254
Ni 3.0979878169258015 2.614007280469586 1.8290864644480582 -0.7093779037217396 -0.7375656790098652 0.24750287494581247
Ni 3.524459305326737 0.6250007132523031 3.201544798152138 -0.1991561082113086 1.5829873358634607 0.5550829176891795
Ni 8.642459371795411 2.3414081035025034 6.6560054738067 0.0027485092794146213 -0.2882702866711616 -1.335008035501862
Ni 0.726263066813391 0.13148188775469052 7.027584400111642 0.09067715207159867 -0.9770359134591882 -3.510341801391651
Ni 0.6019110801757502 6.110636941923963 6.7855645357185645 0.006624704405369236 0.21384044969636073 -0.4382062244040776
Ni 7.799431110258138 2.1224242291369735 1.230848083368923 -0.22291567252475158 0.027778455664848933 -0.6733428644750532
Ni 7.7679851849786345 5.24898159405936 5.44392875806933 0.5532420078256989 0.05329202655492112 -1.76019470771782
Ni 0.29580442006304586 2.954270689596918 2.5372107816561074 0.7713677151609747 0.9184330162143151 1.2832165047518673
Ni 6.460186147810301 6.872321993804404 9.97672570436738 1.896012203771483 -0.6403903208084326 -1.015191598593303
Ni 2.8540599247723835 9.023288024533302 7.790693767431212 1.0820940168428073 0.7288411546526739 -0.24693826069159402
Ni 8.271730410353172 4.899016192103145 10.622703624421575 0.002645408042647057 1.1024764371539013 -0.8755747833982082
Ni 0.784566586922056 7.995829411231742 11.79682418346643 -1.9068817994961353 -0.10437573260461379 1.7920643027329073
Ni 5.605726367553771 8.35301812720069 7.65023869241 -0.7527094766298391 0.364062808321444 0.1286086370100495
Ni 4.841618129666499 8.32356994305659 2.249328885003186 1.4871422664376774 -1.7651381677660247 -0.48934083829636366
Ni 0.8416770116304105 7.301003945776457 4.235331441476121 0.21486580563708157 -0.9433760593128979 0.9361006086974072
Ni 5.344882417360291 2.228674461375484 0.9246008414726161 -0.029568714796052303 -1.439762234491817 0.2557838840076821
Ni 2.7736693416754887 1.9596638194108853 6.516863728605984 -1.589825698941533 -1.2010946984494475 -0.0711827907924129
Ni 6.5994546015922895 3.546258730586675 6.594684994631513 -0.24136333770697788 0.20216944111633567 0.455380422190519
Ni 0.7960212276451928 0.6272907165167753 2.369113813434056 0.15987942209887304 0.590512462141383 -0.0988620018752362
P 3.4485636397844996 0.5974614817487005 9.806070517635824 0.7013133815460502 -0.08476695723475079 -0.1951475012725478
Ni 4.36801474855252 3.220747159936051 5.954812208482315 -0.8814520681145916 -0.929598031692199 1.954706375178582
P 7.4529617552888805 4.3826740990137 1.3802412002107565 0.19644590836899717 -0.2647927723745117 -0.10410216722825298
Ni 1.4436731807804466 0.49526684899109097 0.1633514081453119 2.973888325878201 -0.5523079260472037 0.7331786056857631
P 6.802105092415583 4.8804723449897915 8.922431693360384 0.11791027675593886 0.1563400414870469 0.22313498762440928
P 8.263868929033297 8.366271659825845 10.534418264319214 -0.47054710262862837 0.14386170651437805 -0.28815664391143275
P 5.291017397116813 2.505370857430455 12.343024182608763 0.0734186221014671 -0.3727235693202355 0.11708289575863708
Ni 6.550371211751606 0.4358285009318979 9.387127553698866 -0.3178595702925042 -1.1426177852594774 0.3349959728624747
