# total energy = -381172.4911760228 ev
CRYSTAL
PRIMVEC
9.15553482238315 0.00000000000000 0.00000000000000

0.00000000000000 9.15553482238315 0.00000000000000

0.00000000000000 0.00000000000000 13.40005066820028

PRIMCOORD
 96 1
Ni 5.859935831347758 4.809145969885928 6.265046264070469 -1.347350359117299 1.1921796553480049 0.26600067663968385
Ni 4.6116793996546965 1.0922186555223041 4.517505570769383 -0.20802538567648043 1.3844596052647704 0.3899530458246445
Ni 8.03774453534269 0.3915474237677538 10.770450964760354 -0.5261649491032486 -1.4308207090278133 -0.4703542698915319
Ni 7.255999213607074 4.172570804752057 12.487439639104577 0.2895560953621206 0.6717184414977528 0.34175308908065016
Ni 7.923794751723536 1.2311813596659262 3.6297382428238874 0.3601542172956571 0.2791837509888611 0.5230495434027186
Ni 3.218564099536257 8.95914838185145 2.8525889994569704 0.7709501680075819 1.2699400993579355 0.7407497331648017
Ni 4.855326486403285 8.860076341955672 0.9915608770339783 -0.4318028919808951 -0.10581323638208874 -1.1982112062540655
Ni 4.3472767159701755 6.0232247909209224 8.500536667146022 1.4457444202171812 0.9247481597990655 1.5638030496255262
Ni 1.8796587197784973 1.187024216294949 10.859776022522038 -0.5517762219134497 -1.4100454241536748 1.54167279338539
Ni 5.6482964935572735 5.442260342941378 4.105963374990872 -0.3508411674248474 0.4341719064337039 1.5873312146544534
Ni 8.78237331981396 5.983590481641852 11.546729516786908 0.07058500930741392 -1.6823015947847673 0.5684230864415113
Ni 2.534609042852561 3.3402136877531703 11.86723182317334 1.377486516381047 0.060834614788869416 0.8656333559147802
Ni 5.013067192009455 7.92980078242048 4.688034727103437 -0.8039081109908413 -0.22134678537573493 0.22234025963725576
Ni 8.293733282730729 5.11968339241481 5.1939128047296625 -0.1224942965821955 -0.9358774369430076 -0.10370801711362784
Ni 3.3281192265478916 4.108308107401677 7.1486185260627035 1.2387217647736022 0.24848246525026238 1.1622684696108692
Ni 0.9382317191017231 7.835480464981582 11.451990791416835 1.1391910189661156 2.139445279523296 0.2592695285634373
Ni 3.7819682321549206 2.1418732306938573 1.9344042389132179 -0.07059426527879455 0.11108194098019579 0.3250378332084983
Ni 0.807876133034621 0.6199505454090068 5.075765208496867 0.858141161302793 -0.6377233154992307 -0.45351251574384477
Ni 3.110217503091691 6.44559706857659 6.853803903100683 -1.2832363022462094 0.736701531237357 -2.0047582975296505
Ni 3.9176532549121004 0.21691841904026743 11.140908614579311 -0.21345529844280012 0.20370490392425564 -1.8701163098413276
Ni 7.626276499394431 2.0161585851149884 12.42452646755409 -1.1872305388728457 -0.1978628433211818 0.2859292972428108
Ni 3.531610138545265 0.11410176549349742 6.31137052248103 0.8554952390395137 -1.0075641639550326 -0.07485972542336784
Ni 7.386035271516672 8.796555242907809 8.414642188198584 3.4377914408277506 2.7063704412630423 -2.9130472833314283
Ni 7.5045994445737225 7.976136943026019 2.666958704355326 -0.375421942088005 0.6177507290320458 -0.923131964351881
P 0.757978469470071 8.776815910312367 8.931133361531971 -0.37273668194635806 -0.235283192951169 0.7998578521808677
Ni 2.305473478443388 7.710635595189618 4.579199225111283 1.506309840505064 -0.9808974532971234 0.5990312982456716
P 5.3223045286252795 2.8465655732442885 7.060740958321121 -0.9490437991216366 -0.8045380312653564 -1.2085989772462926
Ni 0.8065183672535893 5.907865054973523 3.3073737007000172 0.4372181494591954 -1.019232087211264 0.2328820397088441
P 3.1054566251002114 5.6244188593230815 4.089346995247148 -0.4322016700812105 0.03534701204072622 0.49109972996899937
P 4.478411438031653 3.6873457820742557 0.2212416624779152 -0.08442114385955785 -0.2411188257963396 0.3487490607825091
P 5.065015695324182 7.461211366109061 7.007247916319544 0.7475904102357189 0.9018445157280145 -0.5208697621425804
Ni 7.493942402300486 5.761184235162943 3.033342141277728 1.9660925055283365 0.08299649559788932 -0.49897270495917284
Ni 4.134053470694065 3.6632941926826823 4.5984285944295635 -1.073745644878112 -0.41086279939411824 1.0535635135032824
Ni 4.32563303217814 4.828116237575057 2.447385180281348 -2.234459111297036 -1.582028057273985 -1.2297383303280691
Ni 4.772606231301319 6.427359243655381 0.2514329533715776 -2.1660004043040053 -1.168902172877303 -0.6741445344407423
Ni 3.2004178299610393 8.239093052243899 8.890906689164344 0.3906099626823531 -0.6743396811706838 0.9401323555646196
Ni 0.35008292312234274 3.0360485173051925 11.005997234495746 -1.970886841593186 1.4204486217648697 2.7440175621918548
Ni 6.085299315502143 1.8430732035208934 0.7628904137824345 -0.6722288054752681 0.6479755893548582 0.8898297506553257
Ni 1.302933284318289 6.722423812711954 9.4217894473339 1.6388502084693515 -0.8694887251051283 -0.3024288375597307
Ni 7.75968179403646 4.165823175752594 7.233132350392612 0.9828437783902172 -0.6560614516867863 1.3267136567035538
Ni 6.9244956168464835 2.7528495210889243 5.379557748686667 -0.3784458165159934 0.15774540647500573 -0.19329245034168002
Ni 0.9508388902445462 1.649506891028835 2.79362918774633 0.3309274592200559 -0.34216189448329465 -1.0358496411632871
Ni 1.654102969397533 4.976252787386876 5.635431136338759 0.6575154105244934 0.4312333926306702 -0.6467864541427635
Ni 2.4363976232090883 4.954572481456444 0.6073214009831462 0.7436005723500355 -1.0966248634691307 0.23292934800701173
Ni 5.506541351360957 4.145708466238592 8.706066516698593 0.11639178322888342 -0.26829255799765406 0.6444012417400385
Ni 5.787936707261222 2.7952396462822944 3.1609245159147927 0.7373646187426527 0.44842121726386647 -0.23692612787123069
Ni 2.138476527357628 3.7986313051251 2.6295986298706464 -0.5286674038101282 -0.1193737486753428 0.7841594676090043
Ni 8.572665799823863 3.2903434907924174 1.0629401714281619 -0.7008855499800123 0.49480854627915427 0.9753204734299783
Ni 4.05462005251314 2.565948437784938 9.92414447524643 0.07831066008644577 0.17017129094318434 0.33531324699257736
Ni 7.0017042401198495 1.9634043947555502 8.135947715005024 0.17623009554275457 1.0248748873193383 1.324832637630757
Ni 8.886563303550579 2.0526342349574045 6.584355604298654 -2.091771884706733 -2.6788771209387803 -0.8146656066176614
Ni 3.077944243630216 6.719924351766426 2.1270037269516213 -0.13669218534913233 0.39264447661387863 0.8902300714175378
Ni 7.027715113915609 7.141271209547006 5.560056366645572 -0.3208973286775635 0.4199465068629412 -0.2992805217387362
Ni 5.766000046362017 8.634081125913957 12.082597463545618 1.6672593557396642 -0.07031298659294986 0.6457508137893976
Ni 8.270395825037879 7.238411431642396 9.768382280667105 -0.5725823600255235 -0.20116311133900838 0.42401990560136654
Ni 3.5489415655411722 1.1906498079961532 13.174259462564303 -0.5000600244860807 0.40909439463978575 0.009812615215047615
P 7.7961025106712825 3.621123800319688 3.4446307287478453 0.8805318702931674 -0.38065053747679606 -0.04747130610808598
Ni 5.2277278562176095 7.110801590401533 2.4943118728685225 1.657795639223603 0.4389593005200182 0.7174198001896097
P 6.600453780784076 7.227168435154824 0.6815361644426403 1.5674013084997458 1.163047770979055 1.01870038307751
Ni 1.127128708948291 6.909855917022682 1.2621078399878882 -0.7545979519018037 1.7238650200488503 -0.7422759400013409
P 6.88615223794587 5.2651007484507275 9.95701467556376 0.9382929883630357 0.9497971323478933 0.4265897232110718
P 8.168549658158604 9.037574691226485 5.982573301747903 -0.5743481936766947 -0.08267665036462535 0.128977590313694
P 2.6038523510247984 1.7350195841834952 4.1526483614646335 0.19033928125062705 0.27498513952648124 -1.500699436296822
Ni 5.8831725781600195 0.5310539666665565 2.8125234644982866 -0.05670259489836686 -1.2110353546019272 -0.43412922612122656
Ni 1.795629223228875 0.0038260979089221004 1.0944562681782997 -0.2110019518063011 -0.1397993635195463 -1.4578278337442763
Ni 0.059860716315181806 1.686330451186013 9.286167597765454 -1.2169776882282912 -0.20366530893557183 -2.4251223515459848
Ni 6.543021112244548 6.332242394706371 12.065190961166 0.6457140470141911 1.5852136540908182 -0.9802299949164537
Ni 9.073464386854566 4.597634809579831 9.201118174661502 -0.7291872251381829 0.8887522013204306 0.9325964521988908
Ni 1.7248203186402091 8.317061584888982 7.058999575640392 -2.6312965429463397 -0.25507168843200584 -0.542537219813685
Ni 3.1288215493968594 4.920367404194581 9.996839419962491 -0.5643386319594926 -1.0508967653043966 -0.6104675651070712
Ni 6.07716920077823 0.6927754987163727 6.534199754658411 0.2933235328243529 -1.846613341623381 -2.218240592555644
Ni 2.0286558898426232 5.7208541052543485 11.860692940362734 -0.042175347816469304 1.286508802349894 -1.0959772025828027
Ni 5.007198494331496 4.781148345082186 11.699972108244589 -1.3851388907199822 -1.405845012919082 -0.7212486870173965
Ni 2.547820479278918 2.2490112965713553 6.162455752228295 -0.3894663359962131 -0.5648744498583046 0.18111776265235904
Ni 0.4899547718516455 8.360120064108079 3.0229973027343178 1.0772976238954286 0.8680136832214987 -0.04864192937741945
Ni 3.8768195706005604 6.987494850422201 11.268785797430464 0.5540789019046973 0.42403070423464395 0.11589915986318106
Ni 0.9194994953121691 3.4075068670558206 7.507699508588943 2.6507777915994026 2.3067266505131947 1.2428638119664337
Ni 4.528345723734598 0.9700380462986491 8.202773962043125 1.5466021123662073 0.5074414045518164 0.9962502816041099
Ni 0.6756738756389006 3.1742055344041025 4.6358545887633555 -1.0278648231855976 -0.367755940902315 -0.3852307006483107
Ni 0.4345024454458821 6.0916441009792495 7.253085006944213 -0.1527734071817111 -0.16321054335463506 0.4999312122177003
Ni 8.359543265428341 8.112572719620317 13.053605080958299 -0.6893418110064709 -0.8568155005128341 -0.02527137297227906
Ni 7.013890256671119 3.100970413146701 10.278589095051737 0.46222392747491364 -0.6196271201191522 0.4099181760926618
Ni 5.267362165496681 2.3041367703919344 11.976308115725447 0.052714042564264055 -0.05317838379519228 -0.4002194607476591
Ni 0.2195744396274373 7.199143343747285 5.142336016119656 -0.8783418046203841 1.2243721809201495 0.9061133183066975
Ni 7.2807832457665675 6.460108590916005 7.769054314805458 -1.2539722631747694 -0.7803336661050109 0.5117027509313317
Ni 1.3954957391141791 2.22516112894096 0.44794643245105376 0.3395095444621121 0.3852921500138655 -0.7185492858083625
Ni 2.304557924983488 1.2815367999604261 8.540736788463311 -0.15512750923618446 -0.786112220460001 -2.1449230148084157
Ni 6.249284095704832 4.559859073824357 1.5550895249231877 1.7760036497256186 -0.4793305052482133 -2.477130626292476
P 0.6196694704968176 4.4648887134289295 12.788954282286147 -0.6689869014992027 -1.9253243224720389 0.6956546405983761
Ni 5.805680133314084 7.871003939225702 9.339058205590415 -3.4374595114096285 -1.6960297430041373 1.8242102913378326
P 0.1291150111289376 0.9013101947243358 12.439400549063626 3.2282511611686404 -1.089711681289065 0.7602237827290134
Ni 8.668679891163578 5.749840527794782 0.7322514172468809 -3.1864478519796093 -1.0569992786577087 -0.3233455331077399
P 2.6973028926767912 7.363915499925487 13.303904579146522 0.6484437872405283 0.5129181113956714 -1.0935621653834071
P 1.9064844361535673 2.9961761641265476 9.602556322456556 0.5556426468473914 2.563929269245275 -0.4653835561498178
P 5.966048477350168 0.7444932825592039 10.13993859463794 -0.7861124775703171 1.0118383658503542 -0.04330509054553832
Ni 8.31452550180506 0.8608756917213122 1.0960410912173866 0.36381186865290244 -0.06954474096835764 0.8710128750591386
