# total energy = -340858.4349452079 ev
CRYSTAL
PRIMVEC
9.36251390520915 0.00000000000000 0.00000000000000
0.00000000000000 9.36251390520915 0.00000000000000
0.00000000000000 0.00000000000000 13.70298547767874
PRIMCOORD
 96 1
Ni 3.434666274048671 2.1119115997509432 5.054619905068203 -1.9470159485128595 -3.0378645716198456 -1.4461077170938708
Ni 5.977993147061354 4.026545671280829 1.9343131392802462 2.400503267445724 3.80459273112628 0.5298403410723068
Ni 1.1320964433312994 1.7488988522916362 4.846033396431493 0.7165803350074498 0.5194785382220086 -1.1514677794509396
Ni 9.093425788166481 4.0844060065476 9.559311964726795 -0.7771586108111389 0.0830772282371537 0.9448153628625857
Ni 8.587316379830582 3.7804988086900937 4.487042784899469 1.4238990422073154 -1.2030916742748183 -0.05425104803408077
Ni 7.07624410301573 3.8975676812104347 13.018890951738468 -0.8772069196849925 1.576007305001202 -0.0010839770927981332
Ni 0.8360827808562223 6.218310151208194 2.0546804254113447 0.39025977843178594 0.12750357687132882 -0.12602673521548619
Ni 7.959690904920669 6.966094128191529 9.425968234472762 1.129152660893507 -0.1695799372160886 0.7601163106168716
Ni 0.13376504337490921 8.327094671350869 3.2463327552580905 0.15259317285010493 -0.15484263100591397 0.25323797765737677
Ni 2.380259970206638 8.3340416565884 8.337594730574443 -0.9251520801057034 -0.7598437736817754 1.530329086237797
Ni 6.623529110865333 4.8371053032744715 4.445385216010152 -1.4942601084293814 0.4058141812266173 -0.11435649796640951
Ni 1.8940927162588026 2.9437896756608377 6.723890577514549 2.44894285100435 -1.320589803194003 0.4421842352152191
Ni 4.457258756007778 9.395001720088482 9.262862009108769 0.619910712797842 0.6049330084420873 -1.7816017126386865
Ni 9.183961296585522 5.837068589385716 5.971268053400816 -0.9889828014084194 2.3345025350748823 -2.644857826570542
Ni 1.03953863193206 2.2216870740232557 10.9855186714782 0.6573526596943841 -0.9358694665232076 -1.2851057513547801
Ni 8.498728274281362 0.9054168767814771 4.583223889138229 -1.591593332364917 -0.6317205609485766 -1.3199593686988558
Ni 4.6859756055598725 2.5520433733578867 1.6562520970113233 -2.9795684069821133 -3.8722410264028726 0.3665773472131816
Ni 4.536662235521933 8.926361091969028 2.8689663378962775 -0.8413230613041898 -0.09003283361938043 -0.5298956197902744
Ni 4.649171563823032 3.6605930944891973 13.067002101388203 1.747061512769972 -1.061698998126223 -1.712567335647844
Ni 9.200813821420505 3.5834647058277636 12.348787751730605 0.49652655741152546 2.015042195954162 -0.06589968801660263
Ni 5.862197576417433 7.587708869243634 6.717464148044143 -0.9285130261581364 2.141468737711228 0.6778199264098004
Ni 0.7624550361035662 8.415860664662238 11.98269848223753 -0.9501336897517056 0.1633447549396542 -0.2940627249832226
Ni 4.104582223780593 7.251697611575486 0.8051883578281818 -2.230762379171739 0.6498717779363067 -0.7107814689374856
Ni 5.1154996510345745 1.0440981761513024 12.177692493343448 -0.7996861024896936 -0.27843401730703016 1.4508953682905013
P 7.1664893735070585 8.655849980826176 8.370591974201336 -0.42893354085290003 0.7087299857250956 -0.6857998592914833
P 2.8033238811612637 7.177443514649797 3.347900113684387 -0.05005577900581056 0.5771195857742447 -0.05279168987973488
P 0.4149466114924427 7.785744761082265 7.0030891652098335 1.8965454505671338 0.23638285377325094 -0.258568902951987
P 0.3168836419804426 2.281588437297819 8.470431948832047 0.8503532898272582 -0.7468545605109589 0.5894927626276171
P 3.1505233428170794 4.318440763936512 0.46532910698938046 -2.6549386078453114 1.3194410343015404 1.9575029640871124
P 5.5508846301463315 5.596068121731677 0.3944707938179397 0.5244474521915098 -0.17659236397817973 0.07228013762164971
P 1.9932042873160902 0.38249801117406484 13.076388957721289 0.5667446702978239 0.34730795746060833 -0.16957942299545634
P 0.01787678384439689 8.003582369602 1.0178260261849454 0.6976454457761598 2.111444423434996 0.5275363755294785
Ni 5.91506769183029 7.859277944445569 13.698353856789408 3.2452785489645724 0.6947593824776163 -2.221859420255154
Ni 0.9381894200772385 0.8710517698888098 1.3236356868460455 -0.5399463191580572 0.43905751666077936 0.7046077360266059
Ni -0.3244232743413376 9.304391311559062 9.496347186937784 0.5616729122018713 0.5567729037970928 -0.040966672220348804
Ni 3.852374827111291 0.1434458826412266 6.467439153340972 1.0439858971171765 -0.2958997781919614 0.6938998626907985
Ni 8.725825408946541 2.50256248793962 0.6350153070500537 -0.40477237022566415 0.20895123992485948 1.1666334314477844
Ni 8.706491817955296 6.48558183257721 11.846120939717942 0.8601887878604412 -1.1468415935328378 -2.9443463505550262
Ni 1.6286092750250545 4.7082396633696435 11.328874821220259 0.42335193300006446 0.4214943109660354 -0.7453396665283293
Ni 7.102964717392974 8.765147966894832 3.420388440507922 -0.21620380772221473 -0.1677426268970337 0.6827821555110821
Ni 7.986205543994375 5.20380688116988 2.357050298503349 0.18508677460243608 -0.751765624659331 0.32755648586529396
Ni 1.2786946843680473 5.94200364402487 13.152234681992503 0.07742080128232473 -0.056492792880405936 1.6857139629004259
Ni 1.3790608322741618 0.5949034891886575 7.073042123297085 -1.1479965330728876 -0.8647807781064977 -1.2862234098989913
Ni 7.778236025016901 2.3061275859603123 11.155723554803238 -0.7920550683069972 -1.4011296097212838 -0.5251642757528762
Ni 2.42847691626228 2.757616088803274 1.918102882891753 -0.3635154204584062 0.027398446617610876 -0.4856255942283056
Ni 6.127652930109789 1.8243981635523552 5.353701663314626 1.0151458329570322 0.7010812109305861 -0.3773476983558082
Ni 6.088395909758078 6.9512077312539615 2.395323318654973 0.26853784123924074 -1.2455490721080806 -0.5492143747235445
Ni 2.782651450697019 5.199481399795569 7.238944931532304 1.2777441687833864 -0.04442172064848479 -1.2295856068002888
Ni 4.475796533326257 4.131518175975171 8.577424884003829 -0.49418993885854895 0.2707389626556176 0.3381311760573467
Ni 4.884788586043673 4.904346877366049 10.860876461547294 -1.3788147482741673 0.30716018159712905 0.6230633994942109
Ni 4.943191947110683 6.60708853663743 4.570301747595317 -0.4606552974362131 1.9082717378651264 -0.9873370382748803
Ni 1.7685975813209704 2.7124606847593196 13.329619677148624 0.9062909815351424 -0.4786113676940016 -0.48903641968206746
Ni 0.9593767888003296 5.969520072074876 8.271382096749178 -0.9814157876944387 2.7239696424020443 1.8552201094557856
Ni 0.29518133499850485 4.223121010967096 7.252154502248791 -2.478769190337163 -2.6842188448666677 0.6109316492276834
Ni 3.6748896530575403 4.6976225727236045 4.646037930455105 -3.0932317355362406 3.0398060116169323 1.4043239482888654
Ni 5.164240897862862 2.3188137921555345 10.276910260976539 -0.12159081093131963 0.7364927576606607 -0.7035592401574334
P 4.716572300649162 3.279463882832285 3.9798950737834597 4.840312274469606 -2.6235348967230494 -3.730001171762634
P 5.519819809367182 9.241390956217622 4.8254929774117885 -0.18069250218948235 -1.330697066831334 0.7698247961538871
P 7.008347152958349 7.770362150913446 11.588217389654416 1.1526993378651953 -1.5451365835642743 2.0535915169822694
P 9.002609404333525 2.200658868034717 2.908828176639288 0.11417857762764852 -0.07240715011781723 -0.6514766605295812
P 6.771129140878384 4.1498499779901135 10.68762969748954 1.6034178358036708 -0.5455479816155507 -0.21238751929991811
P 2.6950089590413167 1.0266558129470962 3.1482604232322933 -0.24701667933801333 -1.1978011152998405 0.21636347322853058
P 1.4658794227157101 4.361676852652038 5.139880573213895 -0.12422696300258607 0.2429070280450139 2.7920354848320303
P 5.089247162347192 0.3599221816548472 0.6565537700405402 -0.24714343472386469 -0.15568209618807383 0.7324730949783063
Ni 8.038813509020908 0.23397296479785065 12.583136153331722 -0.37515480446954746 0.11830442687056399 -1.2269188586014033
Ni 2.595532249945937 1.4349175895883295 8.780023128815841 -1.663653897776593 0.45065781990386905 1.2460177842143831
Ni 8.078866343045382 6.683140236212184 0.15254811855487624 -2.258734696014949 0.2862092903770748 1.6865757966800887
Ni 6.618885304021917 3.6244350662043643 8.51096507981432 1.479663184451813 0.41606902618540603 0.4043818196554649
Ni 4.56726829312502 3.2316027123009365 6.403789039542005 1.4619390276991726 1.7135538679308293 1.7908671971010124
Ni 6.481312526285682 1.51605313415497 7.7135064133771145 -0.44897888953954934 -2.076104353372805 0.944995854304508
Ni 2.205602275319645 8.832061853003507 4.9745676033479 -0.4501556834564699 0.597586595379345 -1.277015518147478
Ni 7.71990756406027 0.19426748003525363 1.1445214353915796 0.22971624038635274 -1.1095271733530956 1.1151128949709892
Ni 1.9655755091005171 6.517470554570514 5.243227745513042 0.5820391345630492 0.2596675353328044 0.2593309779289921
Ni 2.8524677160828307 7.42174894967425 12.16982704550241 1.3635789051610194 0.0008870305906436336 -0.05263459547658032
Ni 2.7755827527801245 0.25288711517097867 10.905849296572201 -0.23097556671475059 -0.09275640319813057 1.0394157612479904
Ni 5.2902322460319455 5.501431832269457 6.576076145935544 -0.6815081738946651 -1.6505309872413898 0.8132023918085736
Ni 2.3402539487511502 3.8301950319256957 9.266973088917124 -1.294412630578003 -0.6379827398082044 -0.3599094482747027
Ni 3.1309744140085 6.114208360296993 9.597269468163454 -0.5557426627603655 0.6277453783509124 -0.23788977733608063
Ni 6.334583210055773 -0.021798740874049063 10.598492012380422 0.9504933870839695 1.3514499831079694 -1.8049265034075561
Ni 7.530681797704814 5.532590278186579 7.532421352768336 -0.38357516732275876 0.8004222093247698 0.1395435387549984
Ni 2.151589933223528 8.276537096845923 1.4542156030271431 0.34691277890471867 -0.16982650600925592 0.2627816554817539
Ni 5.664255309716774 6.550454690678094 9.191030930753797 -0.6778739195761874 -0.03946977595984816 -0.5256628126558495
Ni 7.934234229906049 8.254104513787803 6.178977294494727 0.3300833660522057 0.7601651615769359 -0.9472000610446784
Ni 3.909776399201999 5.683223762669925 2.2378889041493313 -0.5300820247694678 -2.548243997299534 1.451304430803462
Ni 6.781970931855555 1.923865510133937 2.9975005448126844 0.27884230848904235 0.18332993981232942 -0.5010193030755564
Ni 6.42328366577056 1.9348571013318643 14.000066481412848 0.7251271961361964 0.14647060489213484 -0.3551333670422981
Ni 1.2235120280472789 4.134027329672825 3.1997430141004033 -0.7956353294590878 -0.1838855552054833 -1.752934169500665
Ni 8.532470774006516 1.4076539494108478 6.717573689455571 0.36568183198210563 0.9973851665395016 1.0741853035186921
P 8.910060955448081 4.788036368463282 0.4969144835356555 1.3212148383725117 -1.2119709790423192 -0.695674438092718
P 7.346464976230868 3.716403039234379 6.2708834749336795 -0.3721959789515396 -0.34743882661151776 1.0130508981012165
P 4.316390373414923 7.758106620352895 10.495061513708482 -0.7282184334670104 -1.0059145441667516 1.4374053042238664
P 0.8206964256818841 7.196870730779012 10.105472334584407 0.08748667015875901 0.08681818333682467 0.36373345000648327
P 4.423113668189345 1.8461285580756845 8.005133738138198 0.4658954627892299 1.2508419450759038 -0.13993717464899125
P 3.283527213820275 3.2361903440615705 11.254179749894721 -0.09859537847741084 -0.39249046753451755 -0.1351729204911285
P 3.7268047920630822 7.209631837084612 7.230366060139919 0.9146475810299538 -0.9579030492844793 -0.8031681475010232
P 7.910584520054292 6.643302740005046 3.8855640022710287 0.08586173296082632 1.4190751384561109 0.5977478035475576
