# total energy = -340866.9863062645 ev
CRYSTAL
PRIMVEC
9.30687187320769 0.00000000000000 0.00000000000000
0.00000000000000 9.30687187320769 0.00000000000000
0.00000000000000 0.00000000000000 13.62154773946522
PRIMCOORD
 96 1
Ni 5.413165193846163 2.872714913276149 1.7586776967488618 -1.2163302844522792 -1.0184977801484008 -1.1521892309979962
Ni 0.6078848511370575 0.33349034773169145 11.58693821418912 -2.716484646878909 -0.7485669152163753 0.524982241649057
Ni 7.938324283930304 1.9605670148345689 7.645638985234683 -0.3888472143549755 0.14530255272596268 -0.265611154510749
Ni 1.0658881148969357 1.4927757139267945 6.941526663063151 -2.930024020395083 -1.2847188003290069 1.6411436324892188
Ni 5.763689909165374 6.298555835655433 10.569517495940561 -0.05163520767778849 -0.18844180711759803 -0.2385019569987828
Ni 0.510611287704157 2.878317650143158 2.0064405862921904 0.00450765806236643 -1.819482289734544 -0.7003926695039938
Ni 6.298732666221003 7.835846317746521 4.5334284766992 0.33064129543820475 -0.6516054727979617 -0.5048903559951885
Ni 6.456772657481272 0.3904121067886924 6.04766769853745 0.08285817024781214 0.431754812351779 -0.7622832363612033
Ni 1.7550433632828033 5.261909912180661 7.66859066195849 1.6851838014285687 2.54777605652418 -0.5546789973825414
Ni 4.236506689927396 3.900966038322279 5.912092634602075 0.656670803136011 0.47503856274107864 0.03608363309643463
Ni 5.5823362038654745 7.47009556004454 6.917158480440411 0.3902988591998375 -0.3081251166135597 0.3466731520900868
Ni 7.46007205903828 1.428130181903131 2.305882673966961 0.6452409640325146 0.22396082595981429 0.10014421102176947
Ni 2.5650483429279967 3.167054043103443 7.878962263068437 0.6796654642589715 -0.6914737697478092 0.659667938091122
Ni 5.903730410224987 0.55594040715726 8.310805771370193 -0.2640147565579066 -0.9545277050543431 0.2858027989672755
Ni 7.397771858726388 6.298825734939723 2.886991654727963 1.0880047259002874 -1.3458403502306757 0.7076141269530974
Ni 8.221355564432987 4.327630272427207 5.656824683581079 0.6259995993043993 -0.09902912358071977 0.35082754057809257
Ni 7.356365585767378 3.830252425838001 2.4414167876660984 0.3515189102181624 1.762563465060313 -1.1098688729632304
Ni 4.711585271511032 5.4272837184761515 8.633009675582578 -1.2524604545159332 0.06598684841377023 -1.5673645417245392
Ni 5.480593480559587 2.241234349881736 4.141059134755803 -0.2668781941486307 -0.37987740675619736 0.6093655902921441
Ni -0.047547877707413574 7.738459210476781 13.240498515891266 1.4287414579012814 -0.5901869604811641 -0.023044026303657088
Ni 4.628307381999407 1.244598668585157 12.222055903111153 0.3355711286396543 1.6640552469800698 1.0829021145663995
Ni 2.402001254600533 5.437995928000948 12.437753826993506 -0.1301980929843564 0.10440221496717504 0.40988192353808767
Ni 1.1712325976173283 7.420899435328576 5.244077945673702 -1.2235373437236798 -2.005094083602515 0.9265399615921656
Ni 8.307918779715465 9.202653520884331 4.074232071965318 -0.045633481568398825 0.18747584365990294 0.8571458872690593
P 3.4956610751638393 3.7857004301862194 10.017217937059668 0.831686309545374 -0.42259937110475604 -2.0616025602122043
P 6.055897765333956 9.080258848894236 2.3508069444936273 0.28375182997551773 -1.1667776703351325 0.552122549509275
P 8.785947639682558 2.7056379494280627 9.431982289310573 0.36778216615456016 -1.0947240469019923 0.1725102234890061
P 8.02510155726584 -0.04829335814436944 12.679345329798439 -0.3990120707031193 1.5201236064597046 -1.020695816240984
P 7.555979373680355 2.753661408288141 4.1475432323891015 -0.1615339269831605 -0.4122005443689353 1.2788913950139522
P 7.063748227236425 7.669709347957517 9.371597443229962 -1.4611473850358125 1.291149129335383 -2.833592225227894
P 4.251965404106968 6.686680313337961 12.070898343600307 -0.21951230327015747 -0.4017983751990048 -0.07322501803342227
P 1.6541475653172786 6.832007117620931 0.6194765600537682 0.7632800530568339 -0.9956897811149495 0.3882412053398604
Ni 9.376021930117963 4.572354468304293 3.4885469023047997 -1.5469381555493873 -3.189861248536532 2.165136770752129
Ni 4.210382300582388 8.154504303775633 0.09707160431327572 -0.4364720153217903 1.299247590072801 0.4737185583780745
Ni 3.5533078395396775 8.753894772955018 5.792263867187121 0.0564673389591092 -0.9912140047317832 1.1415548912126017
Ni 5.987119982199076 6.959976605862418 1.2604780533733484 -0.12993198380716334 2.8416207519593253 -1.0557075564294784
Ni 1.4123364203361632 4.027604643886055 9.947326121361698 -1.140103503478056 1.294924537217415 -0.6989862760747704
Ni 0.06074688339643742 2.064766752314692 4.982884309331735 -0.9231180803948101 1.164599174626575 -0.7430696395472298
Ni 2.35157662279745 7.84542308890292 12.19387376439522 -0.6315166724678867 -0.5459686140927371 0.499324688981953
Ni 2.2208150729943306 0.7341632807593831 13.496897251844723 -0.8162218953611878 -0.11064691032530621 0.5983237306556857
Ni 2.5480353811457825 3.184262449194971 13.407635043719335 0.6144358057261998 -1.1699570965043784 0.5858117142316039
Ni 1.509760755093392 2.4250078418683843 11.555226909659284 0.11123337895639554 0.7830328102037288 0.5208497075379224
Ni 4.3899770070984605 4.26800114434261 11.820547212989345 0.4370142609785054 0.571257470566513 1.1412227046841636
Ni 2.883808704547702 6.170409516848375 9.723946305436105 -0.39859478066004256 0.24645489329727233 1.4740399247277645
Ni 6.041760626960223 4.880095493627422 4.664590221992821 0.4676777515006333 -0.018574677678393815 -0.8323062025175602
Ni 3.849517650613265 8.30679264821894 8.548092845934276 0.2287739310777415 -1.614973144741438 0.1072772225221249
Ni 7.078285561100658 0.09064707065995943 10.709532868446118 -0.11480258436489262 -0.8165872491204066 -0.2555442571930502
Ni 8.12464785880991 6.777366472859784 10.81297502655585 2.0707670003202923 0.07297999190215174 1.6996249165545632
Ni 3.4493593876001007 6.692134140255017 1.9473633557096088 -0.019553496651895357 0.5516044722222758 1.071111806799691
Ni 8.3612285417989 6.561623875992443 7.133686577293756 -0.767886955701226 1.2136046579910003 -0.9772266893137556
Ni 2.4989974732516442 2.326829650489515 5.443497219964551 1.0724312969420629 0.05064070497500311 -1.547535165703438
Ni 1.4545616980199183 8.246493425359551 10.030866464660116 0.6867879342363656 -0.791118929645973 -1.1804924488180637
Ni 8.964378987214616 -0.14170177768878336 8.749079397448389 -1.6563236826637668 0.40898023765942465 -0.36348713832363205
Ni 2.074296989111731 8.782392414627413 1.932230382045561 0.6212818821137558 -0.8534129025891884 -0.21905901778282272
Ni 3.599190717869171 4.762419405676486 0.8341879555176788 1.5180271289419922 -0.03036678521731544 0.0013729690881266676
Ni 6.152475174750823 4.818121033831054 13.947239098679482 0.01483372257872284 -0.18766764795573485 -1.4913560474087089
P 2.6892113205737918 0.5051295401714853 11.45092665796294 1.5758167862569505 0.7055647006232365 -2.412975945991438
P 0.9993905153707225 3.705596183982984 6.377949036847639 -1.8376021392637063 -1.4710402186694924 0.760491177457787
P 3.573596820220873 6.497927644899734 6.903890603899533 -0.5130649213861809 0.582014709083017 0.6053934930182735
P 3.8958379519207478 1.5139488474358407 0.9065191023333292 0.5292937245402174 0.1715054363735756 -0.44823764049815057
P 0.4036920822630036 3.161069724489677 13.288038017413996 -0.876516064265555 -0.8183469121239906 0.1410319503750668
P 2.583019912513037 7.660383862341664 3.713288313585281 0.6959796280379626 0.6638675779947664 0.6275409756495902
P 6.253138300919545 3.3163269610601867 12.11425533690371 0.10190284558408902 -0.5401355523507279 -1.2837556650847892
P 8.442384464523684 6.641523371014492 4.700360253346082 -0.0604566626241604 -0.25000121588763397 0.5689743309592911
Ni 8.188297555543258 4.427288256433742 10.496260315373636 -0.6216210106207294 -0.3201563367464809 0.15915051435264851
Ni 2.970418454189541 0.7953941214931701 7.6376015706859315 1.804783035851156 0.48481286851902305 -0.1470789279000951
Ni 1.4134904724483048 1.45849850482182 9.469032946233437 -0.2715681434251323 -0.25465594105082595 -0.6745546253949674
Ni 4.0765774036770885 6.394304933475682 4.759559403950187 0.1830946838730718 0.3442385745066652 -0.1836454141702192
Ni 3.228162963815705 1.7064521852385264 3.0027477350116833 -0.21796192806390202 0.44090099762742135 -0.6206097957473957
Ni 1.411787314895709 0.21696924258008402 4.549228753076478 1.2577893229280146 0.9898693177784307 -1.1628132863707459
Ni 6.7287008398405295 4.60558930775959 8.838054953920118 -0.04964825915474675 -0.3359195131180086 0.49126042391657976
Ni 7.425385347570932 2.781935685035606 0.11212733094078514 1.1970976614749125 -0.42597548666584056 1.6596486332719418
Ni 8.940395178400193 4.562591559710451 8.072564742439218 -0.1935701294830989 -1.4873165872320127 0.5571930220536468
Ni 4.970502446993081 3.062714702545238 8.119995353561043 0.1242354476430183 -1.0434148551050546 -0.39513690401842916
Ni 4.032211545462749 4.177938545236219 3.211593009134604 -1.648298498366445 -0.26264872944831535 2.3783421579676522
Ni 2.0094746265224974 5.016413245938191 5.19493114737866 0.9688443787873314 0.6673046287007733 -1.641002478925664
Ni -0.04277159106264765 4.839108029902658 0.9475354173608973 -0.27124932663313284 1.802177222797193 0.8491320158256475
Ni 6.199633094526795 7.8270885513148665 12.558876249598685 1.4023282580150753 -1.178661823367228 -0.47831131995507953
Ni 6.324912896797243 2.185262822442877 9.945269302677962 0.2160605972761311 1.357257590928682 0.515096607104229
Ni 1.182652129404405 7.83182574909777 7.620533698359671 1.1103643245424104 -0.18963119944000892 -0.14334542899959185
Ni 8.213360961494846 8.32087394536144 1.9379103659491086 -0.0739194729972856 0.307911972161489 -1.2877552731624853
Ni 4.003648755687249 1.3403477664054064 9.735742765534004 -0.5801717423370073 0.8084736188743367 0.3376331533750056
Ni 4.389288298579924 9.204794101414915 3.769640492083709 0.5356379215906905 -0.6891242956790261 -0.8703811550124106
Ni 6.418419038496314 0.48525285391422374 0.21945510805712412 -1.5607310955684217 1.0184658984692008 1.0667910679371497
Ni 0.05275507251985811 4.989711830537113 12.233185060495819 0.8025109735329985 0.956346760540953 0.17859422489955695
Ni 0.8202890730638723 6.299737808383191 2.880507557094665 1.947488517273904 4.861871488697621 -1.5536718747287952
Ni 4.639903744352054 8.675549525535612 10.938783459148636 -0.4625455724803905 -1.5260682540789139 -0.8385776373485687
Ni 8.112939813994798 2.1618188121970365 11.526772079597501 1.2400155438843612 -0.16476400388468398 0.30306158604772315
P 6.433831218316525 4.666307339853225 6.830429602838608 -0.9584522369197301 0.36808427077601125 -0.6808718258622467
P 4.5250941729377265 1.6397405276592552 6.135553420312955 0.542485283529827 -0.4816419269902092 0.4826544274151236
P 2.028553713860319 3.42105719023702 3.471083487923976 -0.9026816669173292 0.6717053288716304 0.572553306559801
P 0.43181000356301685 0.7265102400189485 1.9465052621230006 -1.2248959146341034 -0.19818037456160062 1.1063356629989916
P 0.7274520954524059 6.276331025624838 9.345117531379438 -1.0341714821299157 0.056198915789070956 0.16705279991886068
P 8.990773275843916 -0.24388843878296976 6.179673577109871 0.17441721070373187 0.6832359552190491 0.8653487347948258
P 5.403095158480542 5.290630918777987 2.281037048817181 0.9279427554769633 -0.05462591487499624 0.7249253645380354
P 7.854506595850098 6.180684303395182 13.470198628505207 -1.121384586912314 -0.2684288264652022 -0.4726800898112311
