# total energy = -381165.5840301826 ev
CRYSTAL
PRIMVEC
9.28599791541029 0.00000000000000 0.00000000000000
0.00000000000000 9.28599791541029 0.00000000000000
0.00000000000000 0.00000000000000 13.59099659225431
PRIMCOORD
 96 1
Ni 6.659119132444414 7.057089146499599 1.3859008355387548 -4.1454055677808475 0.9522705335890503 -0.8801336064134841
Ni 3.7894207566004625 1.8959964890160217 0.5586428507491364 1.7449431808753886 0.009472201156493365 1.1520370216908482
Ni 6.644261535727697 4.458049752844473 2.05512134985205 -1.0872747897127986 -0.46685242738586047 -0.23722309028635918
Ni 1.3113593442111962 9.043187673604555 7.359103229359464 -3.2759386970525903 -0.21942951374836406 1.2001819568271912
Ni 2.4868088224562324 2.5324309303744985 4.635413242250064 1.3939189509054575 0.6179900987363615 1.1411093190347508
Ni 1.2674737179091962 7.049446770188438 12.127654467188226 -1.0389421640456817 1.2096801261256134 -0.9866302420158428
Ni 6.729479138896012 4.669919082024842 9.925396479850948 0.5338959991989192 -0.09151327481964884 -0.7432537305335781
Ni 2.602057342988209 1.8919849379025087 12.289794491557952 -0.9340835782673784 -0.5907577453829697 -1.2329725209946507
Ni 8.864469357098358 2.4780335543954224 0.49021897486968535 -2.0797617476197345 -0.2521596569915335 -0.435757762863585
Ni 8.31186890521395 7.96613262961597 13.250990924949381 2.377491894152215 -0.8141349309251721 -0.3238643817256874
Ni 1.3702047132073392 7.346115832629464 9.46843994963081 -1.6714661947321598 0.6029224057699617 -0.0039882952237866795
Ni 6.916898435479436 0.26917786551612777 12.365251582283179 1.227620512654118 1.4607812599456456 0.886569591846815
Ni 6.372153937858992 7.2831289085485365 12.564061083949555 -1.0297327296322718 -2.301255600096295 0.33817077104603044
Ni 0.8392517797391875 2.0892938223004967 3.0936506455541903 0.10506555958278678 -0.20649197975108954 -1.162991463819823
Ni 7.996971428801103 3.519049640348023 3.579474557595112 -0.5142933944766432 -0.8115802828241184 2.454129280301296
Ni 3.483697846160187 3.349153021892376 2.4370284446568755 -0.5488953008212288 0.6081615426817139 -0.011311568358077293
Ni 0.9647037548163684 0.5333552211372858 13.393315558297981 -1.0438650552685957 0.5752393380323965 -0.1538121328588706
Ni 5.086934677871269 4.255280701653092 0.18536616243713294 0.4120552770403226 -0.711522203758252 -0.5668251458267722
Ni 7.146541164732176 2.8088472312910513 5.587475968059892 -1.639176738570835 1.241856453747842 0.7156742782534126
Ni 8.703357292701469 6.918885639040296 1.6544862543858034 3.243832560546665 -1.2771664419030455 0.8039772736658799
Ni 2.6098947252562765 5.059262403986384 5.2947265253526945 0.015810998890327606 1.076784688814752 -0.28649545415892597
Ni 6.402909163062595 0.5866373487628137 5.744193898227812 0.29472452693693757 0.538384373987576 -0.8138958183311724
Ni 0.7951943624751505 4.639070996841761 9.990238746321875 -0.9509320172832847 -0.10122201746698051 0.036730008431181904
Ni 5.042454747700599 1.4779594333953219 12.067771852221297 -2.2165809454650343 -0.6281765523510601 1.0932225226558012
P 2.7011017971010167 0.2782465711120933 8.851789326900436 0.6713834267558373 -1.31348918759348 0.3265987499377149
Ni 8.47420672133997 6.29642662459348 11.226231073987941 -0.6034535956830832 0.12509213921635876 -0.6624136191570592
P 6.7927167849215335 4.411174035203234 7.376417901133207 -0.2939046021388035 -0.05869365718646666 -0.218119793798005
Ni 0.06105822230713911 4.19520958092782 2.1122450948286438 0.7515923323062604 1.1028783005780103 -1.6224830799652379
P 8.321127045168055 7.315722761345833 9.121311702940432 -0.19131424356938664 -0.10682470836573861 1.0478338101083566
P 4.708780983437003 2.1066307804693145 4.830824997267287 0.06497357665790746 -0.57806163797254 0.24318213608327152
P 6.484263791084563 5.060896739625224 12.194249930071726 0.14829917346044139 0.5794533761137439 -1.1314653681870837
Ni 3.881509998250257 7.611871807901773 9.81972646620228 -2.056379621250368 3.3876593000580493 -2.3659694953349124
Ni 0.9561420647083608 5.31042079048452 0.09466424888076105 -0.07177440162982478 -0.14461195441684127 -0.912180350436384
Ni 4.429021723259189 5.917771486270026 2.0565356073395225 1.1271549137371877 0.10300867705375809 0.25160198471585055
Ni 3.678908095021939 0.5141322767852398 3.373367190141444 0.16523554420446382 0.284072189429414 -0.5654205521697617
Ni 2.669668694047215 4.104243945029726 12.10514706536199 -0.5562982781535194 0.25976677991483005 0.8862649161222028
Ni 5.431723781678559 0.04220578927321612 0.5572128070651525 0.6932866545868318 -0.05362626996588829 0.5632173738708557
Ni 5.213577117885376 6.272617325854943 10.58981891902454 2.7099087934336037 -0.8280605398673287 4.404738602592369
Ni 6.449162718841321 1.2844485221580442 10.219872189576668 0.9894455999774507 1.8998608880936119 0.7276893004364177
Ni 1.4022878361174977 7.769250901123588 0.7722078031548014 0.21456318679499822 -0.649514651707204 1.2122707696709252
Ni 9.054823029033333 9.010222380889342 11.19603208006142 0.5377050885323642 0.1375550475700599 0.5605449692450153
Ni 5.679864218843611 2.2647063235372245 2.7953416758755565 0.9211535004692716 -1.9808678640652984 -0.8213319628942435
Ni 6.748719726644159 8.378393794513046 10.5147564832121 0.3164783736742614 -2.1655162655787352 -1.8062393086817088
Ni 7.826304072515777 8.111560643478775 4.222844710820911 -0.8212684566461598 -1.92118278949984 1.3591985167051366
Ni 1.7317364713147785 2.897064211796552 0.8469935162283913 0.7411837353784266 0.6715986280904369 -0.5558763601247524
Ni 8.722115008556322 0.15692872232133856 8.967761226672556 -0.9924980136505295 0.08101160395737661 -1.0600594056402712
Ni 4.5315205686086335 8.381606749803037 11.92493091738679 0.9683633253858548 0.27711247028212915 -1.7743997955736086
Ni 4.37318501759818 5.505445319387313 8.844748683256302 -1.3052984242525714 -2.471836467773072 -2.595513214699143
Ni 8.05149880875145 7.088726541508256 6.949511788872423 1.5160283533444083 0.6918308959769118 -1.0328864447699049
Ni 7.339671350053589 1.9358798502024561 7.8583955528240885 -0.5089118184497557 0.3365800295201429 0.08152299637615638
Ni 8.820435154829191 3.937225985937942 12.047222867362285 1.435440981408644 0.2942103063046804 -0.19488216342630307
Ni 8.280584378127315 1.0091279689993493 4.026590715789809 -0.7919892480660683 0.5671737874154426 -0.22084979113465839
Ni 2.189294734201943 1.8729300701133202 7.314864735135441 0.2752795308384485 0.9279347850571631 -0.41309785937222404
Ni 1.8017436098443549 0.22537581319565947 4.908117001187028 -0.7950282920027082 -0.022938353963728238 -0.2769039538157489
Ni 3.3885535111855174 9.015598973701202 6.725273510425386 2.6904792239540827 0.14822769679255762 -0.6290692393686586
Ni 5.793794127666979 7.916006812692949 6.635654344229745 -1.5612412024356208 0.8128779185896194 -2.1850026564381206
P 1.1120261122605553 0.021805380381370285 2.4040027929550005 0.16536795601727003 2.1843958760920574 -1.2169476063213043
Ni 5.4201441422374685 0.1576084573711283 8.840535625987318 -1.8932251279446495 -1.566213715949548 -2.9279720229620607
P 6.366127325190774 2.2445742799860744 0.7225871445201493 0.23010730517718433 -0.6837059528769323 -0.7493361892822321
Ni 0.3154174922979322 3.165327406514807 7.9927295849384805 -0.7392168414600431 -0.0949940342793977 0.0237060853676882
P 0.29714729133534556 1.903360285388744 11.655720550877843 0.005485448594603456 -0.06263361567082117 1.2347000452087187
P 7.338687034271106 6.12382778073498 3.1424012061811197 0.29771549124446145 0.2579477244282203 0.8589456594819594
P 4.047469353575974 8.092422201708056 1.7413465505911094 0.6265192192532951 0.4756923942749936 0.5807240152960516
Ni 3.312491901993879 6.33968080303502 12.636908809251409 1.6118212293760175 0.4571264583473482 1.0303531368250902
Ni 7.144683965142587 5.567104345761686 5.14390706108131 0.13785432397803354 -0.712280164970199 0.8645948873479368
Ni 7.872975498202161 0.23797598381122942 1.2381225355953238 0.24068070981765646 0.7895037626400533 0.93586998074384
Ni 7.887378081019428 5.0287300427335335 0.2692521534997113 -0.15344652198933575 0.9472926207584846 -0.6761487093549645
Ni 1.1619754952225647 1.663809396325543 9.734048277535747 0.10377203758234387 0.15734148616836774 -0.3571871642475332
Ni 3.723258021221336 1.5430914230022255 10.132563379670476 0.5828289774541963 -0.7024408102822741 0.7677000365014005
Ni 2.7473367808838476 6.891222651153361 7.5587689000366405 1.8409335176297843 -2.2363869244473675 2.912475984208991
Ni 3.7264152605236385 3.907984378399856 6.9601256845269255 -1.1442697190406035 -1.1687813310287225 1.1849525414719464
Ni 2.91987990875466 7.2285550986084495 3.44742395237612 0.9984352050705707 1.2755278778583579 1.134159112969163
Ni 4.884434920620378 3.670234972938556 11.173851545362952 -1.6200767845165907 1.0989044035319266 -0.38391429582973235
Ni 3.183091520589231 8.936510129178535 13.455318166596427 -0.8669811281919262 0.4325353992715454 1.0957424608641773
Ni 0.04108496932089886 4.9223403642439 5.89915863198316 0.6009390567913457 -0.009287853059829165 0.31030515498401395
Ni 2.687859964027244 5.769260521088502 10.516876476543617 0.9515807066108772 -0.60651012312122 -0.3382095947037659
Ni 2.802764902635146 3.3852384099181 9.256950417766511 -0.5528162331421899 2.098981772191611 -0.3360879203750728
Ni 9.404394421783817 2.4956398065047307 5.616302491489706 1.1944054593547302 -0.7436589363917967 0.08636824028359964
Ni 4.9216717723916465 5.5258280848830585 6.09700238986295 1.1220767278833321 0.2301070480668682 1.124559899316502
Ni 4.598277607856428 1.7643488961079703 7.056486485232777 0.8937967057228736 -0.6738545140041491 -1.3328549937146013
Ni 1.9255723924802344 5.669213179197316 2.1629531438230005 -1.3997718101418086 0.11322135592070177 2.1824564929774994
Ni 6.232566816705446 6.7309184685779435 8.278343666822476 0.5707671611936557 -1.5839990649574267 2.941329932326205
Ni 5.0884111515449915 2.9068145096418974 8.934639929191817 1.777474063623558 1.3906423370367147 -0.4537601129782766
Ni 2.2615490842349226 9.108616815145794 11.096002381566334 -0.09719361303387776 -0.722017446862621 0.10348381691796371
Ni 0.6932294620077133 7.670921468852772 3.4051020881285545 -0.5902658933482158 -1.5231467095567446 1.632266384604247
Ni 5.167574284051244 4.08902419439304 3.9053861561740195 -0.13687499078389975 1.631244628207952 2.178132154570533
Ni 8.102757517424122 2.8068878857240347 10.08789030074249 1.7535126677119541 -0.7584854598816679 -1.0651123946831462
Ni 6.7792149439052185 2.813508802260921 12.054534662146498 1.2278434272982015 0.5567659618185572 1.9637610291816825
P 1.1793217393893307 4.277789960678916 3.9663013741127604 -0.750629711282675 -0.6455386977785914 0.1205528565851085
Ni 5.29992761280334 6.765731674884798 4.176961666360308 0.3576931573496743 0.9452966733743785 -0.7534209008745669
P 3.58570453361839 7.164026698868162 5.549951250352237 0.6355391633637184 0.3461746151871135 -0.27929739374859
Ni 6.103370727255652 9.007278719539842 2.9236268089266564 -0.73063321355609 0.22321212071924784 0.056964847420818025
P 3.13228782581601 4.945313923167122 0.7375589590116249 -0.4663477198353001 -2.0804006667553137 -2.2081325575873647
P 1.3411302536323155 5.000092025062064 7.871796176462771 1.081959548147472 0.7913732117486242 -0.4166632081259792
P 9.037894654774226 9.170470847477072 5.866418060418287 -0.7771838076221196 -0.29374107997774573 -0.7999306144003321
Ni 1.3839108461785097 7.224757125447739 6.026818817372363 -2.6517823216045167 -0.3491722643628567 -3.6322773972568996
