# total energy = -340896.67940589023 ev
CRYSTAL
PRIMVEC
9.02447106225888 0.00000000000000 0.00000000000000

0.00000000000000 9.02447106225888 0.00000000000000

0.00000000000000 0.00000000000000 13.20822560713642

PRIMCOORD
 96 1
Ni 6.431614255343837 1.7926119273666725 11.223464953857512 0.13445841092260713 0.4385222129825996 0.8482424141318423
Ni 4.483086539692316 0.5146637855372603 5.805411616019147 0.6675689381057535 -0.7097715396157325 0.8739220782861336
Ni 2.6101658434452317 1.5238451271872806 4.741924616698067 0.29054879829269314 0.13109772198049036 -0.2738353421927542
Ni 3.1133884044419164 4.442855447247224 4.640564463935496 1.171049815347925 -0.11278786792770898 0.2175634070739027
Ni 4.983078340012612 4.501180604374328 2.7904359720579333 0.9588386737248712 0.24911752773110002 -0.7724156968095149
Ni 7.060322087863402 6.066357809488599 2.796974201415598 0.006676383578911082 -0.7588639262670093 -0.8978811602048923
Ni 5.19256338912161 4.424400403718688 11.445099648493391 -0.16488998793958698 -0.3924120488880984 0.20353135446086884
Ni 5.732461400925127 7.88125115615696 12.274523451492772 -0.8961857747803403 -0.45225293230513075 0.29779982342815164
Ni 1.7537435300672084 6.467540675044131 0.41173066745096176 -0.07400817605634995 0.052976552197031346 -0.42008894597807656
Ni 2.846724306043526 1.9169330421095139 0.463351544951 -0.48018513993902456 -1.0875331855805077 0.43272334691263536
Ni 0.5639978620445696 0.03512233931966206 4.65047062593123 0.0027688209943887796 0.22426884411853634 0.1579508376175925
Ni 8.6174223912867 2.3734268914236756 1.2951803695153483 0.43839777158959337 -0.09119034426259134 0.4245919760547527
Ni 6.879561930466544 0.834167065042707 4.829178618585599 -1.2297707262279014 -1.1146428973131062 -0.19772297530920788
Ni 0.8292649723069121 7.510390513709438 2.5613786498904068 -0.4807261000441591 -0.39953323331391194 0.2288281813544446
Ni 7.667298993822228 3.82586137829736 3.906081707360373 -0.7993585439469459 0.38828208588012486 -0.1384780736049615
Ni 7.619893446802472 3.6753061258833917 12.597953278401283 -0.11345584052901106 0.14592218858783257 -0.5203815096522522
Ni 8.063148396920369 8.657806899741564 6.873574193849829 -0.1874143942943482 0.6541526646998477 0.11632082078163193
Ni 6.84710090769288 0.6230170010041157 0.2670322968218445 0.015094175328961101 -0.05588781230655536 0.7923911114901773
Ni 1.8010317589618432 6.6033679905199225 9.38604291737759 0.11981263598497431 -0.9066576208459418 -0.9996767907871558
Ni -0.10220303836920394 4.877492027404362 1.3452977701196143 0.1888012473395458 0.12811549942371483 0.2940503836880484
Ni 6.241414501110378 2.1060498598034005 7.080137119196217 0.8727123742487486 -0.3570480675665077 -0.31792873296754276
Ni 3.517450076298477 4.35432538513723 0.47378563850977423 -0.005179487318410434 -0.09980122586005392 0.20260858553628333
Ni 5.7730985945725575 5.646801120644997 4.886554401346345 0.6517335137353937 0.5912717089049107 0.2318309727365104
Ni 5.338101035568896 2.925363547758764 9.31677829630658 0.4679777992395553 -0.9294046847344704 -0.3210845049877051
P 0.16045148749142157 5.473883228688872 12.283557849574152 0.1959951939848237 0.7951514478441338 0.7978714178784582
P 4.08384393543685 6.007428012793567 12.460310239327477 0.848435503979255 1.3873307561649786 0.5325492553630377
P 2.3733005488273924 8.43837688341083 1.3455883580910661 0.9389969564085957 0.2820944968777529 0.6862660002946245
P 6.309007790121984 7.830470456922207 5.72024497431164 -0.15584587545944775 -0.15440734324070826 0.2928347661133925
P 4.737892482982395 1.0321558403370357 12.666252281057846 1.1186664166502023 -1.1764334482573415 -0.7207252104137588
P 3.9150051044464442 6.204919539726808 8.093221544624276 -0.5339057693909322 -0.9182095873495993 0.9079022918863203
P 4.744498395873783 1.2740387409215579 3.7829021882196634 -0.572451233764298 0.14543753564193018 0.7166523258959657
P -0.0008040803806320537 5.659137572724953 3.586059520763048 1.675967167926307 -0.9726110449186153 -0.15129193754017817
Ni 1.5016178547125694 1.1280047485603022 2.5336545720302523 -0.039004406287655405 -0.01679881672489365 0.22215205488584966
Ni 1.8219143852332527 6.472215351106615 4.791072789099417 -0.41537688521438787 0.5129458793098134 0.002850067854285414
Ni 5.940168629214995 5.450527897318773 9.20674111452069 0.21592767124269263 0.4571629680122385 0.2565924959519065
Ni 8.687172528906286 2.0590052916301698 10.057905770999092 0.4407122786553829 0.37292000160175776 0.9022687477496267
Ni 2.3823520934039797 4.995198204784653 6.974854931266163 0.011412612712315829 0.7412058468656139 0.04231495871812713
Ni 0.5906498327305476 -0.13090807624478684 9.063445146710318 0.06786401083182506 0.44496539750478203 0.16679106161704177
Ni 1.617131085600227 1.1257486307695275 11.512342788023869 -0.7587001469956351 -0.0970102933784781 -0.2945327226411057
Ni 4.009437170697105 6.768642155400904 1.337187477885338 0.8759612202033494 0.8651281341435874 0.6056521459962989
Ni 5.552459299105968 7.641940229853922 7.915082093653183 0.02289593076156702 1.2118213408383323 0.10086180591408436
Ni 5.2117584392855205 3.190340070049655 5.0126668736150615 -0.11468662761231863 -1.1290418463472556 -0.7670780866466854
Ni 1.0519645545400365 7.239791745883936 7.0019445888035525 -0.6401085279019557 0.6123393282084874 -0.07743699923224083
Ni 4.990785238385897 4.547539312739164 7.081088298456808 -0.25304514492028035 0.23393670622560353 0.06838954431799191
Ni 8.22833231708972 6.945052517697149 9.108814773035679 -0.3205402024484609 0.7775453047265963 1.4312889069134833
Ni 4.640157460286042 0.3544054217287291 10.299074835914615 -0.3438300262143369 -0.6278628777653832 0.4515152828081579
Ni 8.184698999016138 7.220452304181417 4.697294094560965 -0.7662357932510482 0.383521688377004 0.8195010803330919
Ni 7.229801656306387 6.185868881101508 7.1666249434820015 0.20777881688331312 -1.5854846483640177 -2.003321565083124
Ni 2.206672713271946 5.425512063254665 2.545634557499265 -0.19746663632402767 -0.41638707164645705 0.18576451739575103
Ni 2.353347443085782 5.362467107709262 11.440647876868635 -0.9375432546812047 -1.0946032050534116 -0.3783018347389614
Ni 1.0245933335023594 3.314778502917617 3.6235047589600913 -0.41237229406010917 0.5794649460779697 -0.3534870896881267
Ni 3.3669850685961404 2.853321194463751 2.774163045656635 0.36133049699194547 -0.7147340258273304 -0.09899929878404885
Ni 1.2432291963707405 3.29955422006547 8.242289564190566 0.05413971926719708 -0.05274103914745755 -0.28188186664631454
Ni 3.5221698747167776 2.6394322034271593 7.073269496641099 0.07538834423332823 0.31341259026474416 -0.4744806333550796
Ni 4.09738966665266 7.03980946490968 6.068572414712023 -0.43331855729447305 -0.18704184144627786 -1.3097101801670217
Ni 0.8819606643224752 7.486069563924888 11.503941907818142 -0.24026470532616043 0.1547960940386947 0.28128151405815427
P 0.28341893155979825 5.527551758695818 7.928224431008003 0.18461086340728208 -1.4273078107785482 0.8078136166928347
P 8.563239466423457 1.6252621341181788 7.909759460561188 -0.19488936251515468 -2.0543625908203396 0.08195237060409112
P 1.8743646116331796 3.370080462205083 10.321435670562538 0.6152647293853984 -1.1368495153171323 0.6722894835098745
P 4.008110573436129 6.299640389054687 3.666907050571896 -0.5598541138255777 -0.780953816187513 0.31130042901774774
P 7.062695523779297 3.869034448341622 10.41728818857427 -0.5890600459655726 -0.21876565491212 -0.44993019770922515
P 6.177494171862153 7.620028813869918 10.014529650353662 0.9105623552169867 -0.20677685798136003 0.9939324321042109
P 2.3432761332677643 8.543006602075792 5.857095664817327 0.902843389306174 -0.3439426405328012 -1.1257382358953192
P 6.93655146586151 3.8652802683377727 1.5840365449509133 -0.7950072089567857 0.49594548809707495 0.5815094873118243
Ni 5.3359712603744045 2.7628869689383437 0.45411951095115055 0.20632948603129625 1.0923023248343768 0.3004390608232116
Ni 1.4904816572973063 1.1130511998430483 6.985196975219074 -0.6170151364176019 0.5782048484186235 0.02677829653510872
Ni 6.804514428274219 0.5110603142018353 9.07312659937409 0.3827490718770376 0.38039239871940295 -0.5059833319490511
Ni 2.784491552902801 1.4933153412425193 9.142483270050965 -0.5307052601757635 0.35548123730002 0.8164916040828067
Ni 6.413628484315782 1.9720093896179025 2.6222026830825724 0.6057799298234148 0.4362028208208036 -0.18568738430091244
Ni 4.027621480090747 6.883099523162479 10.42438052046135 0.7179229650782732 0.04332745914304151 -0.47009330292066137
Ni 8.248736646389483 7.154005123007526 0.3251868914439659 -0.3363900249965239 0.14034032362468088 -0.023144813547579492
Ni 7.900581573388316 3.5889599857948675 8.299745664744664 -1.5318578641774974 1.7383914957997997 -0.8002723140104668
Ni 3.2920729334712617 8.444423279090106 12.586052708278507 -0.46980225404280385 -0.5668958511637076 -0.4771936614108685
Ni 0.10124554197879922 4.716513510797015 10.188204695440369 -0.010131689117363197 0.23404443544806144 0.056078588161122774
Ni 8.499436455300353 2.2481221093240564 5.717629682568575 0.8986571191389685 1.097512922501039 1.0992275911993004
Ni 3.650994200570005 2.4647906374788824 11.531295982360607 0.11553329188333006 1.3695356369650866 -1.3604141342797926
Ni 1.0815377465415092 3.382407889813875 12.514978680739294 -0.08388995394643617 0.005320383771648902 -0.3369536108094778
Ni 3.0765685620964756 8.303903238609504 8.031882214128698 0.5011758832580787 0.4331475789342475 0.06863996976590113
Ni 5.5114430776696866 7.928792070244162 3.4052388994093974 0.24439903920950812 0.5208574208474062 1.1587355167569464
Ni 3.00294692634792 8.252030578364016 3.5884898108472703 0.3991043733066094 0.7412194737123686 -0.19277642993720992
Ni 3.5949341857048385 4.356373940091253 9.368502052777878 -1.0209904646632675 0.7818930401723309 -0.39444784837120456
Ni 7.197485025071333 6.098160045867356 11.39447236526841 0.5515797896319276 -0.695304456347809 -0.3216177517833557
Ni 0.5832723275547148 9.241329205147498 0.5397355713225799 -0.6131829071557052 -0.4525100426212594 -1.024506962456958
Ni 4.596515117741298 0.589046184204865 1.762545096792578 -0.6833431702208748 -1.1006460688133817 -0.9627282385872646
Ni 6.103457410440095 5.528463230283291 0.411976133066598 -0.3009851631346687 0.5165294828960136 0.0550257214165762
Ni 7.848790133383297 8.622349752541751 11.22785084684278 0.26037047493709997 0.4037447002920982 -0.17516180217924027
Ni 9.153972324288707 4.829292326922253 5.8027827875693365 -0.6445387957591674 -0.10383014451378891 -0.04614384554591408
Ni 7.929423783225579 8.849378373591813 2.4201962132264323 -0.35109570663781464 0.467525285083169 0.43191139253430133
P 8.488110743990665 1.7000298777044476 3.571662781916557 0.11216463252141327 -0.6704323756964775 -0.7494356909745737
P 1.7471195682334941 3.5328458241027225 1.4707361143924473 -0.47956987495252895 -0.4578759349188631 -0.1853829656866162
P 4.724202360227975 1.0357024575041334 8.14453559010477 -0.3246570528303118 -0.3224957835129349 0.030564245940102198
P 8.526212061241266 1.4778022753131534 12.303356636858872 -0.04051955738060118 0.4152922959203816 -0.14605537173158717
P 6.339185621691384 7.604822579960098 1.4336473428063463 -0.06400504209705106 0.5467114057960325 -1.435431211216631
P 1.6864390241328218 3.2127839298322804 5.699851474377271 0.2681627172880091 -0.3977244622399473 1.9019681642446018
P 6.900967976065414 3.9976782847715873 6.181198717274604 0.6377744804521404 0.8425420213129554 -0.7568422678512902
P 2.4293425147502323 8.497433022702145 10.323218906064367 0.19446487338322638 0.636456275861349 -0.291632261164859
