# total energy = -340855.9262575239 ev
CRYSTAL
PRIMVEC
9.37327852599589 0.00000000000000 0.00000000000000

0.00000000000000 9.37327852599589 0.00000000000000

0.00000000000000 0.00000000000000 13.71874058830828

PRIMCOORD
 96 1
Ni 1.6155313848409258 8.100302764625711 12.467755552643185 -0.17005147753586844 1.7528992024976715 0.6927284680905166
Ni 7.843146873916938 1.8987637358358969 5.506647291226437 -0.7207552923207458 0.6758946843626296 -1.1599213095349314
Ni 0.5672454960739971 5.615662267399185 9.203367966550294 -0.41157473785947835 -0.6870339888089008 0.400945026059774
Ni 6.048632739555908 0.48437446779135024 5.256156738731003 -0.2617817534623298 -0.37744411472435646 -1.2646171444831251
Ni 0.8666017604350055 2.776355665101084 8.87849388929096 -0.019162174750747645 0.4414159895906269 0.4131865624312884
Ni 3.3059083970669274 9.178023559300888 10.58754715856953 -1.047726595106531 0.22471930139239363 0.5261688057579906
Ni 7.44259857146904 6.998689483512895 5.260080393035749 -0.5706987698495655 0.3555573419535941 0.4583528745552816
Ni 6.05346935116902 4.889270690713667 3.8188441812271026 -1.4210787991497011 0.7603644220719357 -1.014635726089833
Ni 7.704853525583886 0.7245281689555046 2.5926497206355403 -0.8179188234476364 0.639427442674531 0.449042138677317
Ni 2.713564073635508 0.31279848279969824 7.912763149327294 -1.111419248169486 -2.3674756475667933 0.012632858272662115
Ni 3.6792741923868695 3.2413358827205547 6.49781242191138 1.247207176536794 1.0686934271661852 0.5274800683702464
Ni 6.813267291786962 2.860443344909665 3.0298250454466085 1.119221517822724 -1.7091012314761145 0.8812391807728371
Ni 5.0308634330153525 0.6781969915476533 13.162390462380596 1.339418762975048 0.17627894650281897 1.591983111604168
Ni 3.6685605352671273 8.551307424270085 -0.05409975047945445 -0.218023891650089 -1.2341043206062488 0.17019417376131982
Ni 7.114702549279342 5.045382641133008 7.111286926659541 -1.0738867984416667 0.39999397500041434 -0.11178848012891716
Ni 8.186827496797488 8.090114011091888 1.7783742864218484 -1.4925747503071585 -2.443091534429896 1.340778362326736
Ni 8.607762679591351 1.3553104321215166 7.790365006369273 -1.0999284739210669 4.114724336646907 2.064271365293619
Ni 1.8409493551582325 5.0925770974741305 3.053640671002025 0.08771267012663604 -0.2807762922869616 -0.3371287029347613
Ni 6.01083030809141 8.455437533613283 1.3561418419084992 -1.2240027133958729 -0.16392531003347252 -0.1650573667553867
Ni 3.2969569162713426 1.276621760625247 5.47955289291469 0.3763927906417066 -1.510600754570934 -1.4608396239874066
Ni 2.282777575327341 5.187340941289173 7.264346937657895 -4.369790111541643 -0.1363664265785974 -1.1844203231175603
Ni 1.1636737568694338 3.7814616726313406 0.9141758345480868 0.2192881030744933 1.005143470328682 0.18020913479516062
Ni 9.24286789871854 7.467184680502359 13.774301504304983 0.6620654917890211 -1.385120121666905 -0.6666906492658583
Ni 2.9759877467601137 0.7279559768371231 1.765821592095725 -1.2981543570086223 0.7225596925193362 -1.6388077852671905
P 1.9990203207464512 1.9915966843170232 7.120711758010285 -0.4486634151816596 3.2147744668384446 -0.07561305864962461
P 1.873962041401218 1.513915674573974 10.858904503260913 -0.7146936595076983 -0.5710461258866552 -1.0869770559667213
P 2.6422146790637866 7.374829769215552 6.781160064229687 0.6469402061118084 0.28529963407861186 0.3971410789326515
P 8.45754652123528 8.583298423176192 4.067825635913018 -0.25636135377770686 0.10459479059395535 0.17385311067014575
P 5.985241258277853 7.959281792301544 12.90007458195667 -0.4808281728396622 -0.721689631209557 0.27462569930453345
P 5.018828143652493 4.266406973072377 9.146791795938698 0.4916571451343662 -0.7800809266642565 0.37587059958964947
P 6.800735218673142 0.8016936827247769 9.163555904213991 -0.10746362750131815 -0.9247854407949042 -0.16183371761176646
P 5.232782594584458 5.970665810490277 5.395772656635004 1.9880988345960986 1.6284876342881052 2.676794527378138
Ni 2.930883531484348 4.635470433643447 9.562757266567306 -0.5847627041417993 2.2309773233960226 0.7263268728712524
Ni 2.6466107465958593 6.78990908221356 0.9230185853151601 -1.816511122921362 -1.7669518239359956 1.3419412722865858
Ni 0.8018408431944006 8.895775402529514 2.23887126502087 1.3875624125598103 -0.9395903670182205 -1.4026925833330295
Ni 2.9617966033836574 3.160060186407969 11.61698807127413 0.3627903693669236 1.0501807130739784 -0.6594213692979546
Ni 4.599092740483587 8.556734552417355 6.589824271211676 -0.5915612151208715 -0.43302853685788 -0.44319750697108184
Ni 0.5602614663977765 2.6415304297464273 12.670079639835715 -0.06458199764644362 -1.6418931090607334 -0.4491897199987747
Ni 7.938979271460458 4.662334249308522 4.726792409659391 2.3061278405869317 -0.4910652771866381 0.361297586871481
Ni 2.0608745843800285 6.528113418736393 10.935029583136668 0.653261777454462 -1.0216211562687307 -0.41767365166836457
Ni 9.325034056471525 0.3760952939667214 9.609099691909142 0.48958432176573746 0.12034125479493467 2.3075853989690644
Ni 2.8401783171818584 1.4712203918264446 13.113661600378492 -1.2254993525460571 -0.7472834205182614 0.24936898162027374
Ni 6.838162719004841 2.8808864649255512 8.775754322953441 -1.1906717033439107 1.005734052724829 1.126949482594601
Ni 7.301427626691754 6.131333174173131 12.566612707100568 -2.076584121222701 0.14211258503375523 -0.24660478861157528
Ni 0.8142735595580282 8.024379210233837 5.773888829407514 -1.2095207177296137 -1.3381720350521407 -0.10795393687417537
Ni 2.8563472222838318 7.555265376875253 4.542754651141321 -3.335316010569643 -0.19539818383077315 -0.4645129806194065
Ni 8.080375174917425 9.114988262598992 6.719411718641125 -1.9891576148779164 -3.8331944540233724 -2.2127284044881637
Ni 4.991683129637817 0.8521575385439094 2.7397830077521688 1.7376726153559043 -0.7137852887608159 0.8126604032621745
Ni 5.6976878259773684 1.6768045052186644 7.246430853477077 -0.5095448240480644 -0.4109358187238988 -0.9041502810430556
Ni 0.5803090340685594 0.9009463895272606 6.088267646931962 1.4583759929382627 0.5767917701211808 -0.911432930747398
Ni 4.636154682960806 4.953730725720201 11.401453285617414 -0.29002377902715853 -1.4104215765461712 -0.700115247472891
Ni 8.28771209135548 0.988918355871643 13.392495071857894 -0.6057961277733309 -0.0826617379662899 0.4523730028227629
Ni 4.866774822745704 2.1143772570305 10.573609093707713 0.7470101122522167 1.1982654565307684 -0.02958928362134259
Ni 0.3710974619665057 1.1083995346164852 3.727505333310182 0.31347918183662143 0.09884374704279106 1.574470299531385
Ni 6.890868662998113 5.256431375785779 9.887672586251249 -0.1180941106319708 0.33167693579157076 0.021174320084769986
Ni 0.09359218402504509 6.595535409692042 3.5694512396229396 -0.2940192733397968 0.6862695998390503 0.6137158968410398
P 2.3362615014211725 0.2357913774340337 3.729947072312538 0.5202935779241362 0.2728783775961236 1.254249428095556
P 3.638378579076777 8.119817930087919 2.30410365816097 1.3001868140576187 -0.8783153222578228 0.2358768606711099
P 3.216918492696995 7.266990202144131 9.380339210542928 -0.09575070993976413 0.8524821632448029 -2.0383415328017347
P 5.31626101130224 2.698651187828413 4.838407533238103 -0.19224035492808184 -1.0006916052049153 0.3404258856287944
P 0.4662971632234281 5.607498141982478 5.554389147021446 0.10448526159928456 -0.0029832509980400232 0.0019517244097321223
P 3.1874676522156036 3.0660087117452446 0.988952099673595 -0.24681896150491045 -0.32690393988295957 1.0054075226233459
P 0.9247845109506452 0.7157932108891111 0.30052136285618253 0.7708609507278854 -1.0875272720432367 -0.08278412247676711
P 6.259812700105158 3.9742137680035015 12.320841600239245 1.8448264249262873 0.9952508938053183 0.5911709216609883
Ni 4.250097468795605 5.550180545055772 2.5183355581312075 -0.6278970734374284 1.2408092434302502 -1.0673559393016845
Ni 5.94998835851639 7.145212570210892 8.036808177286137 0.31140070204103787 -0.09539821169635183 -0.7572749845133345
Ni 2.55552122788225 2.636975016482915 3.195807995264726 -1.3301494218579804 -0.3991496247222481 0.13182148752039233
Ni 0.9594300222769718 7.9743446505617595 8.711976662608603 2.040981284417427 -0.5836550728999175 -0.07202842662215982
Ni 3.580198640544634 4.977398253478161 4.771186130438503 -1.062552090155138 -0.7772642831510678 -0.0452717273536059
Ni 4.785246047918479 7.048264752547293 10.74583464688694 0.2543996020656457 1.2203779721590917 0.6152421036775791
Ni 4.991664383081177 2.773899866181248 13.548010881776085 -0.4138673905483969 2.20796286477872 -0.18541818979992586
Ni 8.758288156131982 6.889734496321395 7.572593756505409 -1.3142268370904526 -0.821514768329011 -0.9613146460691896
Ni 9.050978144951818 3.648004935911401 6.486330155969399 0.9258871584995151 -0.17849575164847967 1.4193564171419555
Ni 4.878585153428884 7.791537603487103 4.3432706672797465 3.7236109519655747 0.6191144421487917 -1.3477329392676982
Ni 6.287679456550472 4.183022289137796 1.2858010120840075 0.5458943092113759 0.5795148254792988 -0.22155504473179907
Ni 4.720392335222506 9.451638926739554 8.704513658410232 2.2161595416568995 -0.45811890416760453 1.8673325764486033
Ni 4.311679907357902 5.488035709794275 7.487949303964621 3.197292765113913 0.5902412107578674 -0.40168704643212116
Ni 1.660091949974132 3.5205845904295323 5.155022814969699 -0.8558870751612937 0.054048445104971435 0.10978507654564318
Ni 7.759902789157155 1.4214107908340472 11.036658415993267 -0.36319326123229706 0.5981794917683376 0.3073098198011159
Ni 8.251090692959302 4.375361960263877 13.748373141816241 0.9346849592968031 -0.3517971035802135 -0.4581888381735915
Ni 4.658922376000048 3.1282847729032217 2.6790638481231412 -1.18356028911011 1.1007178025915818 -0.29579847672740667
Ni 9.385276116234063 5.871365299968361 11.746328064155932 -0.38945810846609696 0.3777919849820784 -0.41982489368341247
Ni 4.992442365181736 5.584252411748917 -0.014278314864832364 0.040303841825369294 0.8457479298447628 0.1370451978131769
Ni 5.6365084383828306 0.11843793286782794 11.283184071759345 0.5312449347293173 -1.0617514486307134 -1.8966392958325207
Ni 6.695135865120197 8.089167309981569 9.939062521968395 1.5547180566051224 -0.5172835874532188 -1.4179723923102354
Ni 8.720766923017084 3.5937242811603713 10.785550164456547 -0.3390179495376742 0.6961832594083365 -0.23428920446901585
Ni 7.855913278988756 8.479911163306763 12.007890333002932 0.7237565410409148 0.9284513196822656 1.0870652448051539
Ni 3.2452445397799883 2.595657605648423 8.937279341602574 0.8034759085494292 -2.2005143789204746 -0.7609218372373024
P 8.78956678588577 2.898077057364403 3.662697549677977 0.4978421908991555 1.414627129987086 0.5315804636918652
P 0.1985682145697113 5.713650518956302 1.5678598286333167 0.3295370066304325 0.35700590147466255 -0.8186670144675707
P 3.3903428881733477 6.642551773745084 12.62575434398834 0.023773191160197764 -0.25785465049378176 -0.27965040621263454
P 6.399540160021167 6.243221997478786 2.00694167825467 -0.4455544372390327 0.24863313189551375 -0.4305615633746262
P 6.471855002259847 1.4954690628402445 0.8768720614902125 0.2649789202433888 0.29129441820946606 1.3986060719684816
P 1.5073918728632647 4.502013696923507 12.348787092222448 -0.31466291773207744 0.8169837132278769 0.3585645042110341
P 8.45195067407825 4.120952440102859 8.541095237540462 1.7726876979785082 1.1398672190975336 0.7176622552177189
P 8.77193564936588 7.590030866164076 10.404142096338058 1.5458708906271377 -1.1423239081681424 -1.83494207593304
