# total energy = -340857.2016788957 ev
CRYSTAL
PRIMVEC
9.34258980082159 0.00000000000000 0.00000000000000

0.00000000000000 9.34258980082159 0.00000000000000

0.00000000000000 0.00000000000000 13.67382453695340

PRIMCOORD
 96 1
Ni 0.9440313234885066 0.18111731333662773 3.1948480451286607 0.47405563000251905 0.5924675289852248 1.8674534182971838
Ni 1.8285877206530832 3.259713645736114 5.1473745613540425 1.1515747373424492 -1.5731502951683811 1.2164773515531049
Ni 6.694030951237846 2.849060113444511 11.370359611663284 0.20095228087978292 0.15028200821842505 0.5324782929157862
Ni 8.991467195711241 1.0758646073962943 9.76920883004922 -0.3031279205092844 -0.21817481540565653 -1.3507483290552544
Ni 6.199686500000317 5.344531232766845 11.381530546222745 -1.1208276859675794 -0.8716309682591118 -0.15890728799359086
Ni 3.019235385670459 5.904563432509487 2.743202031807917 1.9395450940571113 -2.990697941236372 -0.24339656608692278
Ni 7.3422665407738 0.9551676904659059 3.677506785111717 -0.09111732493281081 -2.743995707814984 -0.014760960359258448
Ni 3.095760538281095 0.32781746030744874 0.007940267025244757 0.1212758507940621 -0.4283455295599139 0.9475497310746133
Ni 6.967030766209815 7.525801716336728 10.464222766444099 0.042493393277520365 0.5485502587769843 -0.17910973108339476
Ni 1.1256606107432228 4.103162648017673 3.3118957465042063 -0.32719781697429456 -0.7729340312068302 -2.887253719307092
Ni 5.188734206160206 1.3195100053858908 12.705088695745639 0.45106816796841026 -0.5188226498055645 0.36163285872371265
Ni 3.139801506344401 2.3464194425124094 12.469830140571151 0.07185847670319882 -2.0647848145949275 -0.7995603755451068
Ni 0.431364185240847 5.987329435070545 8.019041873466264 -0.38890017908009794 -0.4988302658440377 0.9413816545906885
Ni 5.3143546678868105 0.7493382929917622 10.039198462604983 -0.8693306022607092 1.6871164996749073 2.0581156301048686
Ni 2.3888721703188716 2.0259872993992842 1.9271753989492302 -0.7094031005327202 0.3973431676411286 0.07627588904460411
Ni 1.9994356593407534 6.549884134044645 11.557034831639893 0.5412282711942743 0.18143400834119722 -1.5043920546570608
Ni 0.27562601694960975 8.7349757368207 11.51266313589957 0.4596394545771891 -0.7304216117659164 0.14005827360788783
Ni 4.300945272943466 8.084002768489128 9.721228091889966 0.7367688941401828 -1.6280513180816347 0.3248755965990211
Ni 1.25679320042005 3.0034370664097354 8.947986783032704 -0.04100960964314228 0.21740836955327716 2.474880139695402
Ni 5.08689063533753 1.4278840464411198 4.153848065908433 -0.9288516404444778 -0.9601581638672432 -0.15471176185500454
Ni 3.844298171331613 4.163001935341701 11.01674072125392 0.30198969313978313 0.6842217161710862 0.7087292143941473
Ni 4.37098666827028 0.15639682086834014 7.7177667106276004 -1.6084392002776622 -0.05830336372658346 -1.2643410080036033
Ni 6.3735427525862445 9.10792257689688 8.381562383385752 3.5850169216080383 -1.4586251328345912 -0.7975559435205684
Ni 1.2815417206575759 8.266799879462113 5.753343340619483 -1.0922853555535126 1.8939342381965316 0.0034529915456069566
P 3.3070245202105686 6.944860800742224 5.095510108637319 0.8728532707019871 1.0936647523995422 -0.1567151654382785
P 1.1619939422659629 2.0044526300344305 0.13149788493590125 -0.41462458042939565 -0.26488198965420834 -0.41681078944743705
P 8.623322446764577 2.624174635665164 4.666506795825321 1.0467876282320294 0.7650641415404502 0.17150415082199497
P 5.907366209433329 8.656320473747945 12.085446102127747 -5.373414059902004 -2.5399989836819223 0.1309678812708454
P 5.217602808475781 5.801346500994127 1.7269356729202021 -0.1506584177212373 0.4260263945084341 -1.268075535345371
P 6.92221436319758 9.17904771263425 1.6891271464765465 -0.15795495138265053 -0.08286074135097342 0.9537692296217639
P 2.2695953270298963 9.193818347022896 7.289146443995194 1.2356644660045168 -0.9250034703429811 1.3780809554319362
P 3.2583869979921616 3.560900053972189 3.3439062617514073 -2.7731432759132173 -0.5397416593464188 0.38166046679854915
Ni 1.6883928189224997 6.156411624296195 6.1702863043281875 0.3346643005546688 -2.4942099503722654 -0.21522601718997772
Ni 5.587279742140812 3.235572393832087 5.317476961379971 0.48901070865045454 0.08617772153934836 2.5159038904059314
Ni 7.599449351305554 4.713000193696989 1.7746025000639851 -1.3699115322472666 -0.4380277898446844 2.130760607265105
Ni 1.1062093388917584 9.019345483513723 1.0997638862258963 -0.03796233817638623 -0.23964789767776792 -1.4476280103931392
Ni 0.7500735548047834 4.83354762919144 10.51056294584393 0.8350308005375747 -0.15135595800889418 0.10815242603822665
Ni 5.34207413166361 3.3698814640226016 9.388789786694076 -0.3294313342905036 0.9544842534109174 0.42961694007316975
Ni 5.2582804442304765 8.302012100215315 0.7118801136635866 -0.12018261772988333 0.42933257606353153 -1.30308033355533
Ni 8.902731278302399 0.6238271395651876 5.457989511161923 1.2816869554812185 -0.3205412308897254 -0.7227239860113424
Ni 8.327405259145324 3.9113966508883937 7.8500465703252535 -0.02935428479240106 0.09237510859931188 0.02049529173987438
Ni 1.5274013124170076 7.1589462447750325 3.867340734681494 1.0636556076319617 2.10252758056134 -1.3031878056674717
Ni 7.476921286784923 0.32816126761010667 11.762360663526717 1.0360537867542932 1.7770925119144232 -2.1064909360844624
Ni 3.119257151492638 4.900477942132789 8.047333103735527 0.18223490697593778 -0.7871864273607861 0.03245323543269895
Ni 7.349927464365635 5.542369913231115 13.327630294961757 0.008799343459184846 -1.1327133816615718 0.26074251356453804
Ni 8.049659408582315 1.6676896400450525 7.123119281616533 1.899959361344689 -0.2501840213224014 1.330286461656477
Ni 0.21760573184915383 4.776352294765567 0.7047040704795763 0.27834300025512065 -1.1811763622589657 -1.099984523969983
Ni 2.5523394631070904 5.694037515169958 0.2592129552835903 -0.19555836355772127 2.2785468456448696 1.7197939353032705
Ni 7.231855815153913 2.69999909404484 0.10392042852324392 -0.04571935641398577 0.2812601739019156 0.6011928246733647
Ni 8.365728562283993 0.4121165818458485 0.32000331824377687 1.0003203379084256 1.2349568984145312 0.06530216364191979
Ni 2.977268472530796 7.251512623979792 8.066093023945777 -0.12915962441751305 -0.24349503933799999 -0.9553388881017287
Ni 4.621218592030906 6.576454459282669 12.919686113696535 0.011788765104811957 -0.20723759966786245 -0.3259184360412387
Ni 0.05529878870740524 6.737147002916284 12.895359878515535 0.4422737096052318 -0.886071569164474 0.36395842153309577
Ni 5.1755237842591635 3.9716563547509995 3.252688018247016 2.544462161659599 0.07892386819041247 -2.2603364932844294
Ni 5.127474845194763 6.275025143713194 3.837763964063163 -1.2873588090550152 0.364278780986992 0.6345102078785717
Ni 7.4657195216793 7.826147291495652 13.249963477884142 -0.7217063433801054 -0.3177369286717108 0.1542952431428762
P 7.924403307855811 6.992610776934748 7.370861405209812 -0.704744004494154 0.5068158551526756 -0.1676194710556081
P 6.017496657360833 0.6494931021157847 6.093958280361195 -0.38888243846828513 0.2983191862667314 -0.2426794854152401
P 1.4422062365219532 1.3886545120970761 10.792818464477401 0.7754436850025613 -0.7816647262116087 1.1043155472451691
P 3.195473998641652 0.5652378907491917 3.2408061126078747 0.787779837970411 -1.348046356743059 -0.44222614419674805
P 7.0803563798305 1.9612151246892928 9.475071405776607 0.11323601120872111 -0.51523467534399 -0.7155382668961806
P -0.10600849733150632 7.248934069209857 9.706460260278241 -0.29427226989086736 0.5289186005889859 1.1969374817479643
P 1.9990339279816691 7.624328667799526 13.263555077446828 0.7080882383760386 3.1111831778083388 1.6355751372625056
P 7.147380118669311 2.7646124447291474 2.8322593343040263 -2.191753087788077 2.5928449238383604 -1.2255410044172699
Ni 5.515285745557054 5.902984534842388 9.090891970048641 -0.22072792084481338 0.08113527401943445 0.1752736451667562
Ni 9.013487679742894 2.1486461601763622 2.0822502433684913 1.4747433785526924 0.19712930758926697 -0.5433977680417673
Ni 3.8035457948589486 2.458446436158379 7.443442116429628 -1.995533693607589 0.6748271623300636 0.08421005629001627
Ni 6.045477713650523 2.235775152148868 7.559273412620226 -1.2220713007011146 -0.18736657177554827 -0.5481465955806624
Ni 2.058340687690169 4.154472150903476 12.570100419280578 -2.86634782239236 0.4636766007610401 -0.9887066649288971
Ni 9.146862490958794 4.674770316455783 5.565246178483514 -0.2975977347196746 -3.694795056175147 4.1953042523835045
Ni 1.3078504533827076 1.5999838921547727 7.161734073555281 -1.4396946144786753 0.9665309001628063 -1.198118132319627
Ni 0.03205909671388091 8.980274773195365 7.859536772989383 -0.9525782946374564 -1.4503515799718891 -0.6417512057117012
Ni 5.293679516778601 8.411320400245158 3.0432056681821313 1.0112138448924777 1.7413899163064912 1.0063603734549182
Ni 3.1579915285801365 9.232664835187348 11.350190828919317 -0.1533277370232843 0.7137788610029127 0.6841978049116862
Ni 4.875355718305418 1.8041942188259106 1.6543960690952693 0.6793618169756236 -0.5306772351513054 -0.06812472069237945
Ni 9.23256206670014 5.81070777591976 3.975144877762208 -3.007787806839123 2.7686525871317156 -3.6013359704830363
Ni 4.952067722710977 6.44805924840146 6.742056533827881 -0.7621924764196099 0.538040617494912 -0.22583978815008202
Ni 2.8205371869495437 0.9458811562582424 5.311159502193631 0.25239079916573304 0.07439718396465253 0.555199902883018
Ni 3.7516477088191382 4.9107921612125285 5.222498325502758 -0.1382857550884973 -2.071320044610285 0.43407291896199435
Ni 6.560637454842452 8.015605668957633 5.460819381596028 0.08296512813932164 -0.13387117096056947 0.9118273379723394
Ni 3.3238785521126064 7.997845405850221 1.9499554355272444 -1.396419605840124 0.9651419902350798 -0.4483209442405763
Ni 8.929292260950676 1.8577272580712951 12.094374815148134 2.5046203470723123 2.6767451621974416 0.8514022999170628
Ni 3.6417508256352886 3.741884702534422 0.686097368741163 1.1965569584800941 -0.06349570656080032 0.9542780509373824
Ni 1.7294721860362792 8.688944797141467 9.4969358685595 -0.10800535893740107 0.13436430854690407 0.31583636921488834
Ni 8.601600925604801 8.152782914200213 4.138915804717177 -0.11665326442038618 -0.7794039552018899 0.09084170267392096
Ni 8.355816074563338 7.513861886641161 1.8888885319105722 0.7418856465414577 -0.84435079238692 -0.2440804795278248
Ni 7.941780524783632 5.270201588746551 9.84269203543851 -0.374058228971259 0.763036312477144 -0.668993586367422
Ni 6.768397965617123 5.2592707587435665 5.55890162578691 -0.037645835377231936 -1.2281499027950267 3.005515980085811
P 5.714292249739591 4.4558921238832045 7.444932259494137 -0.19892445181647678 -0.3039617292644894 -0.6810155505289626
P 3.325569560856658 6.00985441894849 10.030556567089802 1.1330584237058163 0.6306054735075268 -1.450774783552237
P 1.0208741241505117 6.0685352251439975 2.0699021425010176 -0.5300696834742936 0.4153036087742912 -0.4769856591651204
P 8.430930496122306 4.229913563103559 11.808728870695788 -0.2749555718401265 0.48577626087355696 0.24384368092667033
P 1.363896649269804 3.8135049955283344 7.103292437657274 -0.5122174857842211 2.4353031487337287 -0.8541875759716837
P 5.391982246087491 3.7049721304474206 13.060772298488901 -0.1080189857841559 0.01888192450616748 -0.6505726606580732
P 3.200304117540407 2.4642481843907325 9.827637386321582 1.4931465636502284 0.013841019648150354 -0.44045311145672533
P 7.118670340379421 6.422283043291859 4.037196490338124 3.313848841834803 2.337577831566097 -3.0211356889009386
