# total energy = -340895.91711720324 ev
CRYSTAL
PRIMVEC
9.00747877962035 0.00000000000000 0.00000000000000
0.00000000000000 9.00747877962035 0.00000000000000
0.00000000000000 0.00000000000000 13.18335568388966
PRIMCOORD
 96 1
Ni 6.2717723440623425 1.9629728223708311 11.283462363572701 1.3256049970204073 -0.0027559654785823504 0.6310818989233131
Ni 4.641941123399355 0.34930462158359177 6.143469816693774 -0.6373746739105605 0.13891464692174788 -0.15676813016340096
Ni 2.8108918348561045 1.6711124957914734 4.712825477452075 -0.7475515865779836 -0.33731767901711585 0.9038880285206045
Ni 3.2861174064257708 4.244648258007227 4.884697179552585 0.000536075009128109 0.4635778703996468 -1.0284466638309966
Ni 4.872712729070707 4.776107519436622 2.7560732199085916 0.07891821176345763 -0.3622080145008923 0.12970726939086694
Ni 7.152874908276471 6.026282518107346 2.6844214286660506 0.7518779818674792 -0.4936214679495885 -0.563953480705932
Ni 5.161105176329867 4.5355808142749465 11.647231194539081 0.05677998510352157 0.1520100466531253 -0.45939751376971205
Ni 5.732584665862221 7.797107803702951 12.243039884185343 -0.7848318110856806 0.11404410893231329 0.5469479472868709
Ni 1.8392460942091728 6.329789514715316 0.32638419114677203 0.25837272778078085 0.23728736786539134 -0.31730678311282773
Ni 2.8363649847717403 1.5444042921623202 0.30199374017733854 -0.6185516276667863 -0.08703184200952753 -0.2014179076622918
Ni 0.7787055457413754 9.149256469345001 4.487838474636389 -0.27726159426548375 -0.7513748169788156 1.1144284673094549
Ni 8.538044991029807 2.2776761150697262 1.459212458857126 0.07875983180872242 0.3138483922505821 0.14882522116724048
Ni 6.626216633022831 0.7923536775490737 4.724110046834787 0.7974878092867943 -0.4677440859621944 1.1558607663123126
Ni 0.9232755797392362 7.195264103291669 2.2724941125426876 0.034399303415476236 0.32389292097077765 0.8173030442405086
Ni 7.437475206980297 3.891131739358377 3.831729218473075 0.4800133902478507 -0.6211114179741626 -0.42505091796904215
Ni 7.383727581256607 3.9126506061011113 12.887283588586328 -0.14120395717655682 -0.4097857642798555 -0.4408955983107827
Ni 8.03165354297213 8.890543664579482 6.829795561084453 0.349722737549688 0.6744466390621933 0.29680532072536625
Ni 6.832055537503773 0.6751807909286518 0.3448423166089787 -0.5064715844393792 -0.9036800262748567 0.06737370145896784
Ni 1.8854994976097346 6.414829121629571 9.183485789357167 0.03348707601385201 0.3690268371949387 -0.35116949729854363
Ni 0.18971912050321157 4.862993659495399 1.3938758109688465 -0.4538436738310184 -0.5530291204839444 0.2354881098731235
Ni 6.293552427688936 2.036942237896715 7.077879540920534 1.3975424065906576 0.3478165216659107 -0.6421538404667586
Ni 3.3748500796290686 4.02710863862515 0.2440026912127511 -0.8644876723461112 1.6475459364711367 -0.13886810995452856
Ni 6.0076820744808295 5.840061902352094 4.779823104422548 0.6909158403618101 -1.394263735839386 0.601273300202313
Ni 5.355621680017331 2.9779445358233527 9.250246519636416 0.056727277488715214 0.5430529831078389 -0.17362582515068808
P 0.036049731468301496 5.392498298035227 12.315917593286272 1.142630640775284 0.22968872958252703 0.6626064518941556
P 3.856741185476518 6.059439047399938 12.693013889816717 0.8112180143886932 0.43128147225978625 -0.18643171866610475
P 2.323181897733726 8.570363824798301 1.2902519738898313 0.6885879635595819 -0.6102382227050845 -0.39094214921079123
P 6.516262339875672 7.827526059454401 5.853001145581873 -1.7032054348169698 0.183872956799993 -0.7585078284791712
P 4.687176681700741 0.89163320762515 12.419789136031016 0.4089414140016892 -0.5194847088695956 0.4744186697688927
P 3.988925936187958 6.145703671424706 8.327925732645078 0.4005678452260134 0.48688003546069697 -1.278496730678695
P 4.605821133596774 0.9363274164534358 3.697627676282835 0.629364144901258 1.0326918122605955 0.03051410942845712
P 0.310262605673291 5.52186370789674 3.496424020368578 -0.40570670911447543 -0.5340093848483319 1.0716573948905155
Ni 1.6031420611155944 1.159478695099106 2.4906129128086314 -0.9766353355866602 0.7787069291348654 -0.6885874493389497
Ni 1.845182022707901 6.767778169116935 4.784753798292357 0.7364536768926091 -1.4964918259733777 -1.1973987376550992
Ni 5.919561909832788 5.545499332146608 9.317402678232956 -0.011796992634928071 0.4809551853358297 -0.8107516162752361
Ni 8.765772068882388 2.292178155863281 10.056738335837393 -0.3207541182314798 0.3847041387208794 0.7669767851821306
Ni 2.5826423232358056 5.202026152308202 6.930015471942422 -1.3043160057346441 0.30689021576519404 0.47286752323168885
Ni 0.5476970433787997 9.047562034215042 8.912515607503531 -0.4292497865417382 -0.88274456167377 0.919498738474668
Ni 1.4569686958995642 1.0988223331712808 11.460910595769663 -0.1622579496333786 0.4839458925330375 -0.1525522923098405
Ni 3.960903669785008 7.007115887083113 1.7921721094941434 0.06580867096469312 -1.5617896187399232 -0.9966238628934448
Ni 5.604615415207541 7.9375884423466045 8.044312653612664 0.37368644745413704 0.04839201815014246 0.6668053204668516
Ni 5.034658189584572 2.6752842422182357 5.114970671648854 0.2827609268171582 0.4259927130570212 -0.8654706050846708
Ni 0.9006334803959078 7.394617623069903 6.745857568821783 -0.9407741029136765 0.1545055593814694 1.5306080509307962
Ni 5.003780552416679 4.597570283058329 6.904018086763318 0.41499584772588527 -0.01582873950214048 0.7067420087607893
Ni 8.18072731634687 6.972383049008612 9.206530523000788 0.12510782294564263 1.0412309600798584 -0.013186931003919225
Ni 4.510242776540618 0.25992521140577407 10.265720850403397 0.032079397033047984 -0.6179828996475099 0.05031546042510045
Ni 8.215631296517692 7.166764440514769 4.61149854745527 0.46353827541096293 -0.0011544253194173666 0.9024422972130135
Ni 7.385402972304806 6.286490564345987 7.055916605475239 -0.8418884468893566 -0.4563641262600269 -0.33627972467090467
Ni 2.499097957794674 5.168986720239407 2.576607312470786 -1.1756351207257623 -0.5841438396108779 0.31128705928130906
Ni 2.258400110536678 5.126174173722782 11.397234926963579 -0.12079556872353388 0.010566462661936641 0.07348264257018314
Ni 0.9129169791724114 3.1634355457995484 3.620070581969328 0.342906485958803 1.4832755843934196 0.32187691898201337
Ni 3.572897514988007 2.765764366299763 2.570543477773754 0.4217560492678543 -0.34503407382476703 0.11197437088747811
Ni 1.2902492716462053 3.345017309996613 8.25545696307957 -1.0393599683093908 0.9081311200676747 -0.45575811724491183
Ni 3.5696998600304224 2.6912274796123925 7.231110265740136 -0.15390546390362528 0.16115546059781924 -0.2382152789962994
Ni 4.474374996143143 6.895071858865083 6.14505243071081 -1.4286398993264104 0.3364923549023431 0.22896882069736696
Ni 0.7742846751690297 7.179230791109975 11.275275466133408 -0.399969292410066 0.2883067963360519 0.1801181177432511
P 0.31597695019467675 5.620297435717839 7.87600070711564 0.4709499944940018 -0.6304951731819077 0.6008943195963393
P 8.514229217204864 1.7777340217997402 7.911647804283649 -0.7245489550352231 0.10214915726694021 0.2630763039040372
P 1.8564593861076095 3.2255691342429906 10.467835162419659 -0.5161715853359626 -0.42083302323295263 0.21148891874504866
P 3.939474877829811 6.349542915622313 3.975665125966671 -0.7145139393967243 -0.4237077736775864 0.13821479264124584
P 6.963123360849746 3.901661482021523 10.406044758916735 0.6264706254035469 0.3575401767115778 0.18436378039348247
P 6.3303119484830335 7.843631431466125 10.156984368383748 0.4312511332424831 -0.38279972260931494 -0.2072802799803398
P 2.490558867936109 8.560068276582752 5.893170897832144 0.696712135328613 0.6937977898952954 -0.5715829722267318
P 6.472837284803791 3.769116432159933 1.7864892911483958 1.0599663317058325 -0.036168222390440936 -0.595369018902736
Ni 5.107411595478698 2.7148180664684918 0.390848014343812 1.803909117886635 -0.8027382590524562 0.4664842454131643
Ni 1.442052311083336 1.160802794475909 7.033596973871295 0.4452340777851365 0.10955573414365648 -1.3211107086944798
Ni 6.898044326853824 0.8710295007237976 9.144595099089928 -0.2951289614642078 -0.8359147458044248 0.10383837204390504
Ni 2.5171309302597034 1.5524479706894287 9.257167866310807 1.0793048841334443 -0.7489970607752585 -0.028327129079467345
Ni 6.323880608652849 1.608429451144052 2.521052786509091 0.27685921662074253 1.046330486089953 -0.1975828501869178
Ni 4.058193447804379 6.686485673364245 10.44707112239649 0.2336510566643847 0.7577858627114821 0.7840905620442818
Ni 8.122665108300128 6.967311838470245 0.39083540387355675 0.0934662847809616 0.18992327675913098 -0.2397186030147033
Ni 7.603807309647244 4.018083144913882 8.164794887927219 0.2632765928403014 -0.5882606899927287 -0.671960639415546
Ni 2.929619412309426 8.188635882692672 12.23502412884237 0.973060216640892 0.1637777287120147 0.8931449310714876
Ni 0.12996530794651315 4.810326931222159 9.978442628266079 -0.13481168049696785 -0.46543960619873387 0.8882148407597219
Ni 8.635325761570424 2.427659643798597 5.714852543187567 -0.5385404399494661 0.14520870746057574 0.39889765661244203
Ni 3.8347989672323566 2.5641950067481036 11.27320644826367 -0.83121836877002 0.11421097352748072 -0.13348653392764107
Ni 0.8267415291873065 3.3736791073910797 12.62331311847224 0.10826169792258131 -0.7255861380504858 -1.0017249315654362
Ni 3.1321435646089837 8.298482086094785 8.024840286042785 0.033005251281427034 0.3650657956646616 0.19988218774405578
Ni 5.548336687954044 7.867176980928456 3.5795315230901523 0.08778723211831332 0.6652564879224929 -0.004492745664030972
Ni 2.977241952480559 8.52279532949969 3.491901365286315 0.6190092840294952 -0.8645511785941948 0.30194495594477677
Ni 3.467167729376363 4.326030828547456 9.345153819525416 -0.19564603817552115 -0.20398669683073253 -0.013502405361809003
Ni 7.340491683238555 6.083182761394852 11.258599019968695 -0.8531352234477694 -0.30335931979380015 0.5975302882201129
Ni 0.49293607629531083 8.888228742539766 0.2158299999146134 0.10429345730345264 -0.072462685946101 0.31213269511105596
Ni 4.515313987078986 0.17681951017995073 1.4414812369303478 0.8396824403769733 1.060361253151406 -0.24194749234522203
Ni 5.8886572502286345 5.688484049883808 0.5215690497577656 -0.7170852996683263 -0.04907361759819935 -0.02959262605545226
Ni 8.075574009375467 8.905108757724314 11.194672943253252 -0.4432769540587656 -0.8314117157277487 -0.6027154319654782
Ni 0.05103997761031023 4.997304175192727 5.828084657853219 0.37431662483896827 -0.9304490668385846 -1.0340089884101225
Ni 8.068115816967353 8.473146106608962 2.677697345776368 -0.9286678065684457 1.7179044315900414 -0.5912315996955946
P 8.395861938901692 1.556123022020963 3.6676093525880513 -0.3920598077550022 -0.0682933850597598 -1.3552292476447434
P 1.7707171958505605 3.26460754716179 1.3949440979490426 -0.44542279675717483 -0.8156451969221115 1.5948149246260082
P 4.716018628670284 1.211217653060708 8.300780794672745 -0.5404541120324111 -1.6158691741931464 -0.4413244583180851
P 8.432062996013057 1.5478541565250106 12.423506522512692 0.3032305075254197 1.6170454538894345 0.24381205635778658
P 6.367629932959865 7.639377843245845 1.4869771113677182 -0.9826717715887269 0.9313224705824735 -0.5609170078724534
P 1.729084629050678 3.1817207276696835 6.036289827002774 0.3473051292471309 0.4605475682137552 -0.8015295834563357
P 6.758491458521807 3.931827528367868 5.8828618383984645 0.5672002697780039 0.391571555264674 0.40901700443463107
P 2.2644351213016978 8.456977682245961 10.196099344871953 0.13006799516439535 -0.04725224811874443 -0.8110943443266354
