# total energy = -381165.39933658816 ev
CRYSTAL
PRIMVEC
9.26819867698455 0.00000000000000 0.00000000000000
0.00000000000000 9.26819867698455 0.00000000000000
0.00000000000000 0.00000000000000 13.56494560764865
PRIMCOORD
 96 1
Ni 3.0392740073337237 3.770794381964618 9.685154405796604 0.7164741484468887 0.10298502290467423 -0.666064328535769
Ni 6.156345273240472 2.552415537850639 10.399457247993487 -0.6205989971141183 1.0115971963738253 -1.8470494007195353
Ni 0.902322151946902 8.810618313082717 11.16659530962654 0.5000556536107065 2.5582419890525103 -0.8012030533548524
Ni 6.509343151161703 6.999056225796144 11.995779326408169 -0.6416910418977271 -0.6710967487533539 0.9853081807703095
Ni 2.0913968059064625 8.735351272712032 13.225835173866937 -0.013832535007718113 -1.1135182967903599 2.089442722352924
Ni 8.964961623425413 4.7113033655499015 1.309920841126818 0.9454098019134749 -0.6100705867789686 -1.0540692494951074
Ni 7.767399153239837 3.780507454038067 5.796463904261082 -2.8860051916119716 -0.29979397104004496 -0.04246485403243009
Ni 6.20010043856371 0.779474033894277 0.5926688581534374 -0.0718978145815665 -0.5629546071277725 -0.1689127359457349
Ni 5.985866029233774 3.9376682967379466 12.245713909707302 0.5216488064004501 1.0316340604200427 0.3872305046871589
Ni 1.3887839425323305 7.649943273099744 8.046006762372585 -0.6856656477064643 -2.0663192489615834 -0.5564384032758094
Ni 6.618967403532651 4.156397782361415 3.1662344250800407 -0.7888167638753576 -0.5821175532094685 1.3149387755558128
Ni 0.02117227275246827 5.987821619126424 9.320338647912726 -0.4978028530207878 2.6711411857471026 1.2582138120599426
Ni 5.074802112420768 0.1009798035895498 5.736846217130872 0.040495903231517354 -1.5983224235586344 -0.6549090832498979
Ni 6.81777026228788 3.3734296376162884 8.252559688749777 -0.40279673455653214 1.403557759546802 -0.07388939109029855
Ni 2.175505707687521 6.820838036005735 11.007817166280843 0.07815922211024603 -0.5441040500801726 -0.40774148015631717
Ni 8.741662915920065 3.999793031574137 3.5470971419219044 1.6583078029733311 0.07927302399971509 1.4065201846092357
Ni 3.5776080515266697 0.9320285819181029 7.613447887695526 0.4134151335023267 -0.5329074100334048 0.7896462017551885
Ni 7.782126320725248 8.812759266946236 2.279996304885298 0.14441809323848032 -0.029629907051290903 -0.49056879716619384
Ni 2.6239845670025215 1.5360556173864368 3.2474887217097415 1.3362601627414084 -1.0955141469034553 -2.3358379660568542
Ni 8.851861796600701 8.347718136834239 6.761867269133851 -0.7706321225465309 -2.19720871158601 -2.519759002485964
Ni 0.3574123208874364 4.0568944027998235 8.547516400113023 0.04224476760182402 -0.23873335628329853 0.026116751691709857
Ni 5.037117617143436 5.066219760569609 7.928127325559059 -0.24650348714702064 -1.5202475336320787 0.6489222695388437
Ni 2.5021911699441315 1.8627596160401343 5.351398522469604 2.408753166159342 2.2812357053309418 3.062658490735074
Ni 5.0769894072770025 4.181523868612484 5.5840636714228795 1.1339336272219183 0.8376021608091768 -0.43323525355204745
P 8.366106242744278 1.6189411169597707 9.884395650342935 -0.6185148608915799 -0.8976947552256991 0.6003888407148306
Ni 3.2268994186456514 5.945243515018195 3.880890385641424 0.7403332144526734 0.12418531113137322 -1.3844580626028737
P 4.475038448282382 2.5979687336912893 8.401963976088712 1.2428931225424722 1.9763427225014352 0.69937348421086
Ni 1.4174412124284221 5.879782228706391 13.34710584452748 -0.6323445676858207 -0.8392330115443803 -1.4539650083547606
P 1.4849136978241362 5.5553860114899924 7.273319830271615 -0.1172890982321722 -0.4216406067359126 -0.15860775447530104
P 0.2595596074864187 7.025767173998129 11.86182605286088 -1.875731856255892 -1.579348967779925 0.936046358420704
P 6.196643400507033 2.2945557179770737 4.498841035781458 -1.268131585394287 0.6836329335471516 1.0819880873925625
Ni 3.074511698195606 6.042633745311898 8.8050471989383 -0.8908206538136851 -2.9167247321830154 -0.30373341530376724
Ni 7.134770457066672 8.764258783968794 4.48938654644737 -0.060011090446309555 -2.140903352126061 -0.8766397343276128
Ni 7.195152770576709 5.73847000551567 7.578464145473732 1.0925499220688086 0.5150179313474936 -0.21818509981830167
Ni 8.825883036083644 6.015561337366723 5.421026790846506 -1.8937372916943773 -1.8211380801704122 0.4637218521766788
Ni 2.867951357259579 8.543481026467243 6.436498817890253 -0.38280126527121167 -1.2070473164884568 -1.4843832156353016
Ni 0.03623124174573147 3.149991907132789 12.80983949680673 1.6629213904859423 -2.3845608851838547 1.2561484448904818
Ni 8.390073804177426 5.045153145280536 12.551589485774489 -0.874420615189107 3.5537399658716278 -0.6460359491299842
Ni 4.190792067155851 3.6610403748140623 3.3793399678273937 -1.0284440927278353 1.2320685211231426 0.6841109016248348
Ni 6.682157981201329 6.337677577741453 5.288267261271604 -2.05326010178478 0.2379633108864934 -0.5823741493049648
Ni 1.7247376033323085 0.25998409097970493 9.123686938039414 1.3291829441796528 0.20893375642336276 -0.15641357503745965
Ni 7.306454566884008 1.843518835864104 12.13505069227964 1.0910676810963273 -0.8037391895131448 1.240355186611967
Ni 0.8870018197547159 7.465645145064885 1.5100907591671935 -1.1592250547988552 -1.5755172527386607 -0.09748183369825793
Ni 2.1620297470054646 1.7265634384453519 12.241521903506136 -0.027840419251035923 0.3031981116255875 0.775071132154491
Ni 7.8990168407541965 8.730985951198106 11.538952600665159 0.016102561988817432 0.9033560672765345 -0.9234404967312355
Ni 6.659182117012321 7.566575827202154 9.722430173518173 0.019723446570856357 0.33060555710426287 -1.409758231930559
Ni 1.8225356343619203 3.6337918710965624 3.1500920036770577 -0.039379787349203145 2.0122134682561152 2.2418469191206745
Ni 3.8667943824768165 1.628079560723531 10.258449021714988 -1.4965059670407646 0.683589739014042 -1.878145093683075
Ni 1.3140729940742466 4.504743024613875 10.94380449940137 -0.42938631211960243 0.876618137061058 0.8339522227614152
Ni 4.716938430264269 1.9036972490061879 12.296989291328625 0.3219152284191166 -0.7005736751665483 1.509514977705923
Ni 0.1414632948269782 7.7925715804836235 3.9224128419355635 0.007245111598187523 1.4623771436778557 -0.1899379320471503
Ni 8.574983633316148 8.697972627986632 9.0026470455226 0.5128864868267876 1.1803224988991028 1.2155679523649583
Ni 6.189525424025727 7.425977255299273 0.976609543731554 -1.1376972080294083 2.254664125490001 -0.3145970974911485
Ni 6.478739559571504 1.064174556749434 8.472203945569476 0.3530512877022887 -1.7388756345250698 0.025148474241169595
Ni 2.9369067544222314 4.922961215684781 1.325180003208618 0.14547481663776882 0.9221667722251344 1.1832373585530527
Ni 3.384977813001324 9.065391822841342 11.53305246547245 0.7618448632722041 -0.13604041069774636 -1.0899659633917165
P 4.841642041665277 7.4235119144867365 4.395937154174305 0.18998035524931153 0.1795463044001811 -0.3186542982796577
Ni 5.664333685367275 0.3372178430812933 10.685459952743985 0.8908512499413045 -2.121373252512934 1.1366451126158101
P 1.7471759120058006 0.018234253814220832 4.744272201408368 -1.0482490432689044 -1.4861991857981178 -1.1555234375775518
Ni 4.784679693417742 5.73657002481428 13.270151992021901 -1.040894402676046 0.743139830663533 0.31688100842931877
P 6.8885514945635755 5.5267194733953575 0.49932326970405927 0.3217303661018201 -1.3704692045229494 0.2534138411136087
P 9.01504696835377 2.0084556971418683 1.3507824748648158 -0.6363004670097752 0.41037300424189327 -0.24092342195608188
P 4.548479653540025 4.827350479511404 10.797764568133676 0.6368347422466903 1.2936623826755398 0.13856651955370974
Ni 0.3747392180642615 1.8056675130129918 4.627762604339552 -1.0412862387978261 0.2523203509391138 -0.210491844939102
Ni 4.431635474503794 6.80800158102317 6.497446491511436 0.2656301806741425 -0.20642513106889612 -0.548951350870145
Ni 7.759827035029907 1.8379579167380835 3.214064817302796 0.5568711199378539 -1.1244454852258248 -0.9593667783141994
Ni 1.321728526071068 2.1645785016048906 10.143120193140597 -1.6179078018897297 0.9625963409950906 1.0989306287841718
Ni 0.1342971237132466 0.5707708854550234 13.337203701203746 -0.9603689943264686 1.1983832130555554 0.14946825406787806
Ni 5.587676415215084 5.980490474078621 2.5958555844234015 -1.9906467978289326 0.653107768375101 0.985795147709057
Ni 3.266761940580674 3.9370195228399107 12.368299737741147 -0.9893926352523285 0.37848206907056753 -1.1477648766780555
Ni 3.4390299469062424 1.1754207438654716 0.9432264193981993 0.7306753796479352 -0.3196488009824431 -0.22459306022717448
Ni 0.8320098905175003 0.28877482293482115 2.4071810130363644 -0.37661647661673847 1.7294060044717379 -0.07766968406833721
Ni 7.0111882976894115 3.1711141316131233 1.0718449178639247 1.0677269494878578 0.30791582881623103 -1.87400793158625
Ni 8.694358030554717 2.1536791001178908 7.825074225955357 0.20794593858879673 -0.9532609225267777 -0.7335465305481431
Ni 2.7590407561764696 8.055705005328363 2.5481345569434573 1.7201042674548375 0.8721094505574271 0.9627719473410065
Ni 5.517154692498602 2.1100629577728043 6.564578834020609 -0.15464825560692078 1.181962862716003 -0.07290260169699704
Ni 5.427725844753651 2.2212535356975818 2.360354366715856 -0.4977264912568976 -2.6111817744743355 0.5648011734182079
Ni 4.441024159628225 3.4519683520727824 0.5974697849989016 1.2212320926292708 -1.2846717491411552 1.4317262515612181
Ni 5.345933992608435 9.025075159177693 2.908351434710117 -0.4292610993956479 -0.1914955063422573 -0.34590979156150103
Ni 0.6027693409259991 3.804725256831886 6.1269873275345015 1.7825437648369817 -0.30904197200087424 0.06654812023387893
Ni 8.44037231767228 3.6485190385819735 10.758738037707264 -0.6022809155312209 -1.187005567346233 -1.741746785425278
Ni 1.6973408084381147 2.862733361479663 1.1455206085447145 0.13253316887543626 -1.0576932194009399 -1.9626618825802329
Ni 1.896588540723425 2.558541817087805 7.873080713950437 1.2038887162548169 0.15718079222078737 -0.6192985331351399
Ni 1.5124958566891973 6.600801734387652 5.27235561801235 3.446646320115219 1.0129609094905716 0.9799649141805252
Ni 4.440783186466097 7.154307819596091 10.634537689487162 1.5747868023305394 -0.873714847371334 0.09532390681499067
Ni 7.024664258371469 5.341948667234788 10.044163637293064 -1.314887096382271 -0.9983878967724031 0.46230774543797154
Ni 0.9722432953977735 0.732991237739727 6.778892023038162 0.5098584986337412 0.41286080366075345 0.08080437304257697
Ni 2.8460876768957752 4.561955614222081 5.65019319484966 -0.37498022656489616 -0.4699776032784035 0.9612601386821703
P 0.783451017889236 5.696688966482171 3.063262885623521 0.9295887757208184 0.4719923197155871 0.43410351508961365
Ni 8.01346982456624 6.323849425514749 2.6339052467233413 -1.3477401383565497 0.862350057177818 0.37716309314882784
P 3.417657481065237 7.964867391404821 8.926493965371167 0.1391337049110894 3.9060371490167123 -0.4160736541710963
Ni 7.536787837083772 0.9346422139073325 5.989384237400836 0.4948471128265736 1.8096961568820575 0.9689749908279247
P 5.03286351401203 8.614577377493413 12.884175083223807 0.7556850143183953 0.18955535189675096 -0.5075259938458226
P 6.963364393205637 7.975173628185046 7.5307282888761184 -1.1799435182931293 0.19561441360663728 0.22284445296718394
P 3.0184205606111467 7.020132109283761 0.6270603624883104 0.6956243015810729 -0.037256313248297125 0.4893817188366282
Ni 8.270921843703896 7.847902725787526 0.12268221729869867 0.5034273982964169 -1.1916916599679928 -0.5152693852366674
