# total energy = -381164.3933171685 ev
CRYSTAL
PRIMVEC
9.28659374318981 0.00000000000000 0.00000000000000

0.00000000000000 9.28659374318981 0.00000000000000

0.00000000000000 0.00000000000000 13.59186864643894

PRIMCOORD
 96 1
Ni 4.525208573962374 8.64294927169703 11.9025084069615 -0.5777873012652307 0.244820700127959 0.8855586340837974
Ni 6.92778040271953 6.03847760710181 1.6327364190986275 -1.5666880844828048 0.23383386209915213 1.3929298475193106
Ni 1.8491558443453138 5.874179189565953 6.566109363823831 -0.0543430935272548 0.2276058789115693 -0.2076888282726681
Ni 2.8141629526327314 1.3015532676532013 13.248021623692788 -0.4432131907003657 0.8814908917723271 0.3108198898369034
Ni 1.961458623186661 0.5484123676716018 8.380514774163991 -0.5772725664123413 -0.22163243493695378 0.7807383577425974
Ni 7.608589880900129 6.6891799481779985 9.53199111402893 1.2918638960142204 0.7543693808307653 -0.4161361319779156
Ni 4.6844550844702235 1.00287783780987 10.030704417653128 -0.905510394615376 0.18387192835872848 0.4213621562635453
Ni 7.33195153814772 7.536850943783665 12.15473229460981 0.5759826439563243 0.019922449955539885 -2.1184303678345255
Ni 2.2771378062805097 5.768674197387293 0.3506515666908576 -0.04364421905251193 0.8675477993286737 1.4474233505815008
Ni 0.29800400911148406 8.986627535102354 3.844514249544912 0.3200735472246875 1.389461429354736 -0.4291734247778479
Ni 4.239487942472113 4.872675767638703 6.403441672159515 1.4290204225942806 -0.1937681044265179 1.8261974969711905
Ni 5.387858845369834 5.76358514398408 13.05455494368585 0.0026608346616147725 1.2671872192031468 0.5901100844966418
Ni 4.386076825628539 9.247422948829431 1.2093828955140917 -0.4425094797651218 -0.5501741675336524 -0.052579830979244936
Ni 2.2704235989620365 7.194370650978732 12.213572152936013 -0.48338744892640617 0.37654114329411276 -1.8394137385511482
Ni 4.994246567093931 1.6385266103338532 4.922689647215976 -0.7060223569859454 -0.2683699482028088 -1.164731586439381
Ni 6.612481969971541 4.814773855286449 11.060586741578334 2.269036335051273 3.4170302970209994 0.609211324102467
Ni 1.4946029795984526 5.1448565453664 10.484930293671317 1.334659908133824 -0.5182981447606623 3.2847395831736717
Ni 2.520780881256246 5.571826268577234 3.3785575482366874 -0.4753761485861555 -1.4133901722561917 -0.1882255773417339
Ni 6.570255827956193 2.4699739265683265 8.818635839211646 1.9777725129694261 -0.599844023954954 -0.5357225108846968
Ni 8.171608203302705 4.43858322698213 8.543278117744462 -0.10219877955795302 -0.8293018684735975 0.4691579355905856
Ni 1.8750097214886454 0.4969952837709249 11.0119417059274 0.7866845480237032 -0.6267825002170109 -0.13499628570394814
Ni 0.7359532721738128 5.804278998022183 8.612569108734856 -0.8263548700301317 1.4014126881793412 -1.237237981139224
Ni 9.025074033440498 2.331817270583648 2.246179088524502 -0.3418029684819791 -0.09840100307841762 -1.7871324126489287
Ni 8.341302131837224 6.021130249880638 -0.05766417555093532 1.0175310453597572 0.21650385546113682 -0.8147314268585905
P 0.3060136962652641 1.2729877051198364 9.597545179673604 0.16458376955307782 -0.7200240705816761 1.163995222493989
Ni 4.828694459394874 7.0468995414111655 7.474929793634129 -1.1008090767538072 0.2968261466609727 0.3412075009898253
P 7.392249391700756 4.131169112371603 0.9709598149141692 0.9919177156670274 -1.1193066213373626 0.14460629798988645
Ni 3.066377553687238 5.0492882085553275 8.643028207744344 0.30461170414366245 -0.29045418169635784 -0.3340804030267408
P 4.3979543791006375 1.9181366631027377 12.229419725258245 2.2829904832385197 0.6260227392328509 -1.4261600703273503
P 5.509030321291599 9.112145136923212 8.576020790169734 1.130383962197447 -1.3501708592852295 -1.5940672478267064
P 3.2628540187452373 2.505987337330482 3.310435739405901 -0.5078774636479705 0.3113544221841348 0.7861356174987687
Ni 0.451235592814112 6.438191177505288 4.576722238438586 0.5383352659171955 -0.9603954766890298 -0.26696869697990794
Ni 8.547984563483054 2.258787496928777 7.0728007801828845 -0.5499479104554593 -0.8754637117416407 0.6249433901257431
Ni 0.9981602481587161 2.0184875957215747 4.102936938555711 0.17076444444249297 1.3635125706994582 -1.670770711327032
Ni 8.248259748540155 5.74663711029637 6.518211898973917 1.6145478842785614 0.6478861149648455 0.40930496798869503
Ni 2.1362137453429884 3.7888188318798917 1.5376621290777939 0.37766908625096896 -1.3791582476565152 1.3251560824084467
Ni 1.5572317681956613 1.6862039829106725 6.077509160849448 -0.45081902807208163 -1.308665026731959 1.9889452417567939
Ni 5.280561540587486 2.4748308151265026 7.184104321531192 -2.642508866722391 -0.5369820943234107 -1.8814049953812695
Ni 7.5051743723268025 5.1366379098520865 3.9246928431081654 0.5624915514484248 -0.4102279940235968 1.4890590238444161
Ni 2.1587894548743964 1.0090627092816584 1.9610760155220397 -1.1041538248563243 0.43394770623803974 0.608359517625133
Ni 7.000522291966554 7.8382287724232285 7.271609108944436 -0.09962227708002842 -0.9315826662223957 1.143079298276928
Ni 3.098583460990785 2.513258740277044 7.681077317476994 -0.6579967210362861 2.6051769630411523 1.0774557467398476
Ni 5.950087807299284 5.35942329514969 8.781638049506535 -1.7078632453039555 -1.0123487298278695 -0.5461395924529626
Ni 8.559026323513018 -0.003005141754160252 1.4385221682906701 -0.7083975420863412 0.8631416998411781 -0.16886645608883175
Ni 4.255971646469747 2.263291494922497 1.327937409302598 0.5860850224976487 0.7850850647470673 0.27118453483346844
Ni 7.9741102129265435 9.227837522502101 9.376215003624694 -1.5395858289493745 0.2939110298967067 0.6173398667468722
Ni 4.9323699925946425 8.435059582857008 5.325742676750467 1.7395736890333588 -0.1572011039357615 0.164766060767213
Ni 8.231757471354918 2.7998151652094387 10.427178824138648 0.07909638921253474 -0.29024463678871304 -1.2716478260776616
Ni 4.144773972290777 4.802004788809409 11.204566091876542 -0.03865730736088181 0.4198066388509673 -1.7499799719683475
Ni 1.4563886461053455 8.916940935216017 13.579350574660898 -0.5798588390822788 -1.476144115554961 0.26899292649878837
Ni 0.03385613502207055 4.769018807626538 2.463893064947115 0.10304261561548705 0.5246965920878383 -0.6173900032585173
Ni 6.649674778146485 3.118113167755306 3.002280554610015 0.425766455978828 -0.8590089086197271 -1.8891244755127146
Ni 2.830210186721696 2.5435516092574852 10.17337807286285 1.9817291836243291 0.43533070262849544 1.3241147856281261
Ni 6.019551528934386 3.3653130081570106 13.062016721805342 -3.1280473005535288 1.2213665613246063 1.4590853603004612
Ni 1.030979070653161 3.2060014914925516 9.234111545274384 -1.3528877439957605 0.4172085391064879 -0.18319058602098776
Ni 7.975958245093039 2.6197666845862653 12.696762915021031 1.5548964911645156 -0.6503181214451058 0.9370298053798959
P 8.633346933706296 0.15519848426978228 6.265647193333093 1.0410252718269557 1.341848198352147 -0.09643410916003392
Ni 3.8944631229655746 7.134694999210397 2.443192318704227 -0.5030872413481788 0.7406759425040728 -1.5803730381690653
P 3.72829810007562 7.498580890727749 0.11927701078626167 0.6943660036939396 -0.6783745133616897 0.2510695092511483
Ni 9.307767235351475 8.159860662143828 7.878322712501755 -1.1390490940716125 -0.234899327249189 -0.8462894041705297
P 4.58788379552859 3.6045263778894396 9.21682269359416 0.17055155710073852 -0.5305335104845895 -0.2699144098717932
P 1.9729832860943026 7.715097825209351 3.4005630609086843 -0.08773015362813279 -0.9774465186340457 0.12281774135988527
P 1.985557334101512 7.707947147982208 7.9216400292887785 2.7772601262950687 -1.585856944101772 0.4809225323256815
Ni 2.7828485583341274 3.688997235107739 5.246311653988234 -1.7944243183246518 -0.8450874134426285 -0.6055266761620282
Ni 4.907649079895092 3.964428320665956 4.299488625023502 -0.01679675984236462 -0.02363563714106897 -0.10021234525554354
Ni 6.4735730998889425 0.6385638343182689 6.561175396537101 0.07172272245628293 0.32304034316249525 0.41632356539837334
Ni 1.656886206279387 8.257063439463963 5.7587254694477625 0.10499202603237402 0.7264073484002006 0.7132700396872941
Ni 0.46794310372236203 7.720586202146028 10.314611377373959 0.7551329984696673 0.8052795374170711 0.16863994190032247
Ni 6.481011661523931 8.140024497783857 0.508872837243023 -0.21794393034177303 -0.7346330787441026 -0.5071331292827782
Ni 3.5328338737419824 0.6441970821182492 6.66015191327332 1.6222164565674126 -1.8781983155185138 -0.9752603096160042
Ni 8.138120746054554 7.3220798889367416 3.1063126930117604 0.44087682925770527 -0.900995537464158 -2.7758485906595225
Ni 6.014053865403906 2.858562157597627 10.84712695377618 -2.7926263243384937 -2.8379134783110675 1.2424043558315119
Ni 5.601301917303145 7.04886829929708 10.568520781797236 0.2698475611895998 0.24793559160785683 0.27025199571687003
Ni 4.836495198188121 4.500227636636382 1.9200961343948508 -0.33401432567549577 0.7298343718038787 -0.3771057575483312
Ni 3.551314195406936 6.6289099544063665 5.247603419186021 -0.44639621641403765 0.9151252919973207 -1.1101203268524042
Ni 6.687526934481334 0.423039636714046 11.378786306229905 -0.0837328595432816 0.43225694879917814 0.3567418491799985
Ni 5.436854914266464 6.213994229949859 3.824262974442016 -0.04797652787927866 -0.24312402915182646 0.44261669476694737
Ni 3.4533406308012786 6.922069147531617 10.077827380579999 -1.536170118399606 0.6751845456694823 -0.8538710731725294
Ni 7.135047889774853 0.549983659342813 4.121231528344635 0.20333723617219174 -0.3370765095405872 -1.2324315608895162
Ni 6.100075583787054 8.067004010722789 2.720997057638103 -0.8288578389576435 1.6574112593009909 0.4121036137797548
Ni 0.49331129200987617 4.256779580130476 13.43118575653636 0.0033550325151619643 -0.25523546770337974 1.2660482205026968
Ni 6.638605158335117 4.069775440749991 6.719208149235097 0.39072849053808834 1.4387893290555867 -0.16126010449648356
Ni 3.2494813236711 9.278124427937138 4.005156535101125 -0.2874994699434081 1.0275688892117336 0.05659203746243156
Ni 0.9979652296888849 3.7613490874151014 7.17207539658013 0.2320379465409939 1.300045403383748 -2.3853029055562014
Ni 3.5421390407310698 4.028013628424717 13.204405278585359 0.08277435228475422 -1.3875847811573137 0.27275573597533026
Ni 0.6472904465135235 7.499240238887654 1.6388395685449633 1.0915438494017975 -1.4486232844268727 0.29199170138680675
Ni 0.7771838913336417 2.9607611223829595 11.665153284648751 2.408835955681135 -0.7625822556588608 -0.40935356183844335
Ni 7.86802016533839 7.902482714935697 5.101259702105953 -1.1799170359305677 -1.1767548361525024 1.988712042700065
P -0.19573632353202064 4.109800660034388 5.259577553233654 0.20786880549395811 -0.69270301416922 -0.6273201178880357
Ni 9.126362912033285 0.4512680958924172 12.12915237198362 -1.9568115944470428 -0.5785329211820037 -1.081095400374964
P 8.894207353589984 5.9137772255354815 11.032139118786247 -0.8843075352855159 -0.4037621837935949 1.5112083062479458
Ni 7.223316963857959 2.5007868448016506 5.1678863693347 0.983183935338455 1.6251858236083816 0.13841019648150354
P 6.272518344086811 6.103483763712199 5.781396830895326 -1.0832039620775344 0.5477771280563857 0.7118929568341095
P 5.806015591063059 1.0768176976572863 2.522446896184232 0.211251605923262 -0.0901341350839351 -0.6285871575259174
P 0.6321950882892111 1.78280313163371 -0.021915432712122308 -0.12113238323766236 0.5170910118264385 1.630806769339585
Ni 6.441051448396145 1.111400972974013 0.2742117557920818 -0.3198596314416685 0.47301690432535953 0.240841660875553
