# total energy = -381161.1408810019 ev
CRYSTAL
PRIMVEC
9.39468407618174 0.00000000000000 0.00000000000000

0.00000000000000 9.39468407618174 0.00000000000000

0.00000000000000 0.00000000000000 13.75006977471922

PRIMCOORD
 96 1
Ni 7.927582019247256 7.8328178410610105 2.6480025616234726 -0.9393458551075823 -1.1367281592479197 -0.7456289156339739
Ni 1.3756541932818265 8.343475288219885 13.668518440450264 -2.900428309015837 -0.11472056617404759 -0.3354898817797577
Ni 8.650766009375227 0.5157484264549125 12.176456595828084 0.7795613067153606 -0.2847085374618323 -1.6286046194819437
Ni 5.354378053230333 7.837270921308882 13.105232912615117 -0.3244043133895574 -0.1445880431574413 -0.4538403313969087
Ni 7.385743615669213 4.152619462033111 3.9982319214141286 1.0077999341149224 0.36444847379563683 -0.2836695546743566
Ni 3.4453688560831797 0.45227606195982833 9.622944827084499 -0.955097204404568 0.004042545500489813 -0.07311574614906761
Ni 5.637486857596597 2.6927888995088174 3.2885490317591892 -0.7002929107013358 0.42489022402146187 -1.049607871289644
Ni 2.493452492970128 3.04182959665897 0.6148670407063238 -0.9308280474445582 1.7952059336856825 -0.2722605415064666
Ni 1.322658780458528 1.4953706523506607 13.064312487223443 0.5339083404940934 -1.0932742018293429 -0.1802477013425799
Ni 9.395529588805644 4.981474858549391 10.600739786929172 -0.9505257829838016 0.9787392693035403 0.10157837236513474
Ni 1.383329650164761 6.679836449540897 11.314809054575104 1.1290333617068233 0.14534806125191743 0.9072543738896762
Ni 2.118557625266932 6.135733927102649 5.1089626002786455 0.4682889027220709 -1.6695936602997954 0.9267883301575458
Ni 7.058902556969948 6.896402706658905 9.554896311980265 0.2671910974033592 0.02990115843480657 0.6825186174370503
Ni 0.9661305201067852 8.279422332249446 2.7495600358587393 -0.011997281571192241 0.6451784862256953 -1.1763090068643354
Ni 6.167121566571296 0.2697439268122101 9.149599307167074 -0.035191203189152295 0.062332025270002325 -0.9543487562743176
Ni 2.542201508595034 3.672654447721907 5.168376461256683 -2.4856422633079127 1.541726272331145 -0.5892983872286237
Ni 4.667889699069001 0.34165835441011577 3.21537101915424 1.902672646510794 2.2721296292646156 2.325577464671111
Ni 8.263921103538502 3.3206920038268426 7.291221820331902 -0.592214018213522 0.27122361560152 0.5427321094333104
Ni 7.256378816063323 3.4354480697081744 13.541302205090552 0.5002047775940611 -1.2178438928833284 -0.29913756840296873
Ni 0.06627949609437532 3.1974995116531297 0.386782900921881 0.37004113739206596 0.4041771598438265 -0.16992935013570734
Ni 5.820852301220979 9.006655431210396 1.347692795092501 0.33239324513230495 0.7640367287172003 -0.15031903210394756
Ni 3.289022523836178 8.218507200757465 4.8096507843016125 1.829557928802991 0.0777560731345564 -0.32151747876006564
Ni 4.736010553240555 2.5132095135635324 9.529692253564672 0.5448789805729841 0.40803587146828435 -0.39300006018108447
Ni 0.9521042567943966 1.7868595149049034 3.775933967546699 -1.3065783194062595 0.942830471222073 -2.122414806403571
P 5.22290884439338 8.623568399000566 5.847904293992596 0.15779554298665083 0.1598197725055312 0.2876709625242659
Ni 0.62108820049565 7.4497402035352485 9.010599319581823 0.5055624423615487 -1.1543970372825925 -0.8012138519881299
P 3.219210626532521 6.379075033812288 7.308038304812261 0.2651797234002852 -0.2814512068667992 0.09671564495619472
Ni 7.795783996467953 1.9879903061004358 9.59929464941363 -0.030026885379393443 -0.06314526519991706 -0.5414992654674738
P 7.611441505700577 4.00825135197184 11.404362940977657 -0.01556854386221835 0.562600052001831 -0.8509256173909603
P 3.411078259237755 5.544141276704504 11.509110849922159 -0.10385071333907922 -1.0607438333018055 1.1246519448096761
P 3.4872597523390008 3.9737258880247346 2.9886190455705317 -0.9347896031954674 -1.210816810833218 0.2748033625329784
Ni 0.7022657865838537 2.3320048472746153 6.452137491803211 1.8333901580648875 -0.18796152504706984 0.36601916071686635
Ni 3.159498014601146 1.8878899473639978 2.405340690571894 0.14198017322094902 -0.3235378516242041 1.0815096050942472
Ni 3.2806800443844697 8.19480441285582 11.816796147808322 -1.147295650351121 0.10223554633315941 0.882104871207242
Ni 8.34468720246456 2.5414405391855874 2.5127425977653908 1.0606055079517283 0.8530367501966922 -0.12641600023410485
Ni 6.485357094664971 4.772847109468201 6.92049255554412 -0.6385450400695777 2.350221745582352 0.9430911810826274
Ni 0.07515465413269658 2.640357167729553 11.270698194474193 -0.8028141065957142 -0.4491095015801427 -0.10792668318066573
Ni 7.362670271600073 8.498572127485945 5.19730645137334 1.0600691758322838 -0.9103039593492775 0.4259960554911309
Ni 2.427511205502173 8.97101199985929 7.587040692772736 -0.386528850634444 -0.8552378716130691 -0.5249544737349152
Ni 7.444150366515241 7.002337164201098 7.299898750536404 0.20079955735200258 0.7560233714944206 -0.8629252129549978
Ni 1.153159890517391 4.543109505287924 2.0888140555100514 -2.2213961074654907 -1.6782302529288708 -0.4538758126205344
Ni 6.874221857576152 4.257708398009252 9.177992860823492 0.7516681798495183 0.12606967263827967 1.2731321239326718
Ni 4.902766195434058 3.810371121463572 11.822048715670316 -0.5492938218112282 0.9506671936576725 -0.39416425569251473
Ni 1.1162199927650052 8.05193005756124 5.099763325640004 -2.599734708979658 1.8243645575275096 0.8362621018415145
Ni 4.506517210846026 2.308461769002113 13.716422873977525 0.5210137439196124 -1.8819402990594494 -1.4511347379948172
Ni 7.751394114250245 8.04593624912634 0.004630639776742396 0.13856189156801943 -1.5479455137679794 -0.3018444258111705
Ni 5.82922296472489 6.46112820445556 1.3733637693062333 0.342726508737513 0.40203594513110763 -0.7191306122331292
Ni 3.186789571816477 6.831494834438346 9.87792594735345 -0.21006761291748982 1.8350127812699752 -2.4978922843198594
Ni 6.282366156024124 1.1387766292104473 5.113871322703778 -1.0219664554232917 -1.379684038252998 0.6228628534476305
Ni 8.419731938793669 8.928369528878088 9.500665498202125 -1.4930743156513964 0.8900274684884284 0.05029489159981016
Ni 8.045419541502643 0.8109434918736814 7.229470561957936 -1.520058557549724 0.6234688624627456 -0.04431810519108497
Ni 3.080103539548904 7.140955727613218 0.5730174810603983 1.4745320338728347 -0.8924162804355792 -0.3620951430721119
Ni 5.538278993846547 3.87882078957748 0.9808313217352018 -0.37161053876171485 1.5405178538453406 3.1320476799621737
Ni 7.460158908165818 0.5023732147483835 3.1975511824155 -0.6431761110836859 0.835037485405794 0.07405959811957567
Ni 7.022836364835815 6.071652787080008 5.024399170052608 -1.3487613805322127 1.5568973236446282 -0.6960853003778915
Ni 4.919779968279828 5.434232867801868 3.203669940148493 1.6859368775445094 -0.5038444312291775 -0.8143915270206684
P 6.689945129597247 0.22089626700459783 12.69303269394932 -1.4027692022072358 -0.5233485627003762 0.2309673391846345
Ni 9.378957366111035 6.380230579952559 3.6677485437019945 0.06045563418289589 -1.9243735285229957 0.21524555757400346
P 6.545041522544144 1.895612377667269 1.5421524211318869 -0.00010567233992885026 -1.0157551844062571 -1.0328388793614212
Ni 8.493527182141838 5.283297873577597 12.959852995079805 1.9407062042447483 1.4486991319701308 1.290953725495125
P 9.167276344707993 6.816623049559905 1.0801838636198875 0.8652939702974904 -0.4652511443370116 0.49583878731588155
P 1.4676093609319676 0.7727766483821138 1.4681636472919346 -0.4786640753088079 -0.23200349375863272 0.13894755704221232
P 6.164331345403327 2.62658456088698 7.786952993444747 -0.22312753142524153 -0.6632057760410514 0.19867968279552234
Ni 8.763145220187546 7.505976782361746 11.307713249699118 -1.3329357263538657 0.19148213660581861 0.7172256819009325
Ni 3.9766382400855784 5.083735994621294 0.021014968790008245 -0.07141856095230281 0.480277956763147 -1.0735078178356932
Ni 6.57629763643585 5.909246883609637 11.907024572526906 -0.5271216565895631 0.49984122360705524 -0.24114042306289438
Ni 5.1103323452156495 7.727155829356767 7.972922643492568 -0.7844975676747135 -0.22259197063674568 -0.3880020927458608
Ni 8.386709624297323 2.253333762895551 5.139789377108478 -1.7609097315069737 -0.9494268934926682 -1.6523754966492958
Ni 5.147554083490053 5.621487710630088 9.974424384218509 -0.45332996741939346 -0.41606105576560604 -0.06820571044195996
Ni 1.7340707851310841 5.3150143269885985 13.30521379448082 -1.0712293062141613 -0.0926594726089501 0.2611690595789954
Ni 8.999280604217613 5.4086699324549095 5.957121254147883 0.31211803982303665 1.4410688691183826 1.4957965996785658
Ni 4.4871077935631085 5.668282631969009 5.34111839613783 -0.10796370706618824 0.4415584287057622 1.8920493624689931
Ni 8.475132390738182 0.7959589707864343 0.7110610898076034 0.38312496715921757 0.6476086929337428 1.0562472309830324
Ni 0.5669813965471968 1.0767059515781954 8.684365157473302 -0.756104361244001 0.16853555511197427 -1.3713621486508643
Ni 3.658318159835299 4.137343705739779 7.268575934387822 1.3215470249009498 0.7370080067341823 -0.9268880889602037
Ni 2.5771121545888964 5.933776403709199 2.7196398460413946 1.4128443270550504 2.682929693741599 0.6644010819007332
Ni 4.064206090276319 2.2527982659037185 4.959361651191922 1.0280841382852552 -1.8890756245526499 -0.06279173851524024
Ni 2.5160091294155698 2.181135615838815 7.865329084744101 0.7229003636882065 0.15276132299685305 0.007587839649586933
Ni 3.2533133296966006 8.531857493136174 2.2993695937618384 -1.1292056256186294 -1.6202637037164158 0.6326209612756589
Ni 5.551497314329153 7.699093908047923 3.7120510553578763 0.4159772378025481 -0.6263672670564633 0.17181782540767185
Ni 2.196749580758567 3.4125908033725803 11.736138087749039 1.4169336666330759 0.4246032889086623 0.14589416356337456
Ni 2.777942315894277 4.499132989169175 9.31634555467651 0.378592883616819 -0.36691441883762616 1.4633562197616734
Ni 1.0955986612374142 9.355686733676482 10.604892237286892 0.829870596492874 -0.44947639800125816 1.4250583526227392
Ni 4.503651832205518 0.9369844522565811 7.368607711930568 1.084660749128719 0.08138749923955661 -0.7653947854069915
Ni 5.093825885309509 0.0004039714148913025 11.099317549314389 1.882863839314983 -0.130885091749052 1.109921837688353
Ni 3.3702959357018676 0.15273595515996113 0.31394873375379256 0.554880057649754 0.7594503948980985 -0.9884917207046137
Ni 2.218037934854932 0.9845534955626422 5.2284366764985455 1.3743500276345944 -1.6272987561863264 1.9150460804744824
Ni 5.987213366683658 3.2797875493980815 5.49792412843572 -0.5119140956111894 0.3785126651981868 1.091416322684998
P 3.6114105022875718 1.1780651979796433 12.05728502843515 -1.053572512364347 0.23382434901745536 0.09438545416112132
Ni 0.6384627292096028 3.805147677122187 8.8012820006901 -0.08325566279654693 -1.1384212306796264 -1.238101357580784
P 8.81339738526321 5.568802322381009 8.166193841997448 -0.3706754285419552 -0.25439574541090376 1.166950448467571
Ni 6.5724458159682815 2.218488879690159 11.684658037465786 -0.5236856343248207 -2.3903314691190447 -0.6313701195876933
P 0.17639928538852423 8.886816841248688 6.936401513543584 1.2529217104230679 -1.0600540063236326 0.10983418461602373
P 0.18292013559959525 3.9878554928618626 4.673937057203083 1.6071500491525934 -1.3852062536228078 -1.9126212730830736
P 1.8481128550233057 2.1755082000825383 9.9199605822755 0.8919036024652188 0.6799943083532999 0.8456355726366146
Ni 7.549615089854074 4.693800237726447 1.815105572021466 1.2710572436815142 1.5360071104591806 -0.6920936627199952
