# total energy = -381166.23028626345 ev
CRYSTAL
PRIMVEC
9.29314670984198 0.00000000000000 0.00000000000000

0.00000000000000 9.29314670984198 0.00000000000000

0.00000000000000 0.00000000000000 13.60145957551989

PRIMCOORD
 96 1
Ni 3.1057788878207884 5.804573713316139 2.7391977096659232 0.9893216728050769 -1.175516592870027 0.625649157943516
Ni 2.0035652349891553 4.82970404838343 11.911477647804324 -0.8117833999738601 -0.5491850641475059 -1.3430388762261387
Ni 6.4023089028117806 0.19081060330846272 2.6524201653177832 1.8838812248359038 0.22918016537722466 -1.2450165966433784
Ni 3.396291943772643 1.917743026111788 4.597687633037907 -0.9883955614463816 0.32384484134166164 -0.3473997458434662
Ni 9.256856865370983 9.004259847558778 2.487135977098043 0.28524152714716683 -1.131562041665948 -0.5855404628480883
Ni 8.877724363414302 3.4756647089076282 4.519247899821848 -1.0085023594985858 1.4009378054254518 -0.5159407002720792
Ni 4.155356158293849 4.1354037725375195 5.474519247883796 0.25957163318488846 0.7805681507133202 -1.5334622325501397
Ni 1.320593304852126 1.1395721021751106 8.417521238438296 1.328605474409628 -1.2573905448276987 -0.34679296549740274
Ni 2.281932148331078 3.0189530191103127 13.20271947842599 -0.6358988606959823 -0.4233352208295161 0.7329742029844409
Ni 1.4340812111661927 7.657785129417701 7.1300487080787445 1.2913255070122471 0.21817352985407587 -1.4014427700863283
Ni 7.618772499978915 2.805963392119476 8.745357429776536 -1.0463646817619978 -0.050198989451894195 0.7556544181907761
Ni 7.666910999381705 6.390711055851417 5.9756103592830465 2.404002281737918 -0.3455194981016178 0.4815845913897126
Ni 2.111718875153183 0.3213783837639171 5.89067007001829 1.6227363336266245 -0.6537474588416289 1.1973012928452864
Ni 6.529652890710705 8.069731732029064 7.254446768504564 0.2909846002785311 0.34192098211708216 1.021015661474248
Ni 7.183955463577926 5.47892327005889 8.392590514046814 -1.0040448379478644 0.005581864963151677 -0.9683784948945063
Ni 5.1075505455155925 5.438962739666612 1.0756770727071803 -0.05732788718719158 0.14435535832134494 -0.24636799001042087
Ni 8.296549561164948 4.066513676770555 6.760074602099178 0.35889154853314964 0.5082587582467891 -0.12695387501544586
Ni 0.1262724880956147 1.90928626270319 2.8075450856712822 -0.2856606169624564 0.8442659459825976 -0.7764309886164952
Ni 5.5442076249439465 6.026159500914617 3.6384174439927506 0.12653838474458207 -0.48856179403849403 -1.039999915886235
Ni 4.149259854122377 1.6639936581208286 0.09299465942545074 0.9991502288597245 0.27550450236506097 -2.1305772876097047
Ni 8.356611167659201 0.06847748005779834 9.585574047007174 -0.3126962809240098 -0.43219549943362334 -2.307048038408356
Ni 8.954337064008241 5.553472892106993 12.57767730695252 -0.31232449940688795 -0.6817673410933226 -0.16159743323124426
Ni 0.22561064939217434 7.792814549557186 0.34972991541990756 0.33957973557841514 -0.7752454529488261 0.5371584720002749
Ni 0.5237570959636139 3.1172373375821087 9.187935172905568 1.2361550324876904 1.1774117530102108 -0.05602279522252287
P 6.800362251251875 3.6983563809518456 3.4850610094377754 0.13667470184763558 0.5215153661463793 -0.18445865410013393
Ni 5.343503537762085 1.4308193167085905 11.570461915953913 -0.8415578030228151 0.43655094818884166 -0.33135991877178417
P 4.984815958331685 8.278985514085553 9.301521586573626 1.1311781759639679 -0.4004153788085491 0.48536334170585443
Ni 4.34716670417678 6.7790437729449255 7.7659843060000835 -0.120749803087263 -1.2706939468048244 4.027858845011915
P 4.118843385291233 8.064555449371273 6.352125911156364 -0.9180177830537675 2.846489907126169 -3.270004333846026
P 2.2830380327768176 0.2774115778711492 3.5300816581553067 -0.47461253094725353 0.016070937419933613 -0.5416067375796156
P 7.850803784359002 1.8885439594856175 10.819240187850854 -0.12439896980407607 2.212877785581834 -1.017434886101525
Ni 5.85805577201557 3.392212252413989 10.359116054620971 2.2353122033259503 0.02842997320591878 0.23531558885100118
Ni 5.4927979379369525 6.365387231358637 5.880481993397581 -1.0683645830718569 -0.9589644006694581 -0.7065247505436607
Ni 3.4516047523528366 6.595150987967627 10.087019227291995 0.002791703812524224 -0.283958289559369 -0.8179067392627785
Ni 4.11779325972511 2.2566919621577233 9.268578311181164 -0.2814419508954185 0.12739713320045154 1.3542126334547708
Ni 6.189709587978264 0.2149960173423932 0.13093207180228625 -0.26489073140495667 0.31303335254845444 1.1327948856317844
Ni 6.298848301682195 7.014067450531131 13.197618470255684 0.9590258500350128 -1.267176163459553 0.3995807987223957
Ni 1.7757251597269559 3.067890729120948 5.941946865028864 0.3539383182929324 1.5644867059561123 1.088647501690609
Ni 4.548660708819885 9.084524754767637 3.8940430982828267 -1.4314542288467542 -1.7297960408213047 1.4363102713874747
Ni 4.080276826889383 8.321566711819834 0.017536167639587635 -1.6151670059197991 0.4816807506479446 0.3069472942553746
Ni 0.48595536352718005 5.639703999434887 7.822362109180965 -0.801736043040187 -1.8526004124447515 0.03217838450475749
Ni 7.284219222276131 7.357077491642515 1.8410931529314392 1.3038472936283416 -0.41304283776457246 0.1442676837035451
Ni 7.965193125893546 5.8436142221947325 3.7088325451172444 -0.010425823319014302 -0.7126840852768371 -0.6269573352319783
Ni 0.22206345533386454 0.6372069003766091 13.019793180695391 -0.7548527482250871 0.649566587991062 -0.9633748710323279
Ni 5.755812573090958 6.089910486610203 10.570999797166067 -2.6052080733894036 -2.7183710652683444 1.1132331614497728
Ni 3.663897393348459 0.3408856277979703 8.004935267340656 0.16777887945160783 -0.9356493800926016 -1.381973605618123
Ni 3.963146007106997 6.350313747568807 12.25808413665101 -0.3407573008262841 -0.11366924209139778 1.8227992699229187
Ni 4.076410877902596 4.067043386126918 11.583492766120436 0.6248387462270787 -0.5151313169969064 0.07889969982069639
Ni 2.7025120841364925 5.238816241280921 6.914410534306094 1.0242416246107136 -0.4999510097120422 2.0199581451985407
Ni 6.863406957805644 2.206546143088717 6.526143798553467 -0.2455570640733513 0.00959895654234476 -0.31177608310258564
Ni 4.121584863539074 1.2000054345334776 2.1724254260216744 -1.5253262337065665 -1.3066338552345431 1.6380457102901855
Ni 5.985883003537842 2.333945889867258 1.7299833628330425 2.1596078705140997 1.5396074262159292 -1.4072195246691055
Ni 5.104074908686124 7.7692843023587566 1.9641455657291642 -1.4045622895519168 -0.8017926073097352 0.04374114964169241
Ni 2.6093668757360753 7.898886524882174 2.006092970865132 -0.420203874289386 1.3284162412169573 0.07029318909860797
Ni 0.7144162209824501 0.8299439729758437 10.792078178960029 1.6890016325127621 0.16033245047589162 0.5663638899196375
Ni 6.195341234819595 0.8359919527849817 8.787725814453614 -0.9306655537247649 -0.2520575841960304 -0.05108113494653138
P 3.8590162994220054 3.6962561298196004 0.9804028044200491 -0.3184547806743419 0.015819226420443724 -0.4823165844597306
Ni 5.5628310907360685 1.8535645556724705 4.058471387700444 2.373261143900319 1.2345709758300223 1.0415906574121223
P 2.011706031413256 4.908482052135833 9.136019009408718 2.132069041663883 -1.8875689581001363 -0.2876298248736853
Ni 0.5863009019154891 4.659918259949267 2.432634460216278 -0.3363709988331304 -1.3074846332706127 -0.3305716185425339
P 2.167830894341223 4.370836348574252 4.201831184454728 -0.27525561957904854 -0.03832152128801787 -0.4939441413963299
P 6.056854764143847 4.789789983724167 12.25378605634719 0.2476085472857413 0.5016029434931684 1.2803216997025757
P 9.039722494995273 7.393339349686855 8.543484264752035 -1.6547481106465305 1.95399392249259 0.5994097646310128
Ni 1.8828844332044785 0.829600126551538 0.859199727796292 0.7018579411956106 -0.6656274981086665 0.8463613950590456
Ni 4.659109756194819 4.6303102948725705 8.7898344294178 -0.8001432446317703 -0.41018119994606134 -0.6511131065425754
Ni 5.28981702983739 8.346528103595103 11.730251995902044 -0.5713294614550289 0.02528088605397582 -2.822433380397597
Ni 7.2522879705487195 7.2578545653638304 9.946856272969091 2.3796300235411407 2.748722938087324 -1.526364959383726
Ni 8.814698243153739 7.841027394132799 11.554834560626551 1.3773872717990214 -0.43800567835749726 0.31065482501394887
Ni 8.987234802982348 9.123676781405466 6.786978261514443 -1.2667727573735474 0.2934068365667786 0.6760132122183649
Ni 2.2483560096549624 2.82039564879371 2.2146711411635933 0.06690216113918801 0.9480737218988833 0.518639587260481
Ni 0.9943295139190877 6.265123472660434 10.323398774967558 -1.3958315945471378 0.16605264078912046 0.07205850852914687
Ni 8.526192506868101 4.794733937716886 10.170817388839259 -1.0934837467369878 0.1988833141658962 0.48198054127655054
Ni 5.377061090144995 0.531475054217285 6.056253497558642 -0.6637536781247214 -0.20985138314162569 0.13150035673554772
Ni 0.5220202068635402 1.4930555195079114 5.1034308936265464 -1.8008739306047372 -1.00487196183485 -0.8238585859708393
Ni 4.07606703147829 2.5154782156074305 7.025303794088644 0.4798092446568446 -0.4688023520233798 -0.1202324971312123
Ni 0.976486672441606 6.615103373723958 3.3618459665744997 -0.22644039784855838 1.046406590743527 -1.0443543362001886
Ni 2.2944686030983297 2.6233065956403583 10.772532833024904 0.819721166763698 -0.30146647364646145 -0.4401978009128096
Ni 6.635325260731771 8.18887916462427 4.6643891927799 -0.7914410888720821 -2.507021243204321 0.07306380986520966
Ni 4.543447253575683 3.7136714865533516 3.045760959115569 -0.29974254897681923 1.067973004060393 0.20445823715051237
Ni 7.307712296888148 0.17809386149711579 11.728987198649397 -0.004821589758359438 -0.7761417395108503 0.6179327631358649
Ni 7.1902469238280595 2.992997260648538 12.772559237787693 -0.20721317418783022 -0.32341855243752043 -0.22432103751271043
Ni 1.7869141082367936 8.020124915463022 9.275868784691106 -0.543349174192019 2.0900075937174587 -0.1392162373225667
Ni 9.076198095411481 8.080344505449524 4.606501253276055 0.2007612479148994 -0.5675931343410482 1.3329889481893042
Ni 2.6993988800245363 7.625389220360148 4.727227591479086 0.14006855802053297 -0.40206474148651394 -0.45209609501229236
Ni 0.13825135406669495 3.172159834004982 11.63623880760892 -0.10127909595716106 -0.29777282684495815 0.8619384235616963
Ni 9.216989266444736 3.1176462360326345 0.5843893016592819 0.21976041472522154 -0.6616857398520992 0.09391699916513502
Ni 7.598782941636173 4.983682194446136 0.7626076913208759 -0.4972444094141565 -0.011285857326464435 0.7159920666041476
Ni 3.3529951737499406 0.021778489063791005 10.256397975904953 -0.17900662984662719 1.2299669013991077 1.8822984537298162
P 1.4010069024066314 6.808503047675976 12.32324860994489 0.48620640643244006 1.1188541071809763 1.6364673100594718
Ni 7.73378448233585 0.6802778469368618 4.4991040752455 0.7199196837933279 2.357385096100011 0.4551693346209774
P 8.087277192815254 0.9429291200586961 0.9033533259357772 -0.23348162096605599 0.760503261642645 1.3413170084390256
Ni 1.172125994724912 5.933897141441471 5.57393268366784 -1.9863211738703854 -0.6436306821226012 -1.9033629877095994
P 5.835612822969675 4.3495643360003164 6.871974309658817 0.6293173508237226 -0.37640333216466787 0.6460518899695842
P 2.8080543501051185 0.5178020476205043 12.406965921116711 -0.5114664665508095 0.5603040568788028 -0.4243970864351272
P 9.043969462992779 2.004057771759107 7.26774897855189 0.13973945681588837 0.34698554112418306 -1.0363540916035312
Ni 2.1567255841508106 5.6914110671331715 0.49594456681058907 0.08353308482764969 0.14516088494177581 0.7781788245455372
