# total energy = -340886.5171499568 ev
CRYSTAL
PRIMVEC
9.08364337396511 0.00000000000000 0.00000000000000

0.00000000000000 9.08364337396511 0.00000000000000

0.00000000000000 0.00000000000000 13.29483026654481

PRIMCOORD
 96 1
Ni 6.635283451533818 2.2256015949117396 11.246921039709914 -1.2160158385356543 -2.3745901471243878 0.5222535298639844
Ni 4.544900969734318 0.8222668273150784 5.691011486912248 0.5726345534196977 -1.1765231797576705 1.1493301642826463
Ni 2.7642888893424242 1.598158022486987 4.298830524836917 -1.2542391436829108 0.7289339714767963 0.936392171795897
Ni 3.658609899845748 4.724775272962088 4.9624415311436865 0.5236748356915433 -1.4735316176327784 -0.5136945845503799
Ni 3.7099324840916266 2.8315441838125994 2.3397702732042625 -0.5677072913214094 -0.4585043125314813 -0.35432346954649296
Ni 5.027705691017986 4.7131027914123615 2.436291249430787 0.3238708094835906 -0.31107931414587714 -0.8123377298154331
Ni 5.1637241647344085 4.269984507397764 11.42091005048938 0.5564098640307191 1.3909084462139079 -0.1720062872693941
Ni 5.767214169963342 8.058726680147311 12.477277806018536 -0.18481012390228174 0.5891304941921919 -0.23486667423904067
Ni 2.14423940250637 6.453774092524763 0.06312314516513953 -0.8341687096475956 0.10573893150072758 0.2645724288335895
Ni 2.731088173339116 1.378869791287028 -0.03615653351014109 0.7377770236897229 1.256714858916913 1.143867084285546
Ni 8.015025272570863 8.892614212245709 7.125616696325978 -0.7872648460072055 0.31540776631790196 -1.0356874045538098
Ni 8.698433170931699 2.8578685818912817 1.29111907259845 -0.4041758742922459 -0.7250531483651512 0.2404392832308117
Ni 6.9649651989001775 0.7661508045370666 5.10820584568089 0.23142885220208528 -0.27262615237600146 -1.5200667850798402
Ni 0.7361784153374732 7.420300983058263 1.8064486868291605 1.1973956523313054 0.23798259416020304 0.6382902437462943
Ni 8.229889769518126 4.101800853006179 3.4537573944658866 -0.870359557745856 0.03845110488734669 1.6061162085714404
Ni 7.654059457922592 3.8225878274221388 12.574037682061993 0.0354727389853131 1.6694512211846602 0.9747293768131987
Ni 8.392786743550223 7.486802335140402 9.187964330026706 -2.5973937195513073 -1.3251951631764984 0.7308813250111541
Ni 7.4027695516256005 0.616396953893529 0.7266060721023745 -0.10416104549064643 1.2545438194075234 -0.7679882571657806
Ni 2.406039084019729 6.504587992749798 9.011115788358635 -2.169482963535967 0.8713833710246799 0.6520435887766448
Ni 0.21205310936777425 5.222731511152326 1.3210778363331994 0.46326033915922793 -1.2698575669464582 0.058910144072646935
Ni 6.587131058774985 2.2546874205321474 7.024310456846227 0.05716487924676607 -0.1262591629412664 -1.8634612664186552
Ni 3.4498586947918457 4.2645615723898365 -0.03442155765333349 -0.5974503269117969 -0.7157665808569028 0.6277124682304479
Ni 6.00280754076 5.481797016053648 4.348818721892403 0.8933382780292163 0.7327034658215574 1.7391106333540114
Ni 5.8210529233837525 3.4301017707679895 8.84009167872923 -1.7833775735921868 -0.9295643502407862 2.2893403367159477
P 0.010933981355179586 5.899172255156242 12.560622957740874 1.3651768457757587 -2.5636045389160045 -1.3483960267729937
P 4.220251560717023 6.164414637453529 12.73123557833199 -0.6949535007662935 0.34458130255806463 -2.5865308086948744
P 2.492006683542384 8.514907243125727 1.085826918886288 1.345134839523219 0.41891626582621394 1.24431982768667
P 6.161053689458666 7.881332211521157 5.742196908145363 0.8741848450292169 0.6477475325044522 0.2035830336344107
P 5.153532317031068 1.1845070771084305 12.578770260184488 -0.7931027928452212 0.08863595327185379 -0.41437955429812506
P 4.228626679774492 5.941692789112873 8.196994263927325 1.0586468415634607 -0.13723468811616366 0.06319977258693632
P 4.65034390034072 1.080154183689553 3.457905894328735 0.6730551580313053 0.08293890288707652 -0.011196382936451685
P 0.5383938927543763 6.047835160247933 3.5111251432809043 -0.49394902649233635 -0.4966504845838995 0.2988521759520659
Ni 0.5326675640625883 0.31539681002387016 4.840102115766354 -0.1655096238014569 0.22737679361989874 -1.1548600929619401
Ni 2.2349032455786033 6.542176108432887 4.818591140234909 -0.5381750861902473 0.6896853103888186 -0.7053695538932948
Ni 6.362338139778034 5.819118107375901 9.02992801348664 -0.6811705880495882 -0.7160913111861732 1.766602925237009
Ni 8.83804876736695 2.613318738870475 10.361750891395847 0.7321745899012809 -0.09463793649155959 -0.6360361576047949
Ni 2.233059266003043 5.321806807854946 6.860159031684155 1.408284218488194 0.3466412704108869 0.9884536683778269
Ni 0.6891551194320498 -0.0946324867991405 8.64443182029748 2.4050137537215677 1.203752704897585 1.5313428722142919
Ni 1.5203384509410671 1.2244387727446935 11.049532563971619 0.09228332021645397 -1.5348107761582341 1.0371084532710526
Ni 4.113900265787686 6.978772336608804 1.552756156898004 1.1136633070086561 2.251581372799619 -0.6848560073209754
Ni 5.796299995583749 7.859967482645703 8.038771732701054 -0.5973855351121324 1.7363595529714355 0.5927747758129984
Ni 5.3676156206606045 2.8780978553630647 4.735844600601385 0.14743476857761706 0.6489510658942501 -0.11616578326100639
Ni 0.8579719037567205 7.570835118655203 6.404518037113563 0.15519667191122305 0.18684412361317498 0.904650617718242
Ni 5.19999515214924 4.469879160303042 6.868521433641104 0.8669857561776165 1.103823180989783 -0.8267590474470858
Ni 0.7626881197380349 7.227891252173978 11.048575147975244 0.8503481476209354 0.6459073939719199 0.5543951475935356
Ni 4.867179547868751 0.38211071935757535 10.317705213741009 -0.1546919643606626 -0.03014747011765776 -0.022359598642122783
Ni 8.193355356449642 7.346487298176491 4.804592337654143 -0.5197343629865564 -0.3143387016234393 -0.1563876068955307
Ni 7.18745087251687 6.336567843936343 6.99983458016472 1.015704790784296 -0.7557788595837822 -2.2109813398900697
Ni 2.7220408646826746 5.48432226887141 2.363979999139151 -2.740918354441241 -1.469085666046283 0.546556111165091
Ni 2.230443176752988 5.178503252268577 11.307120160119524 0.532889669421592 0.36205400542153127 -0.35024801392553867
Ni 1.4120886745767944 3.518839881475599 3.360387534075627 0.2477345313406443 -0.09953305980033181 1.217376723438923
Ni 1.183298952558926 1.2005851256243965 2.139855636283881 0.6469157806317761 -0.42693270837278735 0.39809444398485627
Ni 1.3573778914063643 3.465155549990086 8.040247824725826 -1.0475373619138606 -0.36389877193975395 0.6018417711112731
Ni 3.5982218396569685 2.7941195737076394 7.200693007616631 0.2611729162337373 0.7300369747329878 -1.327575747593533
Ni 4.187105346573092 6.938359207881385 6.281315675629443 0.3960537594057437 0.16915390542226352 -1.0729174925498617
Ni 0.8611148443140787 9.024499628292773 -0.07949913717902818 -1.423526232248929 0.020419701306932575 -0.931377749300441
P 0.21310045343211934 6.067056149321258 7.795729774456322 0.5102832448759858 -1.3272862413775721 0.7173593792653195
P 8.823487687270285 1.8632732337790625 7.9511990534197725 -0.4195901519647871 0.47179691587532935 -0.3296033410919937
P 1.8431802149557202 3.2211416419198122 10.265855778187825 -0.06270277834585976 0.6873546053731129 0.16340389031236374
P 4.139080124819469 6.469107282295922 3.695111611798605 -0.24646492059960134 -0.20252399624227702 0.37805783704895535
P 7.301859358990649 4.019103365046094 10.379871851274096 -1.6919643146855117 2.8853156217441147 -0.7977747443995938
P 6.432745458448798 7.933245232576944 10.289134430691703 0.8811016267537083 -0.040065243452001964 -0.5288083002633667
P 2.5792005749010025 8.848222447783831 5.854125560017527 0.5429488534298068 -1.6398593664601564 -2.1572617388794266
P 7.066438577415349 4.378188865545891 1.6758131800904552 -0.9128151558069053 -1.458202957695508 -1.339352685623803
Ni 5.378525076179065 3.0957056125655917 0.3801722698924301 0.8830348392206792 -0.4922297298083845 -0.40996959815588746
Ni 1.5107279564044052 1.1492897923082053 6.913165723384758 0.4125581848186702 2.214266181288928 -0.42965267840711163
Ni 7.17415241882909 1.2397537952293929 9.049577750520388 -1.1132077075284763 -1.6316634609129255 1.323563026889714
Ni 2.879424067274551 1.573423261973442 8.9927695541283 -0.4674738630199433 -0.38852891178360827 1.8304447022833183
Ni 6.256332023291414 2.182872137160834 2.3922582888764685 1.0299067933162909 0.27700191284619385 0.9101890310379679
Ni 4.482069409516842 6.731379313257208 10.366750528629286 -0.2423005048092666 0.39192996704535726 0.8361980813727986
Ni 8.102091992924272 7.458170691681461 13.383240413684605 0.8426798324424002 0.6630471389760001 -0.7200294698983147
Ni 7.8472412984813715 4.187023593784027 8.136582586266147 2.1222340578513323 -0.47977016388879307 -1.3663459263831952
Ni 3.304429566689806 8.283437846355197 12.239233668278597 0.0956046712802031 0.3045284004012368 -0.6846690881211498
Ni 0.1319662604718065 5.239572585699558 9.957136354301857 -0.029850507702529235 -0.9862489474170241 -0.3068647618438973
Ni 8.761264731149176 2.5429659220590883 5.707111336171963 0.4013044662817218 0.3737885202496401 -0.3975817660144959
Ni 3.6939452720079546 2.411244011590152 11.353731966986658 0.27931179192629313 0.418430327328731 -0.44531223932123953
Ni 1.0025980377972847 3.5589259990467608 12.611555853692213 0.25212648976075286 -0.25213137485675935 -0.8004600045412409
Ni 3.4519570163778277 8.64171490260758 7.833752996650096 -0.2714712128359518 0.0868292390804182 0.6642594141165463
Ni 5.805365471526651 7.926178158144503 3.469738247999298 -0.5890284213966888 0.9678678738066752 0.31881602066850256
Ni 2.5967320063336654 8.465637562249682 3.4243890675410453 0.6079489124502756 -0.2798838623796792 -0.8878186337625679
Ni 3.5242446491970676 4.2781870372338755 9.499022792044233 0.7841790079930301 -0.3191973152673212 -0.8898289793243772
Ni 7.162352766274152 6.173552782542264 11.413983772526995 0.2792140900061643 -0.707305337463427 -0.10020231795321452
Ni 8.241789342148586 8.619523562198255 2.7465785101381424 -0.887285129856601 1.5564779767190227 0.983865534786512
Ni 4.72928984364708 0.3564921203578138 1.2916232147976794 0.24784328900436672 -0.14216040755255518 0.3319489585060348
Ni 6.010119873559634 5.916585599226923 0.46549765583876923 1.110763873973674 -1.2506658245093558 -0.7859114173031047
Ni 8.3630468956173 9.00358908157879 11.390092882469459 -1.579368508163951 0.6626481037653684 -1.0389496202448494
Ni 0.25367890446631247 5.087621401758838 5.729699631790412 -1.3863982170483802 -0.40759492727612384 -1.0604394146875091
Ni 7.4228898213786305 6.31731960393333 2.4788344924954906 0.6313503220933514 -0.3563983497976507 1.069994662476112
P 8.410881360863106 1.739881024151448 3.2156069781001633 -0.1346443016811681 -0.5886936637650894 1.2250959464600515
P 1.8466865012422526 3.507358156433689 1.279581937332841 0.6031535479441613 -0.6356576912194536 0.12923804306393227
P 4.908174029762849 1.3702039956462195 8.198323200931778 0.8386293165221105 -0.8321005142646573 0.2012513001774405
P 8.65220651053749 1.7762973498579488 12.56305646576202 0.31191492267329507 -0.18621805999340188 -0.4250807427657131
P 6.546708846404337 7.821480086282909 1.317963963434175 -2.3861161454861164 1.5542827688399168 1.6838180314292934
P 2.0635766506296607 3.3490120876595006 5.727678521171879 -1.0452804475588837 -0.06878420865324929 -0.4185953921516855
P 7.116407698820053 4.140642511454919 5.654078301905996 0.34521996458332804 -0.37544533912677275 0.5248210334808445
P 2.409272861009381 8.417875766149711 10.175756937724458 0.8934285237501776 0.597588652261874 -0.6641234027593143
