# total energy = -381169.7691100001 ev
CRYSTAL
PRIMVEC
9.23382247611966 0.00000000000000 0.00000000000000
0.00000000000000 9.23382247611966 0.00000000000000
0.00000000000000 0.00000000000000 13.51463256287986
PRIMCOORD
 96 1
Ni 7.29435978447716 5.9155284491868505 13.565583393072975 0.7701731806322414 -0.6830726901683074 -0.4288705488254485
Ni 6.287706905431065 9.212649507369798 5.163630273729765 1.7054906313067209 -1.8157307931119115 0.09201284016388671
Ni 2.686183649348382 4.072448211882192 9.644650207116811 -0.25080622828743254 -1.2272549017845833 -1.648637883983735
Ni 7.199833141878736 4.750709421750762 10.932189507887452 0.26058619049233184 -0.7940659280894389 -0.6939371436866372
Ni 5.152085225254546 0.7844492471077612 9.294242334564526 -1.70744852636404 -0.5868761509403764 -0.6161671865950098
Ni 7.076617012267194 1.3346290262037939 7.777104033284969 -0.08168471876500126 1.1515896497407845 0.005845145926867353
Ni 2.242793952729151 1.5625751724560812 1.2594398550256716 -0.07121030159623865 -0.09006342974699974 -1.1592818761787196
Ni 3.8978089238618767 3.2133518189866113 0.22754816849552342 -1.0952104996201073 -1.0296725658182977 -0.3829665872044824
Ni 7.9074948431054555 3.515002337732853 12.845022964968681 -1.529857803028333 0.005329382632713402 -0.6291751688189035
Ni 8.44612218666814 8.397062886861027 1.8209615384983422 0.1225428904319438 -0.24537734396237743 1.8590112010671018
Ni 7.791601134865463 1.978845131914858 1.294095314861184 -0.42448733215608825 -0.840781586978423 0.21875845582326842
Ni 4.843629379205869 4.679258101986515 1.5043817752709898 1.488289235557927 1.188694782123198 -0.08781859957688103
Ni 1.1630923025981572 0.21752393061285782 7.009364311667693 0.524540011905316 1.0025214593248024 0.8409859896797451
Ni 3.7186358289141577 -0.1790632124580321 2.370844911886901 0.3071452691987936 0.19490067536906436 0.6330485357313806
Ni 8.3847542012516 0.8552939047230664 5.88178436764815 0.3612006562823005 1.0212938548362993 -1.0880785165610165
Ni 5.906017611844233 2.113298823706949 5.368092962186183 -0.5771671511827285 1.6187603796980121 -0.9725393111404154
Ni 7.264848487247058 8.81328667720649 10.499991204335458 -1.1601010296459051 -0.8563419033105252 -0.030104018474232025
Ni 0.0847748024843079 0.08933446411516666 11.482613059901782 0.31821181142560034 -0.2708703460271593 -1.102678011641746
Ni 5.361831507038582 0.5098178168549496 11.821303211495053 2.5659637831768 -0.9529004538635653 -1.5682544005286603
Ni 2.58376208837332 4.325741201343688 2.6232717687826326 -0.8754328585037052 -0.47625675141889584 -1.0299828979698649
Ni 7.219501184150364 5.916811950536971 7.026257590229168 -1.1501732290092321 -0.10695069242064162 -0.04367918605550542
Ni 3.8095151115608004 5.878694730585199 5.6854437496058745 -1.7620618428335462 -0.29228095049245145 2.942815001512164
Ni 4.161268352075044 0.5370991459120016 5.252299902613214 -2.5792401885707323 1.1210979089098305 0.5774605140534312
Ni 2.140298521172787 6.3057682625593765 10.55802300962395 -0.3943282920742048 0.4475562981604098 0.45182972872478316
P 5.788083228795776 3.9167936632564606 9.097699495805937 0.7948850815566246 -1.1450104538613701 0.1259082073597509
Ni 0.6547020347268665 4.6866082248260525 12.540471179141809 -0.7068011441334989 0.7092290368487012 -0.10794288113058184
P 3.3822107340200547 0.8356803420051501 7.3679071819858475 0.3305222533618372 -0.7443549340175567 -0.018637155485213063
Ni 2.424755662121016 1.517209401714062 3.4968301747325894 -0.8610609060527493 -1.7423013723771672 0.7445184561786146
P 3.317786353302149 0.6925994896992653 10.671992389221028 -0.31883504683189606 -0.27918760764360306 0.3531600453660111
P 8.555284438186998 7.547745112165282 8.91886066523861 1.2948324917242409 1.0724526370983014 -0.5242111678109875
P 5.529259179559301 7.037816489438381 1.3540043562970117 1.8839208198245876 -0.9538173092508798 -1.1792637186172852
Ni 4.008808706090619 7.98541907255628 13.499604960000934 2.954563400297344 -1.7608626803191223 -0.563813612693958
Ni 9.45404933324169 5.63332436096833 5.661630644340946 -1.6451859208793924 -0.41127648989276916 -0.3075265637976123
Ni 1.7187283475056003 7.2239703543191265 6.403381772073952 0.061521613553565016 -0.5370538281016106 0.414857265265492
Ni 0.8287872933874181 6.285813971785204 1.9837187435162495 0.08199839335067814 0.6615093621752349 -2.2506321215124725
Ni 7.025858689090137 6.955672403030686 4.804303451867544 -0.8421306448071496 1.2479545962257796 -0.23078504797049934
Ni 9.288948584031981 7.306686937731911 3.8611441842149525 -1.04247408845834 0.24023513763980564 1.0292182518896984
Ni 0.10207806277200786 0.4208905643192097 0.24263531134416688 1.2052696557627438 0.9013878878065701 -0.21583871107331215
Ni 6.410479811554797 8.478394396874402 7.924534939447267 -0.027305886903804585 -1.4699068763959975 -0.5678204198605059
Ni 5.318340202297098 4.805604497480724 12.60144949724198 0.28020036517883357 -0.9096568126835818 0.47049002413844776
Ni 7.986480962162495 2.8525124969722353 4.66054853050728 1.3425056294304878 -0.8218335851210103 -1.9676711628693662
Ni 6.777348819767939 6.653643297555272 9.416631113665488 -0.6104881339323616 -1.6834336515066812 -0.9156600814548682
Ni 6.965294046245256 4.826029713210695 4.532604683692418 -0.6672850883167476 -0.9605836814404359 0.4892534207888799
Ni 8.90986322843604 0.7064770017790905 9.184855701154964 -0.35421291211055767 -0.39582930209976347 -0.5026326703092634
Ni 0.1792423486176892 4.781845871769506 3.497398054826348 -0.8079905085903312 -1.0904436743590833 0.6758502042779393
Ni 2.3970818956007975 2.732528205292651 7.495769771161277 0.9379242921697072 0.5769195539482967 -0.6737262159564009
Ni 9.408803602194288 2.420388064001542 7.530002321918837 -0.8266718870499182 0.27238781111295024 -0.30084606645364315
Ni 1.5941548459626362 8.102845595358287 8.92861804564632 -1.0102360543602409 0.566592718100992 1.0838932748350754
Ni 0.6254548248249182 2.5863844940095366 2.661477633431967 -1.135106821594413 -0.5466856947644199 0.28015485665287876
Ni 7.631671326346885 1.3069183243929248 12.404675812916821 -0.9479150848338321 -0.9473147322456718 0.9673045451040374
Ni 5.5227216331140845 0.6998111051988618 1.1036883512619813 -0.22777711438211096 0.47907596603524594 -0.676765517003357
Ni 4.5435855456029435 5.048287824702737 3.774380416329092 0.8684176035281366 -0.6328844993496907 -0.19442476417391033
Ni 4.033952405201248 7.671783051993808 4.434894219039884 0.6630895621781613 0.32648767828114744 -1.843535731139322
Ni 8.420950786089524 7.886617170065011 6.3518237998543015 1.1072322066713318 -0.40712312984602783 1.2156489421145387
Ni 1.6738335017193804 1.9946165010228103 11.94328662578112 -0.25082654000240673 0.5286874584147864 0.32581739168700014
Ni 2.1196793951668993 6.257059848013447 4.014684187450918 0.3770617916842732 -0.23000651793326196 0.29265067512704435
P 1.729033293597213 3.5128970261657493 0.43061100943627123 -0.528075278752084 0.3383060110723141 0.3818813245601036
Ni 3.3035108634655606 2.952847214025519 4.8493885144006175 1.560857336733641 1.5735513872615416 1.8954121082936388
P 5.714923651838923 2.3122969359115606 13.181767550126915 1.335215780637294 0.38539473703000077 -0.8719749818620919
Ni 3.7418865943789257 7.862563062028586 7.7590343657162615 0.3299301283037931 0.537992537865796 0.10534452427578632
P 5.035702124413429 4.172450511319617 5.847944254353758 1.0662750475326799 -0.6623729957271108 0.03314331952118808
P -0.11322882701952719 7.428998152722505 13.44184278233419 0.6055377319056217 -0.2671311906997012 -0.3984518273242751
P 3.8751952921608375 6.3241435696582196 11.853616973903296 -0.4146788307060988 1.962618173826491 1.929025682583026
Ni 6.166134396253491 6.719083398766077 11.553348758409665 0.11310488494749553 1.3181469980804654 2.0679274739889677
Ni 2.4484311834282693 5.968216641300419 13.738435013025786 0.18451830369347574 -0.7382938154251414 -0.8747170633836032
Ni 3.7134464205777005 6.545136647445467 2.0776451876415947 -2.100804941443279 1.299867483044987 1.4998903101319652
Ni 7.38942198879002 6.149393475765952 2.4171728469503773 0.15089290232954658 -0.485622508904512 0.6088549692043127
Ni 2.8806110193349395 4.3873123308588085 11.836899137972415 0.041348995260432016 -0.5947128733759758 1.3563209380470254
Ni 4.682425303159833 3.0141043935701055 10.92351248473128 -0.5044568680021957 -1.8482495916752237 0.46555582006162405
Ni 0.4968618402768656 4.510500759002362 10.174883082496802 -0.7975896249719812 -1.0261691806507294 0.6453191255686177
Ni 8.729665179172757 6.66730935509612 11.198264878060973 0.5230595707050476 0.6974096756162699 0.40332998135218273
Ni 4.353747385479765 2.652563301033362 2.776364855001721 0.2791449273311257 -0.6713785416598308 -0.5266668284403317
Ni 4.6374842882603 5.184745256012642 10.255173940696086 0.23910668046231723 1.939050928029512 -0.180997692134727
Ni 4.675656911148048 7.744988798063975 10.191222331698514 -1.4072498636864086 0.8361299471390244 -0.5164554351249687
Ni 8.842585596515349 4.145478515321766 1.241672133458036 0.3160549129835976 0.983809741847912 0.9360751547761105
Ni 2.0808788723380847 8.362279076890502 0.8580104953504432 -2.484053578664554 -0.015744407318450306 2.0776907240233187
Ni 4.843158454250069 2.5937530844944 7.5729516012700175 0.19463173797839384 0.15709697425772945 -0.454384891046469
Ni 4.375280659929264 5.1075966676654865 7.951902143055084 1.0809524470391965 -0.31604719967411377 -1.026397751721768
Ni 6.59173051660163 3.5831479489838407 2.5306011245394195 0.7336326625040461 -0.003273271434633072 0.5736804781857087
Ni 6.219081135401615 8.326811964042935 2.848749714237171 0.0916477435149841 0.587417111045511 1.0303567363695159
Ni 2.0062141822872057 8.308787542205275 12.158709861738208 0.5206026245241228 -0.5184012459974298 -1.7067833819762155
Ni 9.260693086684011 5.443744747879708 8.124375176278722 -0.7323234567743194 0.14918671827171726 -0.35952403991082604
Ni 7.284793544198565 3.4301712089303025 6.70973138317326 -0.5094800322483999 1.3336314668693097 -0.472922030618708
Ni 7.823088470145391 3.479193573446765 8.861652516931633 0.9152469051768496 0.37697231729426045 1.6766081439444158
Ni 1.855038037652901 8.843148859697775 4.899662985270146 0.9921046348668527 0.18862718365552675 -0.844558794632668
Ni 3.6346542117965788 0.8500186218358455 12.891959408945631 -3.201587535834525 1.6743900532471745 1.3581021983171642
Ni 1.7548418279395586 1.7069644574332754 9.441552277649945 0.5847027974381415 -0.49169416901988866 0.8288277570506564
Ni 2.2750199938220974 5.9899345922031735 8.28542966439762 0.3804178526406997 -0.6919859334975373 -0.16083124448918107
P 1.7326714197263309 4.604205591383802 6.655200120056209 0.34260438133735194 0.0532935692168179 -0.18381767808202537
Ni 6.686931228254433 1.9639971450731792 10.402726733317534 1.6340134492023404 0.9564408629166559 -0.7779913911250795
P 6.039575622838038 1.35064970852364 3.106460164460519 0.8201556831979553 0.3065392601836785 0.8714682174290024
Ni 6.839861799194657 8.22093695339201 0.047947547558520105 0.12946147192864801 0.7050525368735084 -0.8580971954387352
P 5.226140483009685 7.527643080228508 6.269437787292843 1.378300013421278 -0.27524842049019693 -0.6047807991349392
P 8.855743793809747 2.4042196405190923 10.935311463329723 0.6302329206594566 0.45979860586287263 -0.5530059805554928
P 0.3243260170591212 0.16628729542187137 3.667817485889793 -0.9931037655553284 2.0188906231659747 -0.8085247838272462
Ni 1.0043813586710604 2.8055862102002136 5.288559277445244 -0.16692450187111252 0.37010952873615616 -0.13051870954856876
