# total energy = -381164.6950975382 ev
CRYSTAL
PRIMVEC
9.26256890537043 0.00000000000000 0.00000000000000
0.00000000000000 9.26256890537043 0.00000000000000
0.00000000000000 0.00000000000000 13.55670586782697
PRIMCOORD
 96 1
Ni 2.1516576417886566 8.851449518536123 2.552253546082977 -0.13210893685382408 1.3073686765180386 0.41839716009795036
Ni 5.059622537113006 2.9592146875378047 3.0813574012520935 -0.08513822453124047 -1.1144019849468938 -2.0899926813191234
Ni 5.117133825718345 4.9648664600583094 4.074427023977477 -0.3396789801604408 -0.38650416804409565 0.05602536632568416
Ni 3.693106524996042 7.955666506614346 1.0283850181297276 3.2572146382805265 -1.0735504981481707 1.8100121454605795
Ni 4.569790120408847 2.4204573833455787 12.618852959003439 1.2403724130031477 1.0504591635463456 -1.337709493593425
Ni 0.5360693067766562 1.5089280047578215 12.62304149253659 0.9150191054367597 0.00984861065930562 -1.1545749576213533
Ni 3.148550852843285 1.2060420106533638 6.463728831489118 0.9098146784176847 -0.08937925919578155 1.2335713309209142
Ni 3.950142804396614 0.771539547642873 3.6338612835437205 -0.2219283689108178 0.024695188753834887 0.18441854489081788
Ni 1.3883664115081695 6.015278792640019 10.662159419218057 1.0231496770981152 0.8719814096199952 -0.352220050050245
Ni 7.585710253081436 5.234786972419104 12.251628236958647 2.138453605033988 0.09023877898259942 3.503486983253347
Ni 7.090959412436314 8.483308728454114 9.134847068249272 -0.3637900142760316 -1.2786872494229462 0.9237855387754801
Ni 1.3111814271389814 8.737399511031285 7.170629543968139 -1.1288675255529204 0.43949434708788176 0.6912683386052224
Ni 2.722685735077516 1.6053883944398954 10.730403246091557 -0.13229328495048828 0.15721653055472926 0.5653462472884005
Ni 7.609505791884321 7.799971990562302 3.2230385772282766 0.03600161490558961 -0.5782267027954945 -0.3933780123457935
Ni 4.758153716008486 2.530552274046667 5.365541096185959 -0.5402913612023018 -0.3009252564310108 0.21508589206768763
Ni 0.7734244803584773 2.0939240515362685 1.9510128064464134 0.9294424799509412 -0.16382477989986624 -0.8270760644668723
Ni 4.027216637942278 1.120289150304157 0.8064649889080188 0.5755980069233957 -0.7575590914126565 3.300801778842857
Ni 5.748850268651621 2.2982655780175665 7.898055182267836 0.27005247811155425 0.6668665127220902 0.2796943720766925
Ni 4.097232394194131 5.369788910158323 10.108746878944117 -1.012055881177799 -0.3287116825156597 -0.16184014536966967
Ni 4.95087071886284 7.052973618496792 11.400104556707491 0.24954227397334441 0.6699780617678784 0.799524637211165
Ni 8.273770900973043 0.7278915455016366 0.4434519568179443 -2.63013491853807 1.2178181818517155 0.26696124078074024
Ni 0.8121031144313027 7.39403992048194 3.6376441165710065 -0.17461030055114446 -0.5997712617354897 -0.23691507212763716
Ni 2.273256642724538 7.263419177703314 5.702479071334032 -0.12270101327636289 -0.43462981990672894 -0.5273692538239949
Ni 6.877420155308359 2.677336199079491 4.3233011279038935 1.6818863616242197 -0.40397635668693005 2.420374552448354
P 7.906473004636096 0.5342584746100685 11.666914698523323 2.20640683314551 -2.153396856607382 -0.06051939754129576
Ni 1.1521245986753197 4.632006793876726 0.906501656336996 -0.10657196892498422 -0.4995198357118946 -1.083688872133753
P 8.547424228490538 3.9936954020809923 9.73615449837995 -0.2107849506994886 -0.1643863088302911 -0.1259362323842089
Ni 0.5869161772548342 1.4239809878791678 6.197312348839935 -1.6081160126102887 1.0554869557782403 -0.9428638955631697
P 8.565476974744653 7.6055599376492 7.341009862578367 0.5689954140052137 0.10072065235052975 -0.2508005718604777
P 5.11919011595355 7.991132881887311 3.4391194831874947 1.5687107713397888 0.6915239062594541 -0.9979073575915589
P 6.240553724218444 6.563520967106341 13.582599141969315 -0.49001678131746573 -1.0727447144174234 -1.2687633054410148
Ni 4.963653063568166 2.367753367857678 10.24423324902253 0.18682895410452338 1.0752697948321224 -0.03641504829392438
Ni 9.073917891820551 5.523612387347703 2.3979641616916565 0.8995462066121411 1.2024944070104515 0.877791845654185
Ni 1.951650997424817 8.842983530811 0.15172921042280454 -2.9287988897387303 1.3523300717200775 0.1645205204153102
Ni 7.451236281753959 2.5247168558116266 11.952174024530509 -0.46063601416250344 2.1381741261203566 1.1950664899774968
Ni 4.807384268261246 0.07994893484749892 9.368618554029288 -0.12728760420578078 0.6886116177086657 1.5613170499788787
Ni 2.93958730461709 6.660694574572698 12.801353348662158 -0.9064028245226583 -0.931019594630074 -0.9362361058340071
Ni 7.573891215513323 5.249570031947872 3.9588561027040776 -0.5844456871220128 -0.8846273805187796 0.8751898892549638
Ni 7.365131443796924 7.350255758581886 11.54129759531703 0.971962612701339 2.723045587925878 1.5846858066118061
Ni 2.9584551569103863 3.51337564335681 0.6227150787415107 0.20304952972844387 -1.6746893296551482 -0.9694868974673366
Ni 6.167925923613764 4.266329847049512 6.01957014068493 -1.0130331574894038 -0.6064193631796266 -0.3079811348365276
Ni 7.602762641923832 2.8114396676618862 2.246535984749231 -0.3716231371672052 1.5069418176621079 -2.265324947637956
Ni 5.668052882517884 7.135234490473602 7.728731722737953 1.2587036072121676 -0.6516296411676777 0.2956113004172651
Ni 5.943104857898064 8.580121095744015 0.4633303553484512 0.042111070237437154 0.6448830664724635 -0.31113870662890286
Ni 7.463842637655372 4.897916614022009 1.088952954381992 -0.6336918257423344 -0.708176941435103 -1.1953238574039415
Ni 1.7798396119617106 4.849112139926095 3.7196891706988064 -0.49967333057062324 0.9926934174907871 0.3205795403268285
Ni 8.963276509570468 3.2714558759555796 0.19031892383681037 -1.9858889714289736 -0.1615203001364057 0.06193299005937075
Ni 5.84347666974554 6.076439533284414 2.0955959451734505 -0.7762396985412954 1.817969195524127 0.9973190891882564
Ni 1.857515512468132 6.801309628899908 8.3855951132368 0.18732851944876125 -0.8910805923432911 0.17017746159077143
Ni 1.434364327310088 9.076548461310635 9.72560721148433 0.839831821470644 -1.5781477483829724 -0.7805966899584105
Ni 5.688513896615032 4.891655117630124 8.474839035701542 -2.254016464603673 -0.8577698940063033 1.0356238983057262
Ni 3.9206507858880943 3.719301069073333 7.419544403196515 -0.6863912130185792 -0.1928579339074227 0.8644879294564273
Ni 8.412153676261134 1.0669089673064813 3.2468443048566518 0.6079864505564304 -3.2493259795610685 0.8633970103850938
Ni 3.898466934026315 4.722057486068882 2.120472425735113 -0.3384011418892817 1.3207268429924997 0.08812121841896436
Ni 4.33190883292901 8.421193943241132 5.37921913127752 -1.228674407839929 -0.3315527515088806 1.1605995665488786
Ni 5.85994551676443 0.5524103303484936 11.750925269713782 -0.6570161022905717 -0.5047923969647435 -0.2201450517581499
P 2.5433346187519925 1.7544138610804647 12.98935755659907 -0.006630103722007936 -0.3332149697026519 -0.6381999980253331
Ni 6.502619578383503 -0.25930560871419844 5.005786635738881 1.0071556156627042 1.6217978809727553 -0.5601197087821386
P 5.732612985848407 2.7676277180559508 1.008263940301192 -0.1893360367970933 -0.2283057331920713 -0.3174705623842016
Ni 4.70214296352073 4.810033362888581 12.935659667497488 1.090061351319 0.9239680870999313 0.3375647620309154
P 7.048749887202859 1.6126409856748738 6.305982656486184 0.564353544357828 0.04398617577296295 -0.45330194239493543
P 0.1407901168742613 8.769670300127919 1.5873550995798964 3.884982128118626 2.391502092388378 4.68881233468368
P 3.490608249671527 1.8611001265267995 8.589270661033813 0.8771107604267604 0.021622206255465987 0.8101453501498047
Ni 2.7672757404481234 2.859002957561776 3.211705824513084 -0.7698607915981451 -0.5419839184133762 0.340447225785033
Ni 0.31564055110390216 1.6778679939465433 10.318170776831074 -1.8195871907435244 1.2615197365047242 0.4587701645983583
Ni 6.21590602910187 0.665378469837692 2.547101705412613 -0.8569782513429434 -0.13007442292229854 -0.500606383907854
Ni 7.183955601451872 1.5469786366777332 9.895839328996527 -0.44767379757488057 0.22214974089300452 -1.578270904224398
Ni 1.3524369078038518 1.9591258903068445 8.357519341471356 1.1019568172050054 -0.44668238019588874 -0.9070731111168057
Ni 3.430697955791783 6.7180483995113764 3.3925519194150127 -0.21277292766379483 0.06466530138886926 0.1789490371358144
Ni 6.378640097310471 4.532508281684979 10.791218492926163 -2.032176284531287 -2.0957336975679586 -2.46201022571127
Ni 0.8335654121970348 4.586277492564991 7.9160041877533285 -0.16225486430958508 0.3617480441453383 -0.06708368102237479
Ni 1.9579958569343447 6.515503811343726 1.4094906255190143 -0.4276297344398119 1.50479057564706 1.316362652486533
Ni 0.006301325436980504 6.303761492529418 5.573283837867109 -0.6439171030147683 -0.037652520245451286 0.7132772387761458
Ni 5.731445902201398 0.055630987174048074 7.22045012184244 0.19128853253777378 0.7291046927267055 -0.48337125097649014
Ni 3.5490457951395706 8.314164962755598 7.828170028233623 -0.25263633951763587 0.9336644884520888 -0.6633371594125931
Ni 0.41095145601935956 8.321269352892543 11.851624210799594 -0.22405055746014316 -0.43981933452746835 0.09858046607907538
Ni 1.8962700996036992 3.251550615976055 6.000454977809292 0.037579243805354635 1.4521690927966022 -0.5337898126383581
Ni 8.767123093755481 6.362504702762153 9.171124844533967 -0.23936790454350385 0.10109269097796782 0.3326884077752206
Ni 8.47360155653297 2.832984402288399 7.908331075902681 -1.5759350570023698 0.14856271153447317 0.3914206315091065
Ni 2.304258459919266 3.8210874357159597 9.559375597362157 0.07081049505465868 -0.3521033219667226 -1.100012034773809
Ni 3.4325226818113115 5.093143772974292 5.673453886284316 -0.4687064498754638 -0.5656995168627612 -2.0557047066705305
Ni 0.4092564059606098 4.145129136564594 11.549445876938243 -1.0252672376617502 -1.4759088596157033 0.3860112875680771
Ni 2.676724869550106 4.148787851172278 11.680294478905093 1.5524081775250231 -0.40063058014314873 1.8986208450389237
Ni 8.644440372290235 4.081782429724215 6.039078036470355 1.0410160158555748 -1.2586889519241484 -2.9061235596284014
Ni 8.438561259416847 0.5521759873622294 8.053347702841464 1.0340277574631997 -0.19909980105207645 -1.307502888103058
Ni 6.065287400657449 6.631887986142579 5.233417038519164 0.6712515291636634 0.7735989184843387 0.5247246171122962
Ni 8.861768019986654 8.763093876402715 5.2090555567731665 0.09659223200445301 -0.44928870747048427 0.4332643070177699
Ni 7.460100559930043 5.143865598776005 7.47054410605704 3.173098684366213 2.788979985835158 1.0720816269121278
P 1.974964882659096 0.47508455493617463 4.918074742125053 -0.22504480305261243 -1.57023286441127 -1.9396278835789045
Ni 8.303957612128592 7.570584478513468 0.6546876131283536 -2.461606819625264 -4.347379090836293 -2.713406522174217
P 2.8052893220935267 7.699121143351007 10.800925664847309 0.32324243187097235 0.28322243983460904 -0.4138599343492292
Ni 3.780535910266745 8.973706161844524 12.457229472773223 0.5713472020668419 0.334866646373462 -1.7936499020524723
P 3.8477821584991108 6.338199722684781 7.200102111082542 -0.9120780205305647 -0.5091411608517425 0.7836812424210051
P 0.4340828686516856 6.131913056791802 12.628491587916745 0.26378464282497155 0.11403536718156489 0.8561943219890675
P 6.5158372638143 6.521126190500344 9.908215973195986 -1.210907056554179 -0.8164147280982843 -2.197040047218629
Ni 9.459583461744934 2.847711886405405 4.14093597174713 0.5956495262576322 0.9279777224799567 0.018994024603999547
