# total energy = -340859.10039701517 ev
CRYSTAL
PRIMVEC
9.35180661195765 0.00000000000000 0.00000000000000

0.00000000000000 9.35180661195765 0.00000000000000

0.00000000000000 0.00000000000000 13.68731427169436

PRIMCOORD
 96 1
Ni 7.435911194976525 6.605311803675933 7.991762930119406 1.5552469325253988 -0.7772118326465776 3.0412579135721107
Ni 6.792703300831672 1.8644789988739774 10.38023954108946 0.48940717275792484 -0.25075583466547136 -0.021276907100905292
Ni 4.850538845980415 4.787760169445508 3.2721718184325095 0.6509876367083047 1.6291941734368263 1.0005522514135734
Ni 3.184046940942357 8.989059206136574 9.20668976936942 -2.2415671830967265 0.8746998369924226 0.640756960119232
Ni 0.2561441076353054 9.171812207305225 13.567522207055069 0.19160426400597969 -2.0669339997274467 -0.02170576710820778
Ni 6.621144411954439 2.527840035865951 3.1056105349091037 -1.1120828498954138 0.21232889814784078 0.3913712663284098
Ni 9.072009729131453 5.570721458814202 5.598152177421709 -0.8685716126074977 -2.806067537445064 2.195446477479264
Ni 4.943196544045046 3.477684310899091 6.591934044584144 -0.14738926005166228 -0.5634343749776684 -0.8790311173779249
Ni 1.6067058065593363 3.5966112332131703 8.723609115927175 -0.02976257597441326 0.5643730847418539 -0.20693369527419844
Ni 4.539993410006236 1.8954895889811954 1.4208798017992397 0.7371267917002338 -0.9552129040468258 1.8791488523572413
Ni 1.9788235360395239 0.5972222564083557 7.106987589014799 -0.3577515213914355 -0.042744847166694126 0.9768245687793305
Ni 2.7608122375399584 6.526784685120353 13.219440490449903 1.0069861799643753 -1.3222201397085744 0.49992812689390675
Ni 9.753185957364154 1.3586023820887432 5.202178924930514 -1.8702741755754304 -0.7537309759158181 0.9697103263320526
Ni 6.170705303660032 4.157083695910931 8.404325352028936 0.9328743884506258 -0.0639047690737609 0.6357790472886663
Ni 0.6894179752355623 8.940027685047268 3.3536793576959223 -0.4318275745712433 -0.32392994485630017 -0.747990473887615
Ni 9.052352232024887 8.35148109945992 11.175952018519432 0.9427224848892991 -4.960965404078005 -0.7491654680323228
Ni 2.936308236922361 7.289022371449965 3.0805766842884728 -1.9904783905718688 0.9045642286520227 0.041677325134128224
Ni 7.817895080235696 9.171587763951011 9.389100494422896 -0.6242777315172862 0.031854939727067724 -0.729425309290918
Ni 9.227212308570351 1.3806819970595336 7.735056778917924 -0.34742082888938874 1.2644273970698223 0.25660946523277095
Ni 2.1731727771758926 8.064436753033219 11.760797159123534 -0.35924893187256834 1.3772060090261509 -1.814549628319617
Ni 0.21056246793639405 5.179049102098132 13.437096303560097 -0.054408656657867586 -1.9241745251383118 1.5191954382184805
Ni 1.2924570552406276 6.817597809536562 4.705123867146528 2.374078497595292 -0.10884173879576739 -0.45806516811153364
Ni 7.171339239390488 4.748286194523142 4.169197090773983 -0.2912555945517306 0.897204445852842 0.21680364608974273
Ni 4.912270120195658 7.6651520258867265 8.246250832836743 1.27471155260465 0.690837935936023 -0.4177304730482289
P 2.511867150491063 0.8717089971667905 11.263098697057469 -0.3225351213913025 -1.5465943990567235 -0.06780436123848323
P 8.642696351552429 6.774121261464049 12.836223101923196 -1.7377255800810267 3.2206280974057435 -0.9931500454122315
P 3.5777392878463536 0.6184480514524909 3.3951106657031622 0.16997357311008146 0.036719724018536765 -1.4036366924138535
P 6.7436998351616415 5.043850036603545 6.456648007289799 0.6117860268081786 -0.28820755175402624 -0.1059865287351594
P 8.915750395566466 1.2095906985035783 2.1222456449241207 1.363224350035078 -0.7110570911963755 0.34151680470012796
P 0.2522874226653969 3.411772779211615 5.934463710459642 0.6183922192707866 0.05095437956067999 -0.03116999784490116
P 0.512122688296878 4.834491146154123 2.2390805681407984 -0.2586714899681222 0.951360363069955 -0.708814832129418
P 0.39610885368436605 8.285289013579677 5.886010131007436 0.477494480480739 1.433901661945982 1.2579297051606206
Ni 4.1317122450783375 2.826387104196114 4.01261418470667 1.3074568653564709 -3.874861494744856 -1.5459966175717246
Ni 8.912664299446023 3.1653059208654977 3.257539982099049 -0.40375909846980135 -0.28774269630246574 0.5702007471672245
Ni 7.200198914019823 2.7563701294878085 5.84200614105252 1.1073201383994478 0.7418776761216578 -0.7841412127765592
Ni 0.8000395582630858 2.772707735313294 1.167181191544223 -0.13162017014286365 1.634635913277688 0.9068257709926899
Ni 0.595667050999782 6.415544947688098 8.143062065556268 -1.1019359912693991 -0.5690172683820846 0.39511145009713244
Ni 4.994481850482917 7.19182904726893 4.337427671744354 -0.14876685712547927 -0.8549115986219018 -1.4107627619356737
Ni 4.76927164814214 7.852178802591867 10.64877105151609 0.10700082893228668 1.502223329140516 0.4629152971149834
Ni 1.5190513249323907 4.305094736208559 4.057111950040856 0.6474878510851623 0.9429572266079244 0.5795888732503438
Ni 2.4232213773830065 2.696125792494233 5.545675450845219 0.07430899512622043 -1.8104651738375979 1.5113456031567583
Ni 0.9051379644156627 1.792413978558471 9.967129103323394 -0.6194070336885462 -1.6646975085497586 0.0725732433820363
Ni 0.9779558051484284 1.744644951336617 12.842765625698531 2.277137366891852 -1.5898737785706492 -0.4372122359219244
Ni 2.8826288680395415 2.8993966569606036 10.705025907888512 0.9341357716615525 1.184560191129534 -0.02584858563198774
Ni 9.007407450343559 3.014115266383173 11.78197151923233 -1.9711488370053214 0.5352108613556008 1.7976124862446463
Ni 8.5189251935099 4.042589529842576 7.7679339895876875 0.6272062180179908 0.2867106554935256 -0.029259925306381867
Ni 4.187533177632615 5.562819182384589 7.765182688137282 -0.236986805905837 -0.86652064361574 -0.3495378752323916
Ni 2.4468253368011657 5.271669392937059 1.4230017266772033 0.9109292516381021 -0.9095696522864142 1.1069416720141065
Ni 4.719276890990998 0.9403428397047524 11.29567477956033 0.9400608788967358 0.6558920159884576 -1.2151946281859394
Ni 6.572739461895644 7.156572737044499 0.49611052533500277 -1.637531489657928 -0.014144924041814349 -1.7036348090449047
Ni 6.719188750520201 1.377483679261986 7.633154820201609 -1.8126539539588007 0.47871524026171747 1.6272244513049654
Ni 6.5547372345264066 7.271684122336943 6.245658161799757 -0.8905871976466405 -1.9558805979923413 -2.0082776235368187
Ni 5.947346758991519 0.18583348620523726 2.8956746380032237 -1.0730445050460293 -1.3050922217790364 0.027726776491307087
Ni 2.482811087926791 9.065192262247207 5.081825852136534 0.7334632268057174 -0.5801182633912526 -0.510961759000249
Ni 4.736343937717678 6.916670846809139 1.9694268409431028 -0.07861739269358718 0.5353458442715684 -1.6552091094433496
Ni 5.6503427387215766 2.6776840302229927 13.063185832788127 1.3486827047754772 -0.996724135916735 -0.04063217169906551
P 2.938571374077351 8.171402714928984 0.9173570346913235 -0.5899295930547195 0.0725976688620685 0.4783568284810342
P 5.450859355857566 6.355730793790099 12.252171929684625 0.7087436125718504 0.8107140781690813 1.1970740073258286
P 8.660735986147369 0.7419470719280358 11.777564012863955 -2.090522585680664 4.712759332417581 0.8232230092693694
P 3.839122277441268 4.499705827924845 5.070848701754191 -2.4133099322920892 2.57419696971987 1.5807638458495807
P 7.088790844071908 0.9467301234934224 4.6324032852005885 0.5450142205992679 -0.1643107183973493 0.7759023698065347
P 6.602197652136216 7.07709173423351 2.9235551784998 0.7084795602771863 0.900439664960688 0.8371758719050356
P 5.186249993045826 0.3247498947539906 9.234980854168079 2.662537760348808 0.7580218899816881 -0.43480105537727054
P 3.2861219080775443 3.3799766373646483 0.6524923675641662 0.5957834807323352 1.5649739300051757 1.2921289767501487
Ni 6.378745589403447 4.229335752354949 10.779977830847594 0.839530231069825 -0.12908531953615188 0.9850598122049293
Ni 0.8620354886001722 7.029070208238165 1.1246127038756328 -0.19065938359420714 1.091530993885991 0.5595422390121138
Ni 7.872266482794009 9.030366135118353 6.823906538151257 1.21437238939496 -0.8598848834667772 -0.9389344786017765
Ni 2.467848197645866 7.490619262566158 7.4081905703698245 -0.8275766582523747 0.6840803054972154 -0.6501255458183255
Ni 7.888314182620301 5.948450272149737 1.7849353389599358 2.60911666441519 -2.027244908667941 0.9151067800545595
Ni 2.8002207498173455 6.4676158058657185 9.513983582249427 -2.69283306889824 0.31340847649968606 0.28091513185767103
Ni 5.149095266117003 4.821052600320567 1.1691114043904622 -0.3093638741166672 -1.6292587081261745 -2.2269149804011903
Ni 4.3643758371403 4.4077121081164305 12.431612521017337 0.031957783853519155 0.0012986642067655055 0.9959060108908138
Ni 3.8960560749601885 1.6786024943591824 7.899454989615093 -0.04466134746311663 0.7419771778139995 1.1928268020137005
Ni 2.1450893024798807 4.636083221029053 6.699077690801995 -0.48747396029095397 1.838239515737389 -0.3239484567990615
Ni 7.019372384974839 4.963078484505825 13.42031542211004 0.4530702860001036 -0.7362575017214029 -1.946416624365964
Ni 2.133390192641482 0.8897589187487992 1.2289068546756103 0.772383815130315 -1.616034753236733 0.18345772363944535
Ni 9.291206719940584 5.06592029976791 10.80904979148279 0.291362295332924 1.353061036348831 -0.4618277204777595
Ni 7.000883863671471 7.015416570856821 10.782277440047645 0.5577779480228394 -1.0500578143428692 -0.3093762154118414
Ni 3.403028840203699 1.8346560881828082 12.966375932670541 -0.1243470335202181 -0.7586507818149386 0.009270883778964678
Ni 1.807891218192803 3.8448455829737216 12.866951267476361 0.23113780332422776 -1.397904932136399 0.7810970266335967
Ni 7.903875588512464 1.8347215508277872 0.16015623130252685 0.25290399135672575 -0.10822441692674266 -0.26911402545768487
Ni 8.440931127920576 7.333265767649377 4.481350102272719 -2.444712100752454 1.1488449971161119 -1.9441375985238003
Ni 8.06841127076409 8.548317921105491 1.4263824047000497 -0.232366019304374 0.835970795853341 2.1118223755997048
Ni 5.502902158615909 9.018489340957869 5.552463927129546 -0.1954732600430827 1.7910543734111541 -0.06960619033391238
Ni 1.7376591519367097 1.7678093758527744 3.430972037803327 0.4997967435223651 0.4852859515006998 -0.9097701983329944
Ni 4.3473368458328965 8.700714958616718 12.849677545827674 -0.5292793263625143 -1.0336181807296068 2.1736183258605792
Ni 6.74010874149422 8.740076711861976 12.542178928386951 0.9978731619195137 1.4146896077939055 -1.2359894534441036
Ni 4.509160504221104 5.6610599088852895 10.467113146879871 1.5594272891553338 -1.919136705604088 -0.8761059733113298
P 4.453330219860401 1.4184165359867422 5.862495948930961 -0.9407797593406314 0.9657981357618398 0.2786512755241588
P 6.234493975288902 0.4408076828567028 0.6887698950502696 -0.7879371894838817 0.32052888959455117 -0.24207527617233793
P 8.538208618359441 3.197822151807234 9.861491097940062 -0.9969172257641478 0.9013166682490026 -3.3532065176968184
P 2.5301031730209407 5.090964437375608 11.555172444979846 -0.15551626003417088 2.957693718396209 -4.1233681283648345
P 1.2040544290996358 8.00254649810874 9.590618830365113 -0.4674383817963175 -0.4806993605712819 -0.35452324426212495
P 4.024465728989805 7.156787828592288 6.161851013336294 0.9921884528299106 0.08202307594102648 0.12427298574917309
P 4.2006537620477005 3.8448175275544454 9.211850096155054 -0.5379801965706219 -0.5535461693296789 -0.49069658099330976
P 7.343122571621937 3.687912919346092 1.4516762355393116 -0.7248777991295516 0.2506337072653103 -0.26470381220513123
