# total energy = -381177.46352580225 ev
CRYSTAL
PRIMVEC
9.13256910181233 0.00000000000000 0.00000000000000
0.00000000000000 9.13256910181233 0.00000000000000
0.00000000000000 0.00000000000000 13.36643801474426
PRIMCOORD
 96 1
Ni 6.753845162549457 6.28938097662029 7.130980985485378 0.39778951114992783 -0.87932962245495 -0.4543308978800821
Ni 0.9198779961405344 8.030477827751632 1.5493174718317333 1.7147841407935047 -1.2387464473639505 -0.5105866350490174
Ni 1.9305154613865008 8.418456749668122 8.422286035781616 -0.301691445173074 -0.6221732835797735 -0.07287791910664868
Ni 0.7451244649243681 8.07862473066206 6.259075460190479 -0.8285991859796181 -0.3740510298824074 0.43565183341334
Ni 1.1866859947232669 4.661089615767705 4.111689799880675 0.06709422254533606 -0.15767958623407682 -0.8930186899062684
Ni 5.611570850082148 8.49548996781104 1.9949539538458505 -2.0977029054791876 -0.518295830767817 -1.399524470017693
Ni 1.8239475156236427 0.07434550313409034 4.345522832162443 -0.49282673996243515 0.11179747898998164 0.5611010988588014
Ni 5.395019377811268 7.952814462358939 8.07185841041048 -0.5258047375503526 0.08405399032812622 -1.360142882896277
Ni 2.612773148948425 8.80567766837111 13.133153631254098 -0.015970150176011205 0.42576105666218933 0.5506595918105032
Ni 2.6513582522861636 5.9709648315377795 2.3501003775352376 -0.9365860329742579 1.8742388166501336 -1.687305732867578
Ni 3.531573501966154 1.8397742574187435 0.309166679364058 0.27722277060774836 0.619044765253121 0.34340785107525373
Ni 0.8949844400037276 0.5563506140291256 10.20336344676904 -0.9183617966567474 -0.04995833419599783 1.841908222838228
Ni 9.077033686234836 0.5787710705247822 2.4356990319906915 0.5850972046630827 2.1790978609179117 0.8779556249255588
Ni 0.8637391822405546 4.757648266084845 0.2533484186302685 -3.360198889854252 -0.23456688361043473 2.553828176255531
Ni 7.702326364288523 1.9209810595203234 6.560728775172061 0.358046426924035 0.25874990861454145 -1.5004004169991643
Ni 7.4708979373816256 7.891069164449719 2.9633258905126323 1.577643040832412 0.2767365749999492 0.06862300048503665
Ni 4.100021116677213 4.6351896505450245 6.497010842393977 0.6741856720913227 0.004490945891818072 0.5536382148228529
Ni 9.158322681455953 3.6054651164290283 7.583916216514293 1.7977988912238394 0.9855840601395155 -2.0459175453767795
Ni 0.5409275317766348 3.595656737497731 9.831028615270906 0.2674983442311329 -1.0914569461149461 1.0773850414029122
Ni 1.7648689278149248 4.8049732377999135 6.39891426748463 0.37975785045919763 -0.0820950668295425 0.7079478561434324
Ni 4.048266849076037 -0.05785938986893379 6.327070174955087 -0.4226461651822915 0.7020500026017586 -0.5097026897821674
Ni 3.0875571376637794 1.174494015325425 2.5779579700267377 -0.352851770096973 -1.2107340213114246 -0.587101122466989
Ni 5.356963963466096 6.340075866236335 3.4268868653837865 0.06454523087123722 -0.0006921409710181627 -1.9875658449107643
Ni 7.611356846099833 8.76669073200453 0.7558963298680044 -0.705489881521243 0.05936882887662032 0.12660806164025293
P 8.84463720703118 8.121611732179396 11.385799143955412 -1.4613785272100124 0.4785746009187951 -0.5153879130924027
Ni 6.67231872053857 3.9640919621023234 1.9830843541279668 -1.657923680161035 -0.4535012028899351 -0.16932308401027615
P 2.5032371183134328 2.2457991353578057 9.698379879422388 -0.10086566256882629 0.8782993814182228 -0.44257247179257325
Ni 4.0303122187418365 0.6257435250827293 8.523910522032825 -2.591942209518433 0.4964805346649386 1.279863014898602
P 1.9692284206879627 0.6123341742588708 6.753352917089124 0.5546406879454383 0.4501415423890828 -1.2080197077040549
P 6.522946424635124 3.944256022587633 7.124177221701563 -0.07801729721574305 0.7945482670424961 -0.0884714026695315
P 4.470611627527417 4.578996954488903 2.1521966975733116 1.7743216340375054 1.191712228793283 -0.6023709041418658
Ni 3.544633075403542 7.347653920921794 9.649110583801852 0.7882331234577457 -0.3881489027363702 -0.8798674972362911
Ni 3.8033130877210466 5.423028966435374 11.040089403645643 0.2723340750568794 -1.4283575921993015 0.14037426218640983
Ni 4.186670929805844 7.432742064779242 11.918451655108539 0.5090493724688846 1.5449100693757651 0.2065642277499217
Ni 4.933879446938892 6.966981054075173 5.628994878166899 -0.6570757518839137 -0.41960275037027733 0.7779795640505375
Ni 2.486926350369953 6.890815429971802 5.226103384595927 0.8666959928513397 0.6156246838279785 0.5912485689764592
Ni 7.577968174430537 2.7133044667098045 8.74305381733974 -0.9686255779083058 0.6097476562219112 1.6770215773327504
Ni 7.213998775987401 6.318386015247665 1.2773431790577208 -0.4968559157264863 -0.10698180276889317 -0.19204880774256605
Ni 8.854491248806665 6.8087410338306755 13.084806725086132 1.2354248391898852 0.5554534136547209 0.516553908376046
Ni 7.489427919552577 4.72463402973788 12.81080774180088 0.6350246856211451 -0.4604020437748264 0.803801410209648
Ni 0.21068927633419451 0.3852099270450089 12.915494378383249 1.1928723105396553 0.14681487560543102 -0.5993413732869226
Ni 3.425005556203295 5.137800576507737 4.213970004574405 2.1425635134373033 -1.8067676703813529 1.8471563586110447
Ni 2.87456736723946 4.042038437128975 0.029826969822735024 2.219823620772048 -0.5110478909561521 0.6030203648004067
Ni 5.132677205389993 3.031218320506262 8.63683016942205 -1.6219848001725807 1.326489970728522 0.5317984932399422
Ni 6.696720944471928 7.782473788404972 12.158726801448163 0.04893477802748991 -1.159244595182881 0.022562972902180494
Ni 6.033486397798173 1.140274279891932 7.91211608259224 1.2755625877510355 -2.3124794938365723 -0.40921009428204363
Ni 8.601774803939941 5.752888220271065 10.987345165582502 -0.653511688681739 0.19338089629042826 -0.32575388543891637
Ni 5.284469632035333 3.827888830462314 13.068312392509021 0.09686991114587189 0.3376889463136055 1.7747607784574533
Ni 2.964504905149532 2.4191992198722794 7.310011298688067 -0.21174397217864824 0.9431356611673177 0.3390896833158741
Ni 2.804630155083151 3.479253015097063 2.609756661461453 -1.1089556171203416 -0.33901460710356457 -0.7874790189005405
Ni 4.099454897409298 2.9227142701498883 11.405353800349914 -0.6384231697797328 -1.1264928546731567 -1.930782774483449
Ni 3.02687121773969 0.4613463269281005 10.76924480963681 1.6516337333872653 -0.7925749453662092 0.7916478055662496
Ni 7.9529240531849865 2.473830246657215 0.6314869976245292 -0.9413510584630692 -1.2245285039923557 -0.6917969574151828
Ni 0.34433711521351756 1.2509336164939162 8.195056764026123 0.6533695066769198 0.5371260761004426 -2.243106759669705
Ni 1.7595081099074092 2.2659455822129657 11.97084794229898 0.4136645305089715 0.030303278969231684 -1.426861210159433
Ni 5.03616421791704 5.503368174497407 8.694960796585452 -0.16191830690577277 -0.32577882513958084 -0.5918774608097097
P 3.0264785172796853 6.36246892502548 7.6219570187493275 0.7923931683727062 -0.39209708875084087 -0.018497030362922984
Ni 8.67770298125354 5.056803823489416 5.60363830079004 -1.39247630492166 0.8183726231556033 1.9191996976315397
P 0.2943207754620868 6.049605381796068 2.117056399201015 0.3148277254447159 -0.5337473894361968 -0.2171332615150196
Ni 6.834540540796145 1.1378450165812009 2.5743222943725947 0.7577951186828626 1.4072244097651119 -0.44616867378426384
P 5.735974702784322 1.9168714035435228 0.8568888423556699 0.14630785406202546 0.005050160829397753 -0.0026749757290018446
P 6.270558752246543 1.0830222058506809 4.576293714113053 -0.5137285231121088 -0.3395604523047055 1.830265239282661
P 8.95983543034532 3.165348359020196 12.22237715321685 0.19161711952178614 0.44651577271103743 -0.657270641503539
Ni 5.057278717068958 0.5031917573407679 12.694119083252488 -0.22851939186477419 -0.6971165698558832 0.019943533001462427
Ni 0.8776663497174899 2.211762051301059 5.664429245255757 -0.2567868713508997 0.2708011833521207 -0.05273358294828982
Ni 5.29373005683639 9.00663984563666 10.317018265949672 0.5760767463320272 0.16026817289685946 0.5799987070942527
Ni 4.843814053065097 6.505092252558136 0.6409538184813103 0.013620933217544285 -0.6980791908794687 0.8343908529607307
Ni 7.0965448081704405 7.010808251925542 4.911964934756823 0.5558118254354041 0.5335170185929456 1.937920671079811
Ni 0.3159932745699656 7.016662228550274 4.253347814887224 -0.23640907902549607 0.3768478759012542 -1.1608456211214138
Ni 2.9470525661013856 4.430072154458488 9.063648080089955 -0.26571502707846495 -1.3324469596429054 -0.2975036323439715
Ni 1.2322301155150548 6.034774090004237 9.265053186944114 2.1120581457595953 -1.5124941149389048 0.2845375591016067
Ni 9.112970344609748 3.728033322794897 2.2371944289992687 0.5970196671322815 0.9319590757252079 -1.7110930650951626
Ni 6.5102156236758795 3.931123388599545 10.647798082724165 -0.23810369311909962 0.6302087522897405 0.1574312176686966
Ni 7.839232703729007 5.1134531479874035 8.84303444120023 -0.2188157914237651 0.3120522195821077 0.23668187307090854
Ni 1.1687496295267417 2.0690200003735186 0.7560488437675879 0.7425109388302826 0.5380928108890861 2.3726859881231395
Ni 1.7169229414189175 7.364393919600628 11.2198010064836 0.10287857923379701 -0.020477551128061506 0.3527427553229344
Ni 8.313907101618314 0.3310117840229625 4.798283631126566 -0.20585306061551 -0.4046864953800773 -0.35336573361891405
Ni 5.315858271129251 2.4204686469406687 6.086059856824057 -0.5804437650514713 -0.03251905567362786 -0.3717082406818437
Ni 7.794556176976766 5.370288381399766 3.398242563225486 0.4457567830578259 1.2840464568523304 -0.17638487595306396
Ni 8.185968944776093 3.27768808828825 4.201713183937818 -0.9974540721042241 -2.5969175512458373 1.0829825900953476
Ni 8.790161433916479 7.557282906013975 9.312490489255882 -1.3339903928706254 1.1385844957303681 -0.9311080405788222
Ni 7.7108744487202685 8.502211538475319 7.0625981365451835 -0.5747207465247651 0.17589070992546482 0.5492719674343572
Ni 2.510917608705631 6.32834051528036 -0.09398600567566227 0.03361691672349694 1.2858567705881918 0.06961287520213173
Ni 6.312842545963402 6.988296469741512 9.834743744273936 1.6886969567881498 -1.053378908296302 1.5150695889755648
Ni 7.21698512599721 0.9432482397952738 11.987596160289767 0.7337429628296654 0.8794052128878919 -0.3449026904532254
Ni 1.5521987972999123 4.8262155929155535 11.614512458146972 0.8993420610211349 0.21890115204871977 -2.6781230163815746
Ni 6.137113656395409 4.600339767861755 4.884069503243185 -0.3484083896136387 -0.15845683071973357 1.1205191535882248
Ni 4.283594882876477 8.707502553369764 4.03463283705878 0.3068789029112844 -0.025509714235330258 -0.39013379437688295
P 6.138894507318689 1.8193538334984634 10.287732857458991 -0.4767115795681274 0.7401820335867898 -0.07406782564969179
Ni 5.023360356407097 2.5471099790079883 3.60074449159701 0.623777651952416 1.024144951131849 -1.1494222097758204
P 9.305722342490535 6.155725831685897 7.487009615324451 -1.3344012551557987 0.2549531605762706 -1.563291142986114
Ni 7.766610516334522 0.5442563531178433 9.516783314376408 -1.2843051098303557 -1.5816092245690119 0.7959083806148164
P 5.75866000377626 5.722394572923204 11.95490156385211 -0.02694259002711489 0.6726188418248351 -0.4081289454027229
P 1.0788668870296938 2.3079188685893564 3.3335894553984593 0.3772158007636342 -1.5569952826750733 1.37817968579333
P 3.470111313690891 8.186188126428188 1.7894848538590764 -0.7720827389501284 -0.6210150016056144 -0.2750807845640811
Ni 3.159037753953598 2.2030039177860554 4.797588642638044 -0.9092577774729502 0.05491027888463446 0.7528835403138583
