# total energy = -381165.5910235082 ev
CRYSTAL
PRIMVEC
9.29264821897587 0.00000000000000 0.00000000000000
0.00000000000000 9.29264821897587 0.00000000000000
0.00000000000000 0.00000000000000 13.60072998374615
PRIMCOORD
 96 1
Ni 6.126531392370446 2.865453095698957 4.029311738493268 -0.10577441272435331 0.6712317316693214 -0.46825856370476776
Ni 5.400914964082284 3.5816189008511903 10.788928944782452 -1.6987255446687453 -0.12787175884402494 -1.7843196257904816
Ni 1.5549202242761315 0.6407243706716721 11.595642313195746 -2.204881397639919 0.46135875126114095 -1.1574386523223938
Ni 7.163758189996984 0.39395531210574203 7.861426049805677 0.48974630126489843 -0.7548051828166032 -0.5619217949878839
Ni 5.998376482176145 2.5164862809265243 1.363282588464226 0.527339429027324 0.6761404818248484 0.3216128666873494
Ni 2.114811566029222 1.2376970954745303 -0.005330262960441701 1.2504138563995497 -1.692442539873511 1.552415890834507
Ni 4.0157992988649935 2.1525304247398793 2.880974605850327 -0.12084107724948867 -1.5675128943769456 0.540701709266843
Ni 2.2735764591239684 7.02482380798589 3.476550645641061 0.15198022185645438 0.8984010372641044 -1.3512188409337695
Ni 6.5463081858014665 3.019153495569434 12.49323592167272 0.5439358999334245 0.6437705501345751 2.969627750829634
Ni 2.8958121771002174 1.003020559904456 5.399095463580793 -2.006089614746564 -0.31809945421745217 -2.2174993435142456
Ni 5.279274200218647 5.489892069811415 9.451419515873292 -0.14236686713640642 -0.9101797750665873 -0.6539469764469447
Ni 4.569715467878259 1.8994916164887854 6.612008137260007 0.36698820949835503 -0.0902871157220316 1.540463089348005
Ni 2.212152055064485 8.690503105179568 9.789329008650204 0.1357843288228823 -1.3761940228218688 -0.43650209722877725
Ni 9.03284426184392 0.3761812640505871 9.52251013250504 0.7856465936774921 -1.5803910358911943 0.5214942831004566
Ni 1.9013036828717806 8.083897621337668 5.4743213086250195 -0.4062139877681972 0.2408090078654046 0.9987344814785445
Ni 3.6328399772771918 3.5629871413747507 8.763834179272548 -2.4551199263493393 2.3112636191516 -0.5528226609000931
Ni 6.93319829754315 3.1536459917801607 6.388807092850758 0.30267412080131745 -0.33700220465922603 -1.1854924731358165
Ni 2.149947068563096 1.6951184064312637 9.370032645126882 -3.465153377780471 0.8888599305428886 -0.20563965905312326
Ni 4.307216743843117 5.825226569794851 7.268842242708914 1.1932402354020353 -1.8849639163771212 0.8416429065374538
Ni 0.5007677973676058 0.40029940297584926 7.3019593820715745 0.42520004195239675 1.0070548284187817 -1.1881383953990956
Ni 0.2986266813880098 7.662318054171771 2.389090580083457 -0.6888679566938458 0.842733311388155 1.1876866525736576
Ni 7.9857115013236735 5.789152509801067 6.175084549521792 0.9017146750183695 0.8534447842683883 -0.20205142748123267
Ni 6.384736912975106 5.428588470177464 4.656645403227011 -1.2546289229221619 -0.6886833514868655 1.6752637141013793
Ni 7.405283407229969 0.3700490455575685 0.5967227525684861 -0.2668671384050372 -0.15668945440666562 -0.11425776760501612
P 4.4396648574679 1.502054349133257 0.3323273990524761 -0.003186882368413866 -0.7604456689318323 1.4390891196841926
Ni 0.07453633055387533 7.18800270893665 13.816165185684858 0.3806250835554993 0.3666858477665878 -1.1425565930042387
P 5.960806305835375 8.075301921828588 12.059195842645497 -0.3925480602453304 0.6235909898629067 1.9135450704489236
Ni -0.09646047525849545 0.5678551411901526 4.1458694238364 1.8025760008975087 -0.9140899087542709 1.9665748444813937
P -0.010634506506153213 2.314566329972135 10.12528054046867 -0.34481604427669005 1.1745280037045127 -0.014975133252593564
P 8.347660145516848 6.129932501581607 9.817755219242938 1.1425900173453356 -0.18977543832735705 -0.7422260606000121
P 3.4103089327972453 8.965519026229554 3.6245128352987197 -0.2036128584310816 -0.3773271295305179 -0.6175036460182461
Ni 5.184498482063932 0.2043118785799432 2.097150888281106 0.009565017980615785 -0.7532679202364705 -0.29414757138754505
Ni 7.873670042965854 5.21558239001839 0.5397616074000421 0.6175005606944527 -2.298154849683784 -0.13957002111755962
Ni 8.529071222074977 3.4639460977339076 4.457312525508651 -0.805127328109923 -0.02203898207791043 0.12176204640186128
Ni 4.476928376420779 7.908275864557006 6.727832632666634 -0.13433731196371057 2.046908448535139 -1.473540616493843
Ni 0.5233693761200225 7.634347183336818 11.313100276435053 2.098492491260018 -0.8621014315021216 -1.4117801474565945
Ni 1.6313057918054739 0.6608364489932969 2.3175641382549776 0.8300176635936996 -1.3959706912281635 0.48456655683617195
Ni 4.414137953087961 4.3624336589598265 3.160863591573353 0.32567803789565847 0.2820261055336627 0.13558455410725037
Ni 7.752605423285529 4.110956015592544 10.778347406370573 -0.2930409685869276 -0.8712324472691124 -1.9611935255648225
Ni 4.411917010187777 7.638380192619996 0.317281672484744 2.313098358367494 -0.1631336673701126 -1.3166560153572355
Ni 8.244558214648471 9.087224838630016 11.866024919894135 -1.5028668762617858 0.9609708895765255 0.2982636504384476
Ni 2.3756283207550193 6.571565603385986 12.88957479802071 -0.09754019774001911 -1.2866221879993067 -1.4321494551415659
Ni 5.601543236948282 2.9032277102983213 8.468861367124505 3.566134739991555 -0.2695544554292132 -0.18402028101113468
Ni 6.467645919483232 7.0206792869252945 7.792293394132375 0.4007035994729293 0.17930230671017508 -0.2085555471483376
Ni 0.44192767874971733 5.067271726056309 11.302641400978327 1.5294878212834242 0.5403749220550436 0.9625359200708005
Ni 2.1872570507565645 2.5419388441215207 7.061253776402591 -0.32221219083424507 -0.34952964770227546 0.8821982022519967
Ni 0.812911564707949 4.160903999226391 8.930756158885208 0.12787998637414105 -0.5302758859478287 0.23139774185383372
Ni 3.009563482711736 3.4927440142513566 4.965898227737868 -0.5362994664340893 -0.5622961476081672 -0.13298902546593225
Ni 8.260829641502957 2.3481499602703155 8.122410072197596 0.9985902425911964 1.131824551298715 0.6401177838733363
Ni 8.643909767516293 5.558834226198299 3.2728111941851816 0.8033969756823777 0.26279553943882483 -0.29841097464958927
Ni 3.6521593927143576 5.874449726875499 5.013024963403112 0.035392263456364856 -0.260222636505326 0.17222765925158082
Ni 7.224913107261048 4.724168572246287 8.040194297239069 0.587255388656666 0.1688823969284317 1.8207652702120256
Ni 0.7237272329257888 2.6603736443844728 2.821933766033091 0.7789969495714584 0.01422154291602067 2.3844996929286157
Ni 5.055841768871263 0.7664055779369823 4.666356220510242 0.3045872786636303 -1.3235817959427916 -0.8395194324365477
Ni 3.6926195826198027 9.107473518878974 11.67798075110943 0.7276450774620435 -0.7150081054243235 0.543610912493838
Ni 6.156267866347806 5.662586642434929 11.831628182885636 -3.3486325251728912 -2.714474044206783 1.249546366192932
P 0.8828787001822408 2.1620460964126345 5.300014461553045 0.4391778442887275 0.101202991303587 -0.12785967465916692
Ni 0.3170168320133831 3.8904135978098333 6.498170410020992 -1.4380858752306587 -0.031718157038887314 0.7844011513061652
P 2.7259146915601975 3.5904840871556902 10.692907082515124 -1.0996132566734933 0.3196318317015786 -0.28710969070415715
Ni 4.207079167724359 1.5730130101617312 9.786445499939212 2.5966480996345345 -1.6963477884651883 1.04121424790931
P 0.23957283186340908 -0.029989234006167115 13.71388751270454 0.5042239260557833 1.1414206796275825 -0.10399392378516284
P 3.205294530019587 4.996313065027835 1.4165564108594775 0.5968785135687269 1.0651753867105977 -1.2571938554358606
P 5.212924692656665 0.2611280584377476 8.394207019939534 -1.0303842471733415 1.0632740559228269 -0.5578573951105231
Ni 3.704839414894874 4.618018652795232 12.221139750661386 0.3070431964032906 1.1927409271681135 0.6056341482741698
Ni 0.9834130723756345 5.354033554327352 1.0756955730403108 0.989051964083458 -1.0973733115993811 0.14295462131907638
Ni 6.562031346416996 7.225981761794609 10.242668988553545 0.6625002653335945 1.77938593593429 -1.7123102253317157
Ni 4.223796641688506 6.873929787847025 11.09163974501829 -0.7654099549156431 -0.2468503289634781 1.585084841822438
Ni 8.791579238758237 7.789116237740855 7.89147011043574 -0.037872349565741224 -1.7132432786689462 0.6482257576924514
Ni 2.233822510475486 7.161351394134441 7.868376021333072 -0.27796299120788254 0.5436692765355992 -1.106342862087843
Ni 7.695790172692536 1.3626925053087378 2.7554123444809258 -0.9597907532254956 1.7112416748578854 -1.170599358074068
Ni 7.117369290592303 7.215815604753599 1.0060406705427813 -1.4745616015591896 1.6929174226274004 0.32801414222800285
Ni 5.325189174569314 7.577383250373937 4.5332316021024734 -0.6015077848106222 0.2905259154745577 -0.8286048424065731
Ni 7.023485666656908 1.4996382606225964 10.16563386492076 0.5518443561472238 0.9110390377430889 -1.331219000773075
Ni 6.49362816362095 5.37267460645191 2.520568541244729 0.35325131952823674 -0.5597340433079457 -1.4008545016830263
Ni 2.8298622534073044 0.21565727266711768 7.522454407348883 0.9419380413147906 -0.45658446980094913 1.0935212848431424
Ni 7.356701442869458 8.565619207122776 3.53612209566583 -0.5729734248163552 -1.970468523108845 -1.3784828188560454
Ni 7.199813664694532 8.374292875022821 5.790007433427916 0.5679204357734801 -0.43438170845166485 1.3744119912207813
Ni 2.1855379108547486 6.0522924265563445 9.842317546748236 0.7177355316578156 -0.309473403111338 0.7247070778796422
Ni 9.211644104280913 2.232493661794623 0.6673589587072684 -0.25700875755371866 -0.9399739756098845 -0.21803057651830834
Ni 2.3452506540575233 8.127424385122028 0.7907876280687935 -1.6570016825673979 1.232529519919961 1.4413208372281887
Ni 3.813154521357406 2.185974665316291 12.067506257857357 -1.169206334381283 0.6813999304515749 -0.246728201563317
Ni 2.453742320834296 2.9667057895918663 1.4808745455428824 0.5272995769283242 0.5140416834771534 -1.2491936108392037
Ni 5.390367808468439 4.893935960712657 0.5513597615160241 -1.1417847478352208 0.1814409503197327 -0.3623226857018857
Ni 1.5482945661680512 3.2994383481022838 12.885209111934909 -0.09850847519055939 1.6304200754241278 -1.4800177395777545
Ni 0.9977516284215925 5.803964990901039 5.1395387919397875 0.9724259254910027 -1.4010733025620514 0.5361505995610508
Ni 5.827075806770319 1.0613226341963165 11.91278366669391 -0.9213908132910582 -2.7260275533723375 1.214571907000276
Ni 1.993774824293251 4.6772499918988855 3.1603060326862775 -0.5412277569736421 0.14146852369185314 0.9014130846175508
Ni 4.473248487766081 7.7559321913117465 9.032829393606931 -1.296180006891071 -0.3077641337297151 0.11045484891915816
P 7.072188435442952 1.1648334415818815 5.031902978054676 1.598299797850815 0.06989929609429897 0.1604599771926914
Ni 2.2923569009702947 4.935297537485541 6.959126644321785 -0.17067188472868672 0.058824526337376115 0.48495325075162926
P 9.008841351755319 7.353895063137845 4.77295869192464 -0.7129111136859786 1.6062902722554595 -0.7623644832211
Ni 7.959366843909358 6.597956724040893 12.151286914758945 1.2517994238931667 0.9288030465947295 0.1593621161428223
P 4.994891289865794 3.8065474485455613 5.73559061531416 -0.2266049484508807 1.9573728662671515 -0.21071964467919194
P 8.244242264612462 3.4674587187224835 2.202570405590093 -2.3308772796174697 1.7705657665394992 0.0005214197211087793
P 8.53604070816342 3.5832172363274735 12.744672677388284 1.4745598017869765 1.1676441321004856 -0.163368409088738
Ni 4.4161637503776685 6.59264132931744 2.472545065036105 0.073814314877989 0.9951349370527443 -0.4888307314291646
