# total energy = -340862.14200944785 ev
CRYSTAL
PRIMVEC
9.32936037661486 0.00000000000000 0.00000000000000
0.00000000000000 9.32936037661486 0.00000000000000
0.00000000000000 0.00000000000000 13.65446193737466
PRIMCOORD
 96 1
Ni 6.8016914200140395 6.794162626239082 9.71648771985737 -1.531806956334904 -0.9577819503255828 -1.095745546187971
Ni 9.379085806415514 2.176950253560743 12.19609734904344 -0.5878156320355102 0.19455434777323913 -0.21723636275178718
Ni 8.757498516645938 5.312874783356411 4.954917490330463 1.4756733465661296 0.7048928713671926 0.3081976217227079
Ni 1.5615203415996832 4.492301567408331 12.620982540039849 1.649345451573721 -1.1159454181746136 -0.0059104519471640145
Ni 8.94578366654207 0.5069145245102697 10.072814240700094 -1.179301770944072 0.6373289082742895 1.5914976873273172
Ni 8.829138674511977 0.9942392582291464 2.614556027347925 0.9552157322603034 0.32244924654571566 -1.3621210896685703
Ni 4.887260036383296 4.481656767287853 0.7167430332479505 2.1137206210636825 1.336225709959047 -2.641380666655219
Ni 7.351647881277891 2.308942043310543 8.517134078658183 -2.5958086344523745 0.6240303913931705 -1.2393948795812268
Ni 6.636337837774468 -0.02375535017245663 8.595716213535306 0.9299911533655597 -0.8831219996178468 1.6152137999973344
Ni 2.3809273875082715 1.4687398532577434 6.866569657523091 0.09737898957180648 -0.6955394551767504 -0.2303759854575387
Ni 2.3279646089947277 0.7487604649161962 4.440499361318089 -1.0123142770455082 0.278005928630676 -0.324623371378899
Ni 3.2377731563646934 2.766453873203829 0.444852820880598 0.521752936078482 -1.2048315397840605 -2.263080374578154
Ni 1.7183468885104933 0.3431077502110796 10.975825416143872 -0.9232672043781647 -0.13372564652164068 -0.22129613464345757
Ni 5.520247804458938 2.883667956213193 12.006968824974747 -0.21804034671032127 0.36651795473015586 0.5919556223458129
Ni 8.105301595679792 8.062685077756617 7.02182047547654 0.19138443468568975 0.10567311125979864 -0.4735614639749198
Ni 3.681888024844301 2.91908220797247 2.6857642358313365 -0.5438831923186181 -0.14306209343121815 1.2013867757685697
Ni 3.22837849052655 7.204076059800485 7.892716260968755 -1.26351902632294 -0.42407775542249554 1.8591695810218367
Ni 6.695840497869479 9.010557415215585 1.891525005247037 -0.5736596522501024 -0.5672720035562037 0.7214044958689705
Ni 7.984514367669427 7.994403489604315 11.092051519895778 1.510698713601379 0.8435000143508504 2.761738119400069
Ni 3.411112671034702 1.616908753795369 11.922052054443107 0.11185969968648478 1.247207176536794 -0.6306052163972107
Ni 1.988982301915353 7.293927129003222 0.27573017707339 -0.5312505911562722 0.036263096097092384 -1.467000758492796
Ni 8.98339031797559 7.530892881027884 9.090594930301993 1.1854220249091971 -0.46013901992142686 0.36532701974584825
Ni 5.186424633634274 5.381566863362615 7.861706400214629 -0.6480450091402129 -0.009547020258486784 -0.041948062297011625
Ni 4.992131375694682 0.8600560017411337 7.356996403547015 -2.313684312777951 -0.8941869991827567 -0.05701189860866956
P 1.7752000102757806 2.8939955580829295 11.118022593143268 -0.21799046730899233 0.3997157816383632 0.1467254012154183
P 0.278158609563627 6.347127667980588 7.37603109739961 -0.08318829989372124 -0.9372591477818826 -0.9606423025925133
P 8.608592596643355 2.2700106227121606 0.5477416711248496 1.3560190905358906 -0.2247676381318258 -0.14927130756572357
P 4.180560992451476 5.124393716893644 3.404807889333196 -0.3295249224455744 0.31822595249298746 -1.179731145172007
P 7.580011963091265 6.193183893407401 3.467741888152407 1.3250990039182662 -0.6916370347985509 -2.023240415494238
P 4.226312175440806 5.198300909316455 12.004811876869704 0.5279346394091617 -0.5989356532080717 -0.15985448239820857
P 1.063966897230419 7.994384830883682 3.9835659517643913 -0.5187444882694614 0.7089739834151016 0.8163694766826456
P 7.213694630286211 2.033334080857292 10.727477844533771 0.15752249183092226 -0.06040318367840565 0.26377975772896506
Ni 3.907630556408898 6.727625628465858 1.5983228021739702 2.4781703804108997 1.7842162674433981 1.0809899851453513
Ni 9.02723831146047 2.967622869696262 9.784541671617964 1.5539325845893497 0.814042885431998 1.435612731099818
Ni 2.2123551759597033 2.0871178430786377 9.24325125315158 0.6445706774383674 -0.3887076034533177 -0.6439471849217555
Ni 6.724444316598125 6.288613920079064 12.218558716940077 -2.302778207388408 1.1044376746453302 1.3424128126063655
Ni 7.534120839697198 3.5590576669247453 1.8524872299410526 -0.6181567062212128 0.08865626498682795 -0.45312196517364545
Ni 5.219767767403413 7.8072565216667265 13.248419338727512 0.7911760081361536 -0.08585016299660053 0.8282919391518446
Ni 3.4348279049578005 7.915831617023538 3.933112771175834 -0.6769249253993568 -0.5086377388527628 -0.9574309947440672
Ni 5.410030741686523 9.434875381104785 4.296471763824706 1.7372992911768854 0.15562398925662874 -2.154219352508677
Ni 1.7314079929527977 6.590316103335977 2.4635789893552045 -1.2790402618869907 -0.654439342702331 1.2279532134031885
Ni 5.132622212692297 4.953862339678731 5.315013072740823 -1.1959108402556629 -0.3794655160297594 0.05898110651989842
Ni 9.120877100951475 0.4612892878852063 5.444347860672645 1.9450665380959726 1.482404751752692 0.17298973422858596
Ni 1.5156105594849836 8.38708559466219 6.434132349350935 0.279363471099835 -0.7340288695012004 -0.020773742212241642
Ni 7.021285903130437 1.2914073723725155 6.262181976431967 0.347895197422646 0.25293304482244827 -0.5830976577345506
Ni 6.957557042812309 6.3460827796252035 6.173701390259641 -1.1334021801984804 0.07723773873724118 -0.9142014946314708
Ni 6.412395872750846 4.237386126135816 10.006603770537925 -2.3551276675244024 -1.1328846171321134 -1.3111209444716194
Ni 8.049959830285687 8.015357232873896 4.636427123185032 -0.21119889830845565 -1.1350736543636324 -1.5434296281754967
Ni 0.1496858545249961 9.215579437518496 13.217040968240907 -0.24332457519840675 0.12138306579588773 0.18423548234573434
Ni 3.02488648331545 4.527025446504228 10.182090903952663 -0.13704905446791882 -1.0663346971260215 -0.1682465631166457
Ni 2.061648689416144 7.165209944724314 10.089540850810526 -0.39819934499383675 -0.05981157284099377 -0.25315235992210594
Ni 1.845123565843688 5.76866068159125 5.420616766837011 -0.3838227645571906 2.698575627808972 1.4024714684611588
Ni 1.25399663750563 2.7817820122029047 1.5052269814533519 -0.3458141465239012 -0.42783953645777284 -1.486251379192292
Ni 8.771035418464356 7.6911526325349575 1.798223938599468 0.07930747678207631 -0.40646235633357736 0.14375114907844275
Ni 8.357110359967102 2.9742467155205734 4.340152761759929 0.792246615492513 -1.9159613931999002 -0.23062255425070605
Ni 1.0610841248927962 4.160036399756428 8.066469066300758 0.2773029890263805 0.5721079914922663 -0.310829145808284
P 7.806846029812825 4.986281866776593 11.153810952251213 3.6228324497939153 -0.5565638731100802 -0.5199343948125046
P 3.9743448120281246 9.079967855966116 5.642009950622319 -2.175868555347337 1.4493956438165232 3.2556673483980636
P 0.6326509781682379 5.379318487526476 0.7281677678908404 0.8691395692958257 -0.17494531529306 2.5573125352597055
P 2.2891544700804523 0.30470437140657874 13.849720867426125 1.2048477377339766 1.3483608026596843 -3.5209470877113236
P 5.453057751463599 2.7832000749709263 1.6429180774201548 1.092942786631853 -1.9179234020222775 0.10220674997775302
P 7.443094271094653 0.8204034215903296 4.136168164324148 -1.2923164101706066 0.21120995405204915 0.051111988184466814
P 1.055654437188924 7.690900739806428 11.891370587172103 0.07442983697480085 -0.22797020422952352 -0.1617799815556956
P 4.79632676138391 3.3426165075951326 8.75645642709865 -1.1833162914201039 -0.5161756991010207 0.6096841499738274
Ni 2.876204467960448 4.854700568880695 1.248426076460987 -4.268870198696112 -0.3710906617025029 0.5539017528968847
Ni 3.6069266147057903 8.984705757780137 9.33095377067356 -0.10965626427726276 0.628230288407131 0.6947442129689648
Ni 0.6448127322760863 5.1863033519501665 10.318431108545719 -0.7554875535956085 0.22088270125512283 0.11568318719763303
Ni 4.11435052228931 6.943684284022519 6.021371595021109 1.5072611486747396 -0.1003450141786659 -1.4496221580050324
Ni 1.1148865458347739 3.5175793309601135 5.684966990197027 0.49837646613607073 -1.1165401143358191 -0.13691689976542873
Ni 6.174525172775538 3.4625734225373805 3.718847218671896 -1.843915997296876 -0.0612318502272881 0.19030431424763355
Ni 7.1364848443115605 4.049819336984011 5.83982224327308 0.31903302177531506 -1.1305608540949434 1.4162438396549029
Ni 5.763688132542858 6.98396846186671 3.8343773521442346 -1.6938327353528184 -0.03639730768211151 -0.12808927417146973
Ni 6.667889734362949 1.5202565809223176 0.36559150857247474 0.7997565507163129 0.8155377248099696 0.3272171002480042
Ni 5.06671028206024 1.527468176446533 9.950333733792386 0.2931813508195338 0.10202805830804365 -0.1253561915110228
Ni 9.090426068880275 5.9075188805335745 12.569382781068462 -0.1224179348183053 2.0033313352751367 -0.04850051870354873
Ni 5.399628504934259 2.9631261180239825 6.78314091996184 -0.7687338770825535 1.4136542245508557 0.11034223460069385
Ni 4.339617256477794 2.1447919485517266 4.866723315519835 -0.47444515213145383 -0.010295211278420981 0.5120945870531116
Ni 6.484278593985098 0.3430965549787005 11.978854797662688 -0.47421735239136403 -0.05017456397186197 -0.30143999128390014
Ni 2.1531230673138535 4.341417823018769 3.788798762320751 1.2115382623802746 -0.23690427349435972 -1.1641749426049628
Ni 7.422858888569397 4.028529736743055 13.133025413915785 0.19934251319050186 -0.22934960107555338 -0.15263379628005325
Ni 6.3102300479310784 6.234615582570452 1.1877563133904523 1.5528727758662675 0.7104060878759378 0.638383831901365
Ni 8.871895132839892 0.6596781350034918 7.910685541873271 1.1937143468249765 1.3504783632233195 -2.3064052626180342
Ni 1.8400670525524527 9.143286224430343 2.0219933104572454 -0.45408355775596637 -0.5963504089793987 3.2061239902522978
Ni 4.342210818645624 6.382513931658916 9.960383320724707 0.7921183174447648 0.5707363079557203 0.9474168050411746
Ni 3.42015282118084 8.636207503178513 12.166234999608175 -0.5440940227778436 -0.9734294270548526 -0.6029105786954196
Ni 4.5352912597441435 0.8216470253204434 0.185406109302635 -0.24090516712363674 -1.0771168753431903 1.1174649401429337
Ni 0.11185716431595669 4.380405219779047 2.754118592994104 -0.5218853478912883 2.3303373479535994 -0.4226896168257172
Ni 7.585012500220604 5.000826339509131 7.991055182186926 1.759398694179086 -0.0036057150733873385 0.6442768003470324
P 8.913597373452108 2.7149278161789385 6.877984129869633 -0.8922141917271021 -0.1146449757411058 0.6326865244062717
P 1.2656769966211763 -0.28522933174707155 8.687050651028276 2.5324507390210194 0.0725974117517524 0.2505565741704717
P 5.931486007185203 7.5176172012983145 7.776092726467389 -0.5914948806593103 -0.7486743873285171 -0.7755241605315095
P 7.475625750516306 8.242405874882724 -0.0689999488966301 -0.6775707865134718 -0.7051816062522048 0.02500629223635048
P 1.0023558017040068 2.400621667135203 3.50586538614743 1.1473768972110174 -0.5010182746342919 2.1867620623313884
P 3.2198887726390524 4.77539167683496 6.753264576486101 -0.011096624133793791 0.03692438383017512 0.04216377785224352
P 4.497815219355046 8.844653400717373 2.2703548761078185 0.041918751720972966 -0.4174790191590552 -0.8571996233251302
P 5.334649510333795 8.201897792390948 10.802522285979094 -0.2988652885781885 0.23240510007242554 0.14079078089853816
