# total energy = -340868.34711573424 ev
CRYSTAL
PRIMVEC
9.30570910597685 0.00000000000000 0.00000000000000
0.00000000000000 9.30570910597685 0.00000000000000
0.00000000000000 0.00000000000000 13.61984591208370
PRIMCOORD
 96 1
Ni 2.742448356060211 2.3309312807319356 0.4208060343213709 0.3831828169803465 -0.4276536456992119 0.3483618526464194
Ni 5.394780223551858 8.798464363194928 1.9531399569392023 -0.8032686776346296 0.7479076843658217 1.00898289867943
Ni 7.06505267467566 4.56055130464376 10.283501087878168 -2.1975311279224345 1.3117045848892313 0.7172884168180679
Ni 8.843755250210956 1.08404068425538 7.465309841787499 1.1491841256230853 1.0754867959389347 -1.5951201145712528
Ni 5.1188473322842984 6.620667834206516 9.153381323031612 0.09365088998794194 -1.0400081434163508 0.7996318522129906
Ni 0.11111389096489838 1.007445391255809 1.2919702438921576 1.4836761622659478 0.4565903833382201 0.8379528592803761
Ni 1.9466147935992317 0.5792729574764791 8.289896184750248 -0.08041330825174538 1.5561002816646297 1.6820434560273745
Ni 7.889222121863122 3.7726089836435563 0.8677341251339453 0.3500011880220553 -0.6235940751867002 -0.6481650796578451
Ni 8.021605141935034 8.601871949161525 6.191922168736168 -0.020479608010590535 0.4060311823334298 0.8690457240304387
Ni 0.30989035496391887 1.895293806976387 10.56833302892042 0.91803089567989 -0.41339147935324294 0.5577836044497942
Ni 2.086116681262525 1.3371001421378168 3.3434948120861243 -0.5763269146696203 0.15713374103293584 0.22318281014320915
Ni 2.7426623873734157 6.7340113731124545 9.124003198866912 0.15376508167101904 1.9031362164107741 -0.059795117780761534
Ni 2.0536769787480673 8.7463989198305 10.800347625289247 -0.34060971950482627 -1.303906171890735 -1.756109739015169
Ni 5.017666355393964 8.167174352042226 11.59283206298403 -1.7067535571795445 0.15937857120305454 0.38970544859021267
Ni 1.8518454503957775 8.413356890774294 1.2959744905909445 1.070504512232995 1.8569221797485567 -1.0694490743852871
Ni 4.284813833270867 6.740134529811971 5.891782335945126 1.59109968055795 1.3827819604520315 1.6977467256952437
Ni 6.542760436199907 1.0683140355894496 11.996197336991978 -1.452364239526544 0.1126711398441866 2.748545017748563
Ni 7.659761942688852 5.1827682492584275 12.61199148106864 0.8115417162766991 -0.4021051078061462 -1.6273797459359072
Ni 0.07787017516953114 4.211121921563468 10.676938100666185 1.2066248842390574 0.8434190246012699 -0.16545305953190861
Ni 7.544380453452832 7.340901814559791 9.001546578873077 0.24716606043168401 0.204321454462332 -1.957485480585616
Ni 0.8333597656622996 3.493093394307131 1.2539945749331065 0.8746499575910937 0.4289217137783581 0.00574538712420946
Ni -0.1559506593685593 2.4168881172569066 3.5271318176741375 1.7085970381461864 0.47247234467579924 -1.061898258621223
Ni 4.312870546719258 9.104473306822422 5.6758936031699045 0.6931136193440772 0.4353816104710889 -0.562235983794193
Ni 3.054524622131601 6.602847400954885 11.420146016064697 0.7052096312766629 -0.6860297159141024 1.9456699760079266
P 1.6607061819944666 4.07476536363336 3.2026249851601727 -0.07319185080264169 -0.19432217715777503 1.0570157337179409
P 7.557334000756368 4.8393317429478735 5.3939762102709485 0.5399797434991539 0.912852436802744 1.891315569626762
P 3.4131945745167878 0.6162519849727367 1.8948880780522246 0.17666178376353447 -0.2860401117890622 -0.6056930265365633
P 5.511566874887615 7.951672736772626 7.416659593725082 -0.09973926227386694 -0.5161348185607563 -0.31605671275581054
P 1.275347455423547 7.034018134260939 4.9646656882479245 0.4608273042377032 0.31067745072176817 0.08031123545624234
P 1.9914217837332293 3.1730700525193467 6.803930750281885 -0.9744244439782702 -0.26189333933952963 0.5594638203656945
P 5.352355494990925 4.110694707123986 8.34523351549393 -0.1542150247242441 -0.4556709568477443 0.4629181253284608
P 4.942401778819972 3.886938927732091 3.4692475143033157 -0.008542233143056256 1.083143026932612 -0.057140196656417716
Ni 3.585750341506345 5.695978115486874 4.202717004951001 -1.3420569719288435 -1.5972191631921266 -2.6774660995238664
Ni 0.32081246593386137 6.600064993883221 10.32015255440813 0.08811941864675146 0.35733294579677816 -0.5877192156669621
Ni 3.5045394167089623 4.172838233627586 1.7450289359716642 -1.299237305660156 -0.2691731608303945 0.8199924181472136
Ni 7.0173702203773 7.416910847875365 11.191509392160802 3.1835525327096854 0.1203566814139024 0.276946119907594
Ni 1.2549493407041863 5.475041966003723 7.965062721840915 -1.0762889801252562 -1.06317224023764 0.4766293042669663
Ni 4.639026350915827 1.8182146170947873 3.4411089106133512 -0.49423467605355526 -0.8226727931928541 -0.5251797023718439
Ni 1.5172958964378647 6.410721727370977 2.1167147839124936 0.33461339271207535 -1.954936488911517 0.7585674780725129
Ni 8.744789032126828 7.565616082006473 0.6662869225744976 -0.1802926956479024 0.5463026003933882 0.04470402777559398
Ni 0.52826743439788 5.692497780219975 13.351739533760648 0.9975607728854174 0.1267453585490656 -0.7390672032560561
Ni 2.7663640288835487 8.115071685840718 7.220493381176235 -0.17931901888072344 -1.0615532165769783 -0.8385411276836784
Ni 6.520147562674337 8.503129068099874 -0.12403114600228199 0.850165342186168 1.4748099701245696 0.4301964667257236
Ni 4.413939855098354 1.9594659781008 9.19726425623512 -0.6131327706440602 0.9197903015731578 0.06893410396755224
Ni 8.533670405923298 0.20296031088671426 9.482286964317403 -0.10426183273456881 -1.3690617826524616 1.163319536583203
Ni 1.814185244980972 0.6619755874698079 12.653463305000349 -0.3007429652168756 0.408179081914368 0.6244926757415696
Ni 6.9096194127425 7.036428312961811 5.056531650159207 -0.5798914920924271 0.6488003992489988 1.1438362310476107
Ni 6.623143152872278 5.347172214927656 3.6669389326014796 -1.586046691515075 -2.513987904330141 -2.1513978238994818
Ni 8.8281588814748 3.8227481451891387 6.779332968969071 2.105222353784684 -0.37377849294731114 -0.8252588087524756
Ni 4.341532131270184 8.922053488006895 9.193586639931704 -1.1457499031305558 -0.808570035242885 -0.78830588567721
Ni 0.17835322386463118 8.676057063460224 3.2090263825668557 0.011360933538773982 -0.30070259889724343 1.0579138200521778
Ni 1.7661026451840114 0.7586693513502528 5.946070913254105 -0.42025761034545683 0.5081132338078603 -0.8195900405024723
Ni 3.8667827614537447 1.9549527091049557 6.65717692338465 0.4698207659855651 -0.09000583703618692 1.1789580144514082
Ni 4.610718383317153 4.298893371396046 13.049678072005396 -0.2807845198170777 0.3783928517908709 -0.18030400850181208
Ni 7.117276315097673 7.312500789868418 2.6054766907473703 0.9589883119288581 0.09898387216508114 -0.7497370242650765
Ni 7.286789115156012 2.8239105350078777 4.75058877706753 -0.27722585593154186 -0.00601329607361545 0.0434218186290607
P 5.991350633419007 0.3381517940162451 10.311054362455065 -0.14908978768253678 -0.9430677840438596 -3.7692917418321406
P 5.581573725724181 1.7238454193899335 5.350120263624323 -0.4466093608661083 -0.7056788576035975 1.4872263415110516
P 5.163123896989919 7.317404898653593 3.7290182497111193 -0.8610855886430976 0.3190173380460312 -0.005443796723390625
P 2.456288490305161 1.570626916262982 10.469316560006238 1.1372302956953189 -0.503947532465945 -0.4889824265156804
P 2.6903922184050533 5.558849183687374 0.22320767311590473 0.21344732802300015 0.3869564250901658 0.019915507977004414
P 9.627686810515883 7.802009014586732 12.063588352952808 -0.44887116031709146 0.04642486712144263 0.9930006643185608
P 3.298939076102411 8.424588881862919 12.867458325939168 -0.7820251948748209 -0.9861018803161985 0.12819186118760503
P 2.2290709870649077 5.019499580120112 10.18987820805675 -1.253680957186596 -1.0033483261014722 -0.03009347695127075
Ni 4.0509334421934495 2.16086944382668 11.828591276763017 -0.2870911787613959 -0.1283409851709596 0.0020458267854351862
Ni 7.060576628516895 2.114322286059233 2.3620216554022755 -0.8867752800997178 -0.31382756631497566 -0.7501851675460887
Ni 2.8921306896646453 3.322138209311976 4.97718186721578 1.8539520413766395 -1.2669491350504116 -2.891153311471814
Ni 4.1956372213385515 6.553573670371392 1.7192604964327125 0.060337363437476726 0.26007608362513274 -0.05554585558610434
Ni 2.7911265212504377 8.070981235320493 3.725994824769367 0.32785730493516435 0.19328885079725422 0.2033935433314239
Ni 8.57745376803762 0.2998336749560661 12.763866239777036 0.33069888814901754 -0.8243347542763094 -0.7811615613229449
Ni 6.4369266046746825 5.7137706316106955 7.270900547148787 -0.6175815504440331 0.4969631307283118 -1.080947819053506
Ni 7.764776871798336 2.832648596012202 11.681578751148082 1.1879244796160768 1.0595804091213235 2.5326757105476316
Ni 6.734271932972008 2.3575642206620504 9.660706258717848 0.08459057955788657 -0.6044033611908622 -0.6850521824921815
Ni 6.2586199093563994 6.4036493883259435 0.16588729572683195 -1.250902366000194 -0.7972178434548594 0.5938438405074611
Ni 4.547541923084606 0.7150851314143045 -0.03350613679677507 0.7598157486573172 0.01077266513547177 0.42004986521002496
Ni 8.908160064067113 6.40209533487789 6.58737479815202 0.1906933221559361 0.3559687184593998 -0.9822066590268504
Ni 4.9914335609624505 4.336721079577708 5.755024701945491 1.3122326894785594 -0.7896731983383819 -0.3146667743868194
Ni 6.879254883395204 0.3134069824969693 4.114882276295387 -0.3827483005460892 -0.47859079886871125 -0.14525550153811112
Ni 2.1359673658207443 4.075640100304719 12.307655703967853 0.04955287122746305 -0.3193844915774629 -0.34031892773728484
Ni 5.83660599397181 4.522193171033721 1.4644199257960395 -0.40899489294744407 -0.48452053408958495 0.9165697377533313
Ni 6.599301925723098 0.4157232559182163 8.073436081425863 -0.8989795354753937 -0.6201313134490805 0.03252934008627301
Ni 1.999015242497371 3.1306825467954926 8.912568178548208 -0.12686440062543314 0.29460059976456365 0.7835226053559537
Ni 7.003895553354656 2.5979027739726956 7.110471980479609 -2.6990032022646937 -0.025198610752814668 0.6367887195001033
Ni 3.426846050015557 5.103241657838875 7.407589318899825 0.9666777101533158 -0.8583761601317347 0.16672344160389996
Ni 8.208380032688817 5.134257586835057 8.512907507400561 1.521624102264631 0.14655313730361214 0.9369529293953736
Ni 4.24294744726612 4.107260900403436 10.573781521697876 0.7091609026149271 1.5019957865107423 -0.9853236073892774
Ni 9.063937637243253 5.925103289127432 3.8844077748107106 -0.7510480297670162 0.2988791725352595 -0.36489173198064256
Ni 1.2342813604160017 4.7317577437892 5.428421293133045 -0.2043898458064222 1.7175982132035323 -0.28202739108524333
P 5.715036208071386 5.812690321148473 11.633092283568814 -1.1130261876452896 -0.5664163404241277 0.1443443025777514
P 0.3461370231406446 2.140797028931761 13.108162593624117 -0.2876745620686917 2.5511812255509874 -0.6558205393205738
P 8.809268291657146 0.9011946639552986 5.023203252409485 1.3535503172804237 0.22289921746451938 0.4687974669273733
P 6.101846625288392 2.659106423840048 13.632240597708742 -0.09170147957105497 0.20231856509969026 0.050330887044068164
P 8.84526277511266 5.507463057099641 1.700165181011121 -1.1066709348512231 0.8569430272296339 0.05143954672721463
P 7.745988644782647 0.015165514396962822 1.9370550384663852 -1.611110062241606 -0.7117703152133161 -0.3935785583923738
P 0.7527704622441385 8.017854941099312 8.462500341428008 -0.2451444020159649 -0.47128809455971094 0.03422061174576687
P 8.754020295722452 2.8985051005144453 8.770908296905251 -0.39776559989052784 -0.08269387675580597 0.7933115664219176
