# total energy = -340856.1274318291 ev
CRYSTAL
PRIMVEC
9.37423546634703 0.00000000000000 0.00000000000000

0.00000000000000 9.37423546634703 0.00000000000000

0.00000000000000 0.00000000000000 13.72014116723533

PRIMCOORD
 96 1
Ni 2.866791234724959 3.157251924839122 13.897817049991795 1.3565844761210573 0.7752349114258649 -0.6684443987321713
Ni 8.850450187317545 8.394852962846398 12.146647032242905 -0.7734407956399196 -0.06946992186636423 -0.772430094987218
Ni 3.7779856836672496 3.7267179891623483 2.517358165864978 0.07017054747781463 0.1692860601247536 -0.7590847840285637
Ni 4.018912912862799 4.379867854700651 5.187517309458853 -1.3394154205409383 2.0692960722017197 1.1727326023669868
Ni 1.5318157169431992 4.189495878104284 10.005742231935828 -1.423703895477374 1.288926153542135 -0.06400144255262526
Ni 8.011531094863239 5.51955929643083 5.032081234102359 -0.15061110942306963 -0.6882460068391308 1.8249888213750698
Ni 9.15311613218493 6.816400423785466 6.667426009029124 3.3082026992926186 -1.8505144764500003 -0.7321203396245778
Ni 5.245062929546114 0.4066965244556367 3.1840884865192525 1.251432270361735 0.3299789792638575 1.3370744311125877
Ni 8.034169873840993 7.985414474477308 8.021329983337543 -1.8090767781305035 1.30625950261426 1.1280583993880637
Ni 0.7082244371209947 6.817937798424122 3.731562594121232 2.1161230598575878 -0.6311641742244744 0.4979470919081359
Ni 3.4853126739511198 3.703151160860041 11.218506777603686 -0.2916399744743429 -0.7948724831511342 0.49496769756483794
Ni 8.85349681388805 6.0789574317179875 0.6367562023183043 -2.1015127661435806 -0.016980593718396563 -0.2005550454413643
Ni 4.975891128483081 2.752125584846746 4.3416153489049485 3.2229585453111333 -1.4931334510241059 -1.2706947181357728
Ni 0.9405545548463589 1.1386883985208125 12.371478698910586 -3.4353445219491543 1.3554711884522204 -0.26555047647614266
Ni 7.929075318511965 6.6117608606035345 10.058112336547474 0.0398919510989313 0.2868232698119899 1.3453261295984185
Ni 6.502007310180535 0.4771242191065547 1.017580773937211 -0.9623857676461814 -0.4523665750648596 -0.8630285713020814
Ni 2.9214711509888263 3.4046098796573383 7.188997228816889 -0.20136417160622094 -0.5736300845637475 0.1582326305240694
Ni 5.944783997552939 6.895734579681421 3.8760767475783546 -1.0806922513992743 0.3469708858361637 0.32299663440875337
Ni 7.778412603923783 4.50355151922756 8.938603624067442 0.5630250553543917 -2.494924202830471 1.2268872340325194
Ni 7.820512296010365 2.3989231358513794 0.757321996084136 1.364124236141528 0.06393227987758666 -0.2718298817269512
Ni 1.069215938477693 7.721286012167911 8.904659516954213 1.4316352345093086 -0.3769625471022476 -1.8356606992666191
Ni 8.052871473866093 6.3736084051460455 2.9848034867129276 -1.1072561179307316 2.0893015687893697 -2.7740645021759063
Ni 3.5744522802863004 8.35360632619956 3.6843651927145262 -1.4700032927645457 0.20337888804340457 1.260553773047029
Ni 9.21642971943783 2.1786567219216555 10.395037362844302 0.7589541719879702 -0.17471751555297005 -1.309268464643913
P 4.870580965735219 2.4082036290969184 7.64541188663249 0.04430704944749144 0.26022623604975187 0.7447951068787689
P 6.71956457002141 9.220498137688905 4.861677316760863 -0.3538169622237197 -1.0831625673166376 -0.5216994571327274
P 3.252325422310087 6.577404287123837 0.46562296944700765 0.08931369606516876 -0.6411423684831087 0.1753500069306464
P 2.299087526694825 8.986367229304483 1.906441106558798 2.2518307698062636 -1.7128696973796114 0.35404476196380963
P 0.9167289976414481 3.3445679006293823 0.7032467180165695 -2.9121445690115006 1.4399247282116103 -2.1010656513038333
P 6.5158343076928285 4.664957107815123 3.693790986611889 -0.3628641600276525 -0.030210462145109265 0.39762573187855393
P 1.9715517347765144 5.78570321939456 8.378615849360946 0.7973307148836397 -0.5672318943468877 -0.6983992932230487
P 7.139699061211875 2.5124263805149996 10.36584130606326 -1.550836462162529 0.1875051542359416 -0.05825245588399
Ni 4.511069656180006 5.094465834607143 12.537259243253395 2.193496295731429 0.1980461629765815 1.192694133090578
Ni 6.494479798992487 0.8760429402835818 11.97672307576421 -0.015206789647425424 0.07822375679959431 -0.30397972698661846
Ni 5.215815314469264 2.8761935930333182 13.199503054748766 0.6235004870316294 -0.7451427200261749 0.5129764754374327
Ni 0.23997668170555192 -0.10155203169519893 6.864886782587386 1.1272860399984133 0.37767628533982056 -0.36130504307064876
Ni 4.444446963759759 8.241302983692938 1.3658083160988326 0.32198027732909706 0.5979720037432217 -0.6648016597732614
Ni 4.455902279664859 8.756614088945986 11.000713287025652 0.14369201370573317 -1.147094332973592 0.9437660956624649
Ni 1.2040268206636466 7.340992022284052 11.24633138371622 0.27034249854814735 -1.3431622891778803 -0.43363068921825315
Ni 3.0964412584918386 1.3349005238969476 12.320137885367993 1.3596214631751682 0.6198569767417712 -0.7954972612193267
Ni 1.0245852027786924 0.4626129023953485 3.2278689790491915 -1.5483419778754495 -0.2275886525203887 2.006942449665163
Ni 2.160273845907007 7.20787787674198 6.462763010258188 0.2945288659863637 0.8507749507457091 0.31476370497599987
Ni 7.043763134065567 1.5829896690920846 8.130638257569467 0.8915971269683934 1.1586720105088626 0.22813681171437483
Ni 7.128674960144447 3.106565432941518 5.625600649555613 2.2528029039115456 -2.1767540432760835 -2.2515752021520323
Ni 3.1322602127253782 6.712252666252198 12.163371605979638 0.22131001860052854 1.969028191117893 -1.5184086806511268
Ni 8.537772558827697 3.146227823771694 12.36221789155981 0.7632666833203952 -0.8999850939217726 -0.6500090748451193
Ni 5.570048929380802 1.1086627218890337 6.025214001590715 -0.5728063031108716 0.9825730412273337 -1.3938253627503865
Ni 1.226215636332526 2.1649047182941756 5.720475413231825 0.3667125872394652 0.7609483195998636 0.9393543397480145
Ni 1.6515996994598614 1.1430005468975275 0.8256601736194675 -2.022618465639523 2.3977876682867736 -1.1004774044460015
Ni 1.4182093556879616 2.750316357375646 2.585464799780951 -0.6153768294832305 1.0093953036265004 0.8204832417407031
Ni 1.4458352280057425 5.1747467882988545 5.522453122961029 0.13005899630333084 -1.0607057809750184 -1.2094698098870205
Ni 1.6808191918299062 0.09258838761299261 10.425948904740427 1.4561715290877761 -0.3423804382520039 1.8805552457864647
Ni 6.637015051314122 7.5370354114193585 6.337895379774803 -0.3597456690033288 0.17378523354668782 -0.6969713025272706
Ni 3.5574380426694794 6.291143254559171 2.594944964244803 1.0189533796285806 -0.9036304039838436 -3.2366154739729356
Ni 5.5853664303537425 6.25615860729417 0.9445451669419405 -0.73784695769571 -0.6275309483472612 0.6374577205426699
Ni 6.8982000036446305 4.373933963564867 1.4615933180519551 -1.7158519199363866 -0.11169900573890441 0.5783179769577201
P 9.132830286343168 2.7589312798934746 4.177124699380913 0.5071896935523266 1.807817966022738 -1.273829921330645
P 2.617211586069175 2.371644110250856 9.794616635141182 0.24059406364112115 -1.4208643691460496 -0.043112514918758005
P 3.4174713309026705 8.545562548612589 9.166989063451672 -0.4530106364067617 0.0965526370157692 -0.9994980991174465
P 4.73337965347087 0.3604637318923306 13.152415331898597 0.5062900645561925 -0.6263454126795923 0.3848190670321889
P 7.438174722765367 4.655123534669093 13.148478152945946 -1.3130310170101387 1.540502684336689 0.7580460583514043
P 8.832648513910193 8.753933057563941 9.729336333259077 0.38606785183762543 1.6177450510596203 2.387884036019817
P 9.10644181312479 2.3765187127636644 7.227674387485343 -1.7529863628948392 -1.716656418115553 0.8920429562565605
P 1.930980043092987 4.844080001689624 3.236018939481183 -1.1200638112183614 -0.664282811155314 -0.39920773165369317
Ni 4.593094217693608 6.589928265887514 6.249799125862075 -0.9505586931042662 0.12034151190525083 -0.8636397225235192
Ni 2.852214298364542 2.078239910157805 4.082894883114088 1.3438909398137888 -0.8173066437849342 0.4152784119633106
Ni 1.2507948820798014 7.278456496586083 1.5065540268441304 0.5170231347029804 -1.8906373126128146 0.056846319565082744
Ni 1.7224689206076125 8.60642008613788 13.271671544950891 1.1899517944587505 -1.7719281941046645 -0.40051539472152314
Ni 4.792268601519834 1.6598490267892292 10.47536893740826 0.21003084614228346 1.1058322410000117 -0.9930641705666446
Ni 6.745896797826176 7.088346998586561 12.839033698315076 0.9191665519462299 -0.36055093851344355 -0.8969982433793067
Ni 4.27046115099491 5.117451460302155 7.947954091589936 -2.946909740406828 -0.7450627587178588 -0.7760378669431345
Ni 5.7524153087734415 6.465710269931317 8.796599890904414 1.9636463579806889 1.6886686746533757 0.19618159896401696
Ni 1.1524685248550974 1.1879968777849887 8.691105993138763 -0.6828176367347079 1.3911123346945977 -2.8598969245606938
Ni 8.579497281490216 1.0540203025675732 5.005889619831615 -1.1208834789061792 -1.5411032940351652 1.0542235156847846
Ni 3.813542159303945 1.1515685982373483 1.3851033052375121 0.09418902187959907 0.662007384857576 -0.7094390959769782
Ni 5.240797652347407 0.10160265256744731 7.946171111978521 -0.9424620321390607 -1.8453069641071318 2.169250021589554
Ni 7.7877399683473305 9.039078556092022 3.0153438088792313 -0.012950389513080923 -0.8695635442071218 -1.0593423249685885
Ni 7.2564457913936335 2.017757342056576 3.0058908296986244 0.4640347554314073 0.7296556801341691 1.1200807804992257
Ni 3.0891481031938293 0.9012024512145936 7.175496454703531 -0.24554600832975776 -0.39848190923126214 -0.39214542549027304
Ni 6.689857617400084 8.870989137520551 9.868417179761538 -0.14368610016846223 0.5049353503005111 0.5916581457100519
Ni 8.645829372606816 8.06358622515867 4.948374934721839 -0.43469743991987075 0.23817748377982853 -0.33512427091022284
Ni 3.641234334711774 6.017715550533032 9.917919705702667 -0.7513277657909642 0.8525348708596092 1.0905128370341217
Ni 1.4624369992560953 5.494145743715016 13.249677713382527 -0.1808670800941337 -0.8841635535084837 -0.04577180691847601
Ni 0.6678542915029008 4.235804601975963 7.4627689672896045 -0.40905377120983744 0.7588171321894738 0.8401807201696304
Ni -0.30716839022681336 9.01730220678961 0.9249614513467331 0.67466801104438 -1.3744621277324265 1.8860774611562745
Ni 5.982955884922468 4.285975510915482 6.840643134474647 -0.7967648150778407 1.2398016281013422 1.3672622675498776
Ni 5.411680593128142 4.139259349515554 9.786013899129635 0.7060976903085711 -0.39037804917720514 0.4498430373120575
Ni 8.815728018649386 4.263721075597393 2.701838435385768 1.5040462412818678 -0.6378788672404886 -0.184946649480146
P 9.346403496053382 5.630437755126015 11.436629303851333 0.12759382259228993 -1.1838171423159225 0.11750070002234603
P 5.43482558082838 2.2813983441146917 1.9474777603281626 0.817481735910218 1.9872372579267519 0.08010606142397171
P 5.718583692487432 6.372202269805811 11.086368489987734 -0.9353099944753117 0.07640932929867485 -1.2652385801172081
P 7.178011562115428 7.750299271354722 1.1992450230832938 0.34281546890689346 -0.8609405784248012 1.160750490304446
P 8.162981245241951 0.6626628398267599 13.216570725508515 -0.022680215206335133 2.544390942102031 -1.6509788734120856
P 3.072274479111032 6.261623786649876 4.473122750464914 0.4296454793182601 1.7457191398094642 5.686162791330505
P 2.293406739920283 9.704114952373097 5.152969501572883 0.1960854397057849 -1.3592008306979817 0.761184861090702
P 7.547993892837577 5.775700910007703 7.432516434156268 -1.112203434633678 0.5406893679716689 -1.0314157737616496
