# total energy = -340869.9007627575 ev
CRYSTAL
PRIMVEC
9.28269766154927 0.00000000000000 0.00000000000000

0.00000000000000 9.28269766154927 0.00000000000000

0.00000000000000 0.00000000000000 13.58616633713702

PRIMCOORD
 96 1
Ni 6.2552013861414775 6.327151574229114 10.887179237895307 0.12079582583385003 1.5582898331167807 -0.6939325157009467
Ni 0.76585503069131 7.916739254335307 4.17710711034364 -0.21236952157778913 1.8616800061485164 -0.7451627746308328
Ni 3.1653070101926564 5.079677709368678 11.565794549496639 -0.04066276782668481 -3.858216429989007 1.7017167660865855
Ni 3.1668015244852774 7.8763223895522385 4.11602417618378 1.4918682111584372 0.5567438503313702 2.291672070172918
Ni 7.8832379991671635 0.3691097560271346 1.7477787690360682 -0.6327639146114263 -0.15929758145347403 -1.1786667084632347
Ni 7.149487177674808 2.575205932043892 10.513247120532665 0.49644865298573865 1.3770910807148413 0.5113849625805967
Ni 2.2159841053614806 7.359638165691323 11.911589882558879 -0.4535950481553221 0.07729661699963462 1.1803582372330446
Ni 3.5665237602279856 6.838869554943741 0.3242130614451885 0.2722111763257699 -0.4932514862046795 1.800254037632551
Ni 4.981355377769626 1.704526040176006 9.888120568291232 0.09780142182120576 -0.46099339750192225 1.4601518538917626
Ni 1.0982452203375563 0.9111691616912189 8.654809314960314 -1.8175138531542634 -0.3997736314594922 -1.4188337118692662
Ni 1.65198597249751 2.9447408356151383 12.27762799399329 1.2142636317312379 0.46604355833131994 -0.5042149271947187
Ni 6.017879942631153 0.07062461888896379 3.263845628642752 -1.7962675421809775 0.6339504787203598 0.14228819137967108
Ni 8.348161901937038 0.7172007001736298 4.021899480380527 0.8420314002251239 -0.06906085935340364 2.739936450143946
Ni 4.489196040623655 2.2148144854802987 4.438287871160332 -0.16202346502506937 -0.21487454738782993 -0.531628286210665
Ni 5.997058852206619 3.9994316394248672 3.9322573991853904 0.203077811863218 -1.714244980460583 -0.6049119253961646
Ni 8.153485170602512 7.461877795622588 6.180469173622172 0.08246299169192249 -2.1811819971404502 -1.6976523662092247
Ni 0.31527011070288047 3.7509895243458438 9.431638350600304 -0.7978649901205549 0.5105606669070885 0.4219529957700088
Ni 9.069186145198437 4.237198652413737 6.931349356755364 -0.38806302789078334 1.3431969990705577 0.5885427400095219
Ni 3.1672099631739448 0.7135451739100623 11.906236550928103 0.5704218620390951 0.6003718714339661 0.8067754052363073
Ni 2.2139511946156163 7.2857664592274585 2.2837942103776316 -1.5853031284808312 -1.0942386226251413 -1.8366886263105013
Ni 4.739002712230724 5.934298534613984 8.682524664795595 1.0163177417779465 -1.4090990010800055 -1.318549889945839
Ni 5.543283469097854 6.33376085482754 4.098552283006312 -1.8936249344862288 0.8291799981837527 0.9203014368816215
Ni 4.526196872737875 4.543546234308743 2.2036214088713355 -0.4388274029278442 1.024588980647803 0.6335198189408444
Ni 2.4017772952175056 5.573071645278118 7.880886691898089 -0.4417798006879488 -1.0235106599819597 0.4070431685377119
P 7.341536905625411 0.16531370269837523 6.0559250782107155 -1.2286260711004968 1.1902716396920145 -1.266930108887018
P 7.167848353269872 4.673299779540194 9.514799252422096 -0.1297646049913636 -0.8185464297293065 -0.05343086612563056
P 2.031444079663865 8.994608953726875 10.498084762485659 -0.9063912545584326 0.2551706759037154 -2.0790346396457227
P 7.300563078994159 0.049650363956178944 13.246838149883548 -0.09247461029165364 -0.7371525027318465 -0.7305437391660773
P 8.034675925687834 1.3009236368909638 9.012764053438111 1.610366242097046 0.15915822766213236 -0.04067665178375575
P 0.6735775916845264 2.57434264117921 5.913093140514203 0.20745537210562337 -0.9159153919987839 0.045038785407193395
P 8.797008172689393 2.7943982673958936 12.586740891464519 -1.0097030646749063 1.5409413145360042 -0.12762776115401891
P 2.9447408356151383 2.60270128194914 2.7560765074317355 0.39517084258015817 0.7258422199253499 -0.7307036617827093
Ni 7.317234803649739 0.22403790343118496 10.747485780213301 -0.40340582889544074 -1.1064894149680362 0.4442079505134673
Ni 4.708954620521309 3.2496681647972805 8.15229698532639 -2.0656913855695973 1.2623458319504453 -0.062075429174505994
Ni 5.188405944831262 4.66053607051936 13.477150228534503 0.23301650840417934 -0.5788818198809901 -0.9568846353222941
Ni 5.0548093628473545 8.745015784161609 5.76338736534138 1.4356839506573855 0.17651574510397344 -0.8262628245369577
Ni 0.3929133771486837 1.8119825460852415 2.4316926443531046 1.206789691951696 0.6529555590679529 -0.457022071559
Ni 0.00355991447962956 8.327183005655518 9.689232277114701 0.7734140561670422 -2.2023881989044196 1.445504279181917
Ni 0.7800157856813359 0.3530376936280977 6.193661743266108 -0.3978203643878633 -0.5336887682841195 0.3186663824645157
Ni 3.1978892783112993 0.34969963561799405 2.3554881960151044 -0.03712235877359413 0.6201500825021578 0.6910148278335195
Ni 7.69399164585241 2.643628695093043 5.608994756216106 0.2750797561228166 -0.5239699983344589 -0.8085816052071108
Ni 5.436291098062103 4.1388391900248065 10.828744657323552 -1.5473955548017801 -0.03665416088792397 -0.15765927451910264
Ni 6.274351591021467 6.942065302714385 13.489691152816064 -0.47778604357922877 0.13120313721010307 -2.3038603847089933
Ni 7.456763029316784 4.9179267059591725 12.34179556852233 0.47021594454145477 -1.1567866205606916 0.6963020443743879
Ni 3.4562174661955525 0.45401858978247117 8.478257050435374 -0.3428290957536483 -0.9590309922413354 -0.3065528870304333
Ni 5.549298657058218 1.0734047219086418 7.501615166950875 0.3171283485534344 -1.4981288473561682 -0.46805853187881974
Ni 7.233384197405947 6.53113885112575 8.307356092129988 -0.08418151704492599 -0.42369286127925093 0.052315521574264744
Ni 1.9395268093189053 6.0170630652538195 10.052661950560129 -3.257279944300823 0.45061822491518516 -1.6223015600820514
Ni 0.5612680915381323 5.22821015158133 12.045209671286461 -0.4769203531448238 -0.17074310428625433 -1.693034664931555
Ni 3.7356637908233705 7.503222930152627 9.910306215243814 0.3159960347212042 1.733833444115472 0.8066334803418044
Ni 6.443779385238412 7.024764854471932 2.1217517302675786 -0.6677144625446823 0.6361809107127754 -0.3115894210130763
Ni 3.169242873919808 4.363601143858628 6.153540996532322 1.8086643731834335 -0.36660125847258157 -1.561145043177389
Ni 1.8666947649716472 3.270099381928088 7.675382622234905 0.14231878750729038 -1.4136354554977786 0.8193743249472406
Ni 2.012089655439542 8.740968528064819 0.3844568397537879 0.015839281025101754 -0.1914507691472509 -0.3894305976622713
Ni 1.8521394953391592 1.358160749489128 4.303051036533529 0.5555164056821723 0.27673220412457505 0.4448370994570339
Ni 0.5710065694535935 3.7323684332216276 1.015394360611252 -0.524160002858078 -0.2816198712341795 -1.252131610421605
P 4.132396997980836 2.867694446616637 12.175609292261804 -0.9230306628873264 0.09485442337773986 0.49676541289520904
P 8.36259649650242 6.989212123162985 11.334503146262632 0.1837192048309481 -0.6438494830016266 0.6717783482014107
P 5.339918132931688 8.870907727245665 9.27652540415138 0.5915267623385102 0.19309241851573195 0.5582960253098385
P 1.1921582706385008 5.732975391891152 0.31477070157901066 1.1900415259590795 1.3466039678695776 2.3433903244828156
P 4.399915056360091 7.847230415682202 2.278848389165776 0.9054317188586406 -0.3348859296471717 -0.5028686975794694
P 0.6281907706761802 8.923169314000072 2.1893427636234444 0.24607745535319556 0.07284166655207455 -0.21655476330373027
P 5.808666507059078 6.710137106433955 6.534823153751473 0.3648742484791458 0.1078408083350788 0.14945385589017485
P 3.2187660649206524 4.294083022508052 9.516280770938259 0.02240947804345173 -0.6710203869894638 -0.48302106672592293
Ni 0.26661856499444114 8.734145745424591 11.93707738500143 -0.47946368839196774 0.5094962301983161 1.3935350852034776
Ni 1.1604485760820094 4.360890596197476 4.722061789348524 -1.273984444630638 -0.941920557813294 1.4709965099157505
Ni 6.99675895620585 5.203954463093007 5.503280612621933 1.5889517809770117 0.2482538941792241 1.1798643283157615
Ni 8.832551621300869 6.070475706494467 1.9893544727967556 1.0086944209047337 -0.6654845447728991 0.7735991755946547
Ni 8.252067417730714 8.798493404284544 7.891850485879551 -0.345819802950856 1.3250933474913116 -0.46697532611696996
Ni 1.8359319055570649 4.894747810377335 2.714298799199608 1.0057844463467904 -0.47929193870079395 -2.0488285483759876
Ni 1.2863126710736577 6.567796223433591 5.948241146213472 -0.5443750443533721 -0.9212604583607812 0.3158520529441721
Ni 5.785663982729163 1.5010678770351435 12.608750167165175 0.5826811390224224 1.7865230611997038 -0.47733095831968114
Ni 0.1094522858652207 1.682934485861486 10.797170490150119 0.5527717530574996 -0.1423714951220967 0.09871750587757191
Ni 7.323816236155754 2.934613412675697 0.8297069935063814 0.565925002610006 0.4430244717283273 -0.364160767351889
Ni 3.1432141902147728 1.7562585131746384 0.46666162373620124 0.16035327641149802 0.7658786670219455 0.1267949808400784
Ni 3.430987094472911 1.8480829565449006 6.488984265376352 -0.25692622514224134 -0.6484574140872832 -0.16787786692331733
Ni 1.8400719886285506 7.788220307867325 8.036855503053719 -0.2423344433709955 1.4853666625944935 -0.2066254200051603
Ni 2.9233070871576032 4.257731979216711 0.4673596825859226 -0.6019564423122665 0.01726470061771865 -0.19550796993576008
Ni 8.56578546141666 7.648172251141976 0.4057142169593986 0.6336992819415022 0.7931994663240856 -1.0382682779071088
Ni 5.341059904720461 8.691566012131082 11.728678970267195 -0.7302930566078519 -1.1875334148252452 -0.7456705675051867
Ni 8.422033608400902 3.921429132586987 3.0338992882721034 0.12530734055095838 0.7308180758733865 0.7547511896502163
Ni 0.6412663783319982 1.223459526506326 13.576764711621337 -0.9737387307651553 0.3933240191794065 0.6589907095184392
Ni 5.177220294380274 2.2547208019025344 1.9424007324555244 0.037942797792360455 -0.8066483927401398 0.08998475399026439
Ni 7.642435544105703 7.845327462700913 3.783869767053264 0.9451424071847011 -1.4867164917541684 1.1057767051717278
Ni 2.445368842535212 2.013055055976391 9.931772453142491 1.3122213766246498 2.371103731237684 1.2536693872223699
Ni 5.236731667858514 9.192775979310008 0.5925823431824149 -0.614667976341664 -0.7448853525997301 1.347754793644569
Ni 3.626183656865741 6.921958979995016 6.404572984205392 0.4536804087802767 -0.33197132710353794 0.09184469001713859
Ni 6.920622271559379 2.7661231709031906 7.944904814997868 2.147994711755204 2.3393446936585325 0.747070533176507
P 2.9283104610937714 9.001979415517816 6.004555558683147 -1.1593901196218097 0.7317950950746752 0.6841358413254992
P 7.194526825797788 2.1653284252693332 3.0383419872811013 -1.29147540232655 0.43364894405069837 -0.4297256977368922
P 6.961958123391949 5.2127637429917515 1.1949764975903017 -0.19628110065635876 -1.3699387859407761 -0.7816346443046216
P 0.19976829089665696 6.257679866365888 8.334759543330286 0.6112730917275021 0.11905930275871754 -0.40096456644379974
P 5.6361847053746015 3.2994048578399275 6.125880414612113 -0.7243512372021202 0.24438566947306944 -0.3885929322523243
P 4.287093151313369 6.664716867714718 11.99981820892938 3.419559748311072 1.949150221247043 -0.6489304970689598
P 2.9015020308012804 5.72441674482409 4.418356991423141 0.7894731665124339 0.28735086018068573 0.16118451406354173
P 8.976767609190112 6.0680157916649975 4.293255934163502 -0.9478793464998901 -1.0708708944334784 0.4553192299352803
