# total energy = -381167.779583547 ev
CRYSTAL
PRIMVEC
9.19804692450743 0.00000000000000 0.00000000000000
0.00000000000000 9.19804692450743 0.00000000000000
0.00000000000000 0.00000000000000 13.46227142684564
PRIMCOORD
 96 1
Ni 3.9320547622703557 0.8256019915734887 0.5013257605719982 0.4095008860495851 -0.03268669159974371 1.0713835724038387
Ni 8.143868127342317 6.840973952486337 4.640983205492792 -0.7747962812265495 0.10900808917030257 -0.7997704346733839
Ni 2.198342456951721 8.909771113963528 10.236199412151029 0.2768185931907942 -1.267287492226437 -2.339983869904428
Ni 8.341810101114817 7.410627406002991 0.23719280019812097 0.324447507922667 -1.7388630361195796 -0.17196386406723288
Ni 1.838229714611242 1.9643717326556682 0.006979478145844435 0.5382637892493117 0.8855820311225652 -0.24134816819832627
Ni 4.695897386339287 4.506840726073491 5.861755376155669 3.2975611604183723 0.8581185355949739 -1.5629574137957791
Ni 6.171264142524643 3.5308635415438183 7.917350580618192 0.04029432874367254 0.36844062567416547 -0.23362843095656538
Ni 2.0434749377878005 1.535991084676737 4.640297031178507 0.4253170271462352 0.7571690550630895 0.23287432639936026
Ni 1.98814868443085 7.515154013342707 7.913258369459669 -1.598143474778609 -0.33092617366847527 1.4636927771654857
Ni 2.6472347499823563 7.54565473755412 2.238089058116485 -1.7695990317508554 1.3518729295780008 2.531450322780963
Ni 8.480479859320866 2.77430577078473 8.560429284786972 0.5153151508729382 0.06139408683676523 -0.41797035697317697
Ni 6.132071263795804 1.615958906237058 4.249096729221099 -0.6947735235450034 0.13751776657422124 -0.19386477790538223
Ni 9.253695293393246 6.049095680831039 8.938355884962263 1.5097453485491743 1.2594749381605534 -0.38072381391689264
Ni 0.9923956986181443 3.3691526753312577 3.0847582567870244 0.199614793015282 -2.1206168339628833 -1.3507660696670671
Ni 7.061543122145469 4.347797293522363 1.2903452791860082 -0.8145056840010295 0.39784761808137287 0.06413925368207019
Ni 7.14721373291299 6.670267396201773 10.86325879747584 1.5099361244037417 0.4741219644640802 2.1907855816684854
Ni 6.700556565329693 6.596683019334673 2.1152463795698377 1.1118231684761242 0.010833343170078117 1.2046435921429706
Ni 9.178859982119404 5.364586213071951 2.2173980511461675 -2.772457819810419 2.0909707289616764 0.7294322512694534
Ni 4.852300979370309 1.1198714334932867 6.283784772606257 -0.3612024560545134 -0.6783542016467156 0.005164574920074976
Ni 5.787521617162716 4.88172553207004 10.924404655238268 -0.6895973786607026 0.49229400738741674 0.03934173502241612
Ni 5.307659499518141 7.0733442165855305 4.402808973668206 0.8254956073536298 -1.7019245112220172 -0.23500114293437593
Ni 4.965740494358052 8.218289526496282 1.8045234709825562 -0.8807082479700317 -1.9553746048902 1.3360845563954926
Ni 6.732878502868567 3.4154096542393386 12.259484636535918 -0.1930816198824546 0.16330053196528008 0.10761995057352433
Ni 9.158550694104084 7.866041114433473 2.475267141439233 -0.6125172485472483 0.3061759633069888 -1.0148385861292588
P 8.789203112466785 7.848767181963921 9.781107635369342 -0.7318871405678492 1.1526507440154472 0.8738917392688305
Ni 6.798938877201006 9.015263516249624 0.8934504662637981 0.6026380417603234 0.7780330429962923 -0.309161528297874
P 3.9483261076050935 2.6717383474791006 5.119176797391907 0.235893058621026 -1.681693271776807 -0.8926523077057852
Ni 3.113483757906519 2.8822816457900906 2.0245913470742813 0.5764040477644589 0.5512895120850183 0.8581015663141094
P 3.3068451042190405 7.595066646620377 11.776189807710493 -0.704898013573515 1.0703623302281762 0.28106477006165786
P 1.9384148437157989 2.8681074551960655 11.157194350285604 1.6009133242142624 -1.5064211692719474 1.9757446839061197
P 1.2045118629846685 3.587541907825702 6.547039319481284 1.4848347013504233 -0.31546895857314056 -0.5712384444031194
Ni 3.3805398576514416 0.8656797224341546 11.723982612127998 -2.1417770129802665 0.8509104478823086 2.0230552960666253
Ni 8.770126362763989 4.646494675320138 7.161847825862434 0.9901688512967204 -2.0774220437429642 1.4627954621621968
Ni 1.383432275337022 6.101818886856317 4.0204939852175015 -0.3002287445846184 1.3590730468708658 -0.07433727726099455
Ni 6.924593398748687 6.4422110161964135 8.693544342344266 -2.1351494803614197 0.801220279746033 0.3641301712242697
Ni 5.678736314011816 1.1155207572110193 12.420224188973835 1.841854743892473 2.946066675680243 -0.606801943330026
Ni 5.853903923143949 7.702325073951284 6.612452151297292 0.3466852362749449 2.1187815805263575 -0.13799470621063975
Ni 8.553392778749055 0.7619441471457604 9.448979951356131 0.8711429728790997 -1.395961178146467 -0.5028360445693211
Ni 4.114028926262694 3.159188853988096 12.038164906232744 -0.613312233644718 -0.9567159709549137 -1.5266711777702353
Ni -0.13768924638429586 0.4122224386236268 0.44599582799620396 0.3976370447324636 0.9647576103124674 0.7490052883053745
Ni 5.1270742406391685 3.782853240125202 3.5095599446360817 0.13921957975667637 -1.5252478150601474 -0.02835541121424149
Ni 3.375637298542671 4.3783991962519675 0.3547318847820724 -0.1805523770671923 0.16156452311077982 0.069337510053558
Ni 1.9524418655560898 1.9463435603232286 9.199443371938553 -0.7751981446506584 2.1902302233856474 0.9152607891339205
Ni 3.429685023351556 3.254627790784725 7.228068246214559 -1.103549358503106 -1.3733382985406284 0.9553080348637935
Ni 0.7591093090269554 8.639477301636454 4.428696877254763 0.2511466423459868 0.586435463858532 1.3653956466547839
Ni 3.663333815998815 7.071265457939035 0.4550439469367248 0.46122916766181216 -2.1247581098247665 -3.2203817857228922
Ni 5.698640887954368 2.6178929797065997 10.301586489435135 0.932996772961103 0.34381871336042724 -0.9232276093894811
Ni 3.5916810290244765 5.378107342321281 11.921286241431172 0.704727806544238 1.5063944297990701 -1.6108956322379548
Ni 1.904768387393317 4.722479742482528 8.62514306502274 -0.2962810727907801 -1.526988451900338 -1.651367881320388
Ni 7.595204617327003 8.700166016457594 11.869604254338565 0.5481111143570367 1.6291648628607878 -0.5276505325098396
Ni 6.671490736467188 8.663364629976934 3.5795644415685977 1.2645654653095835 0.3491033587981342 -0.1850579782470297
Ni 7.793450126654079 4.5495104666093 9.584531571592438 -1.8374093065266097 -0.7371077655368402 1.3099793746680084
Ni 5.828296559994198 6.024647271616946 13.528775585890829 0.10711935678802197 -0.3904587818164695 -1.3899357978879934
Ni 3.353663164000733 8.178517170799614 6.28421524121093 0.3390976537356741 0.38387007285535824 -0.8192339427146343
Ni 1.0364635423144288 7.079460917912607 11.28363162564221 -1.686317657922696 0.22129382065061243 1.3974544748625415
Ni 2.158257367653368 5.210528122053568 2.030878212272864 0.9338557785272885 -0.2548354040514837 -0.5080502417804089
P 4.986417704257707 5.963986150937131 7.45414060745864 -0.11573306659896196 -0.3726220107453647 1.403953452323324
Ni 7.309890394071932 1.3630034127092936 6.978585935274922 -0.562420074780541 0.16615419936399128 0.4816578678298091
P 5.2828707625610365 0.9758668079643719 2.2135339515559336 0.767930921565284 2.233160189979954 1.0937555123411355
Ni 9.083375055087233 2.693399748419353 12.403746807383868 0.4455755202849552 1.4897478223813247 -0.980376290686331
P 8.028487824414706 9.157860840570956 5.560766760823193 -0.11712300496795311 -0.8380999263812017 -1.3757541070709725
P 3.266796807109121 7.000661248335051 4.213448777847833 -0.831314270917936 -0.14093167735177667 0.9734070584573493
P 1.2642163867652116 6.728564618774732 0.5564735718150462 -1.120650794070083 0.1934606004884281 1.1480088743680616
Ni 8.761516990670538 2.08329328372001 4.973098012240051 0.5681410364247182 -1.692720733235562 0.991463401738428
Ni 4.565441484201028 5.363197307958584 2.063685806699061 0.26741349782681045 1.155005617400869 0.15092504111906266
Ni 4.774733848105276 0.5511681382429283 10.202988023456774 1.1275637191398322 -1.594142581149332 -1.7905326965797292
Ni 8.167737059588584 5.216148128836792 12.693037346403896 0.34007570137822724 0.052399596647638796 -0.24385088001552196
Ni 4.340328479270352 7.9640371083262345 8.540707751981877 -1.0016822512529586 0.11692374447295346 -1.2920204761967424
Ni 5.327361716424306 8.244503960755186 12.551360746598116 -0.7142257187323441 -2.3787717893059033 0.020019123434404235
Ni 0.6578893996227052 0.6995685104849415 11.601058990766795 0.1965641791144163 -0.5638053851638419 0.07597969796042399
Ni 0.6290847952980789 4.314794700497468 10.638277324618814 -0.4605357411392133 1.1702849121574426 -0.32792981004431265
Ni 7.4522853613568785 2.1268184426369 0.4405625415692795 -0.411686066626362 -0.9809619879864718 2.077346196199706
Ni 2.9667105201979793 5.658822542022158 6.509035748243559 -1.4434132009808431 0.9726668378572151 0.27640284580961433
Ni 2.721269831157767 4.166384210403636 4.222279822876596 0.9166440426346923 0.45863132502764886 0.7526603685594586
Ni 2.016349896865166 8.70770841508647 13.634992794289065 -0.5303481339466608 0.10718157748452509 -1.455447763547874
Ni 2.1771317603197793 0.8626682818108686 2.1800806542227282 -1.4446655853307055 -1.0726655244400558 1.1485279800963253
Ni 0.7349055678659445 1.5344550108096364 7.064892131097633 0.03744477511001938 -0.9564215796429463 -0.31818250084956173
Ni 1.4604383257284421 5.123726151491716 12.717094838615886 -1.1841629556911153 -1.0895576722097042 0.11321647082469534
Ni 8.390826494155414 8.09690289880689 7.42604517256607 0.5785504046835004 -0.24762345968407679 -0.13106455474970977
Ni 3.84276012094213 9.080293709305923 4.135044624295937 0.5238080188352979 0.9425697613615186 -1.1030587920199326
Ni 9.334086225120553 3.67043470836649 0.9019227874553339 0.6284686296701821 -0.9640086479615849 -0.07467820554018105
Ni 7.90826934870808 2.9458677454503728 2.97825866834256 -1.24490758186934 0.17892718275894345 -0.7718276855165288
Ni 4.859328287361117 7.0102548114691 10.453319314144515 1.2035734990072433 -0.09128110420418473 0.3116701536523407
Ni 6.55226564984827 8.833408926869694 8.833256239287696 -0.3058746300164861 0.34276456106430003 0.15083968049410795
Ni 7.203018284719577 5.8325552558053815 6.686293153678716 -2.240409929563832 0.20590962488505826 -3.6523222317229163
Ni 5.0534346754894175 2.9775090275032263 0.6084866886035559 2.0606983032303803 -0.7327039800421897 1.7076886673993041
Ni 9.193852798906075 4.3987360784086125 4.7530163390776625 -0.5760536064035756 1.0780036488235176 1.2727816825717886
Ni 4.105649505346953 4.417408114038639 9.411272557235296 0.2805055551240782 0.32701963952521745 -0.4925829993827453
P 5.286025692719213 1.5779341794909842 8.316022456241742 0.6825504991162503 -0.07628643056756539 0.49769846623243963
Ni 6.994461764583999 3.5280397410815434 5.407444513573481 -0.5291325163720049 0.8358126730089218 0.7544642545374168
P 6.700188643445357 5.122512009273408 3.951001819508923 1.0202047355371784 1.1194662868436784 -0.1424645690565353
Ni 0.680917630363264 6.447012396786991 6.194866331404765 -0.062058459893641504 0.4632194586189635 0.7644349925968835
P 0.01629893947606265 1.1977053081244615 3.060216947297136 1.444984402122705 -0.9501660856515378 -1.1580570026326829
P 2.4296641436805584 9.623732728563676 8.009930764373534 0.9588620707636389 -2.5373414914544177 -1.4672534979335505
P 7.779551877473305 1.8456709347219276 11.022746495702306 -1.476867881094863 -0.220951092599213 0.2110340905958172
Ni 2.6723362205411454 6.375138856682051 9.93009484301687 0.37727442191571153 -0.10493880419693541 -0.7490011745403165
