# total energy = -340865.14095728786 ev
CRYSTAL
PRIMVEC
9.33044948595635 0.00000000000000 0.00000000000000

0.00000000000000 9.33044948595635 0.00000000000000

0.00000000000000 0.00000000000000 13.65605595898573

PRIMCOORD
 96 1
Ni 4.5826875262514015 6.848596484414583 1.5458651182201952 1.382765248281483 -0.24434093227806306 0.35639526447385717
Ni 6.000523950497382 0.6703862553901523 5.292622757354918 -0.17941954901432972 0.6719310717291912 -0.2769929139851294
Ni 7.230435794130705 1.82712591598695 11.926857765932777 -1.4244831968455596 -1.3303769644877539 -0.20384091528148765
Ni 6.713015724726258 3.8642709166772575 4.755120761787291 -0.19813949402133618 -0.08821429235340292 0.5573020368276854
Ni 8.178446771170996 7.730025374803173 0.32390281744383004 1.0375954202098001 -0.2142623677251278 -0.7663270674132737
Ni 3.3288804018003924 7.501886557437595 10.748722451902541 1.7219832296451052 1.9560487481390896 0.7431259467064621
Ni 7.004284362479367 6.4306949879119095 3.709586061918956 -1.9836773084896353 -0.51615847270984 1.579572653754957
Ni 3.9768894404841584 7.678176067695057 13.050710391661125 -0.40278105082724824 1.7535057257334188 0.16487404709998701
Ni 3.113645595903327 4.460393326455457 1.0812022086468471 0.4817545413086735 -1.0606528162498958 -0.25320095377185425
Ni 7.839098327852275 3.734997540758069 2.4688508970249865 1.429854488459802 -0.040563009024026916 0.4165943025612567
Ni 8.022553623220235 7.625832246770724 11.546291129509717 0.6997725194214915 -0.045708557780708384 -0.48039288507445654
Ni 4.208200610633028 4.7959722682316785 4.863467805875981 0.49815432282293565 0.39241102044683385 0.5186254461930938
Ni 2.2449247775466348 1.0822574824697602 0.8406091074720355 -2.2202992748568855 0.0680496444800699 -2.189758425955551
Ni 1.7587803744057118 0.9834760150676345 7.512906751179792 0.5520700990047847 0.5523174391289004 -3.2754836117930424
Ni 7.742798759980608 8.09859678552564 6.0228535819120195 -1.6103546721328201 -0.048743745062606376 0.5930347143426045
Ni 7.472710242280662 3.401919159411032 0.13800014520805307 0.05920247850208515 0.08984205776481302 -0.78950530530195
Ni 6.8647568227106515 1.1875889253244494 7.847465874840679 -1.296028311804555 -1.016743002240823 0.4231716986684583
Ni 2.5721063148964918 3.41466455324038 6.027482417840819 -0.11698750783135335 -1.0826907698865418 -0.5832041014054279
Ni 1.88396701350407 3.0768836254145793 2.9269703624603247 0.46283867824077707 0.42310742108942617 -0.11569604271343945
Ni 6.944448190716844 5.7718906193155854 13.033121561567638 -0.09772300317478654 -0.06098219611032723 0.17045076985681615
Ni 6.054080729838858 9.312562891198235 10.649606954413231 -0.0844478833324352 -0.16249423401390078 -2.7383423661839488
Ni 2.304481035828279 8.022852197599839 4.320175333433908 1.755536125899886 0.21927858999279654 -3.674640692714459
Ni 3.4499896345272827 4.156323312176826 9.02950691497411 -1.1782928700635837 1.7039955348184328 -0.5033068135581525
Ni 8.405605891353499 2.4259821474283996 9.162257749370749 0.03887996489464917 0.5182451800355397 0.26070728945122845
P 5.97287782903592 2.5116636639253977 6.5080938645097035 -0.26893070580228523 0.6044290722224751 -0.8577259281422454
P 6.0627860390941875 7.02074327515504 11.256249445847795 -2.594580418472228 -0.7993477453136686 0.7390024114563918
P 2.126390748843829 2.64713245822137 12.595376065360531 0.10042009039097545 -0.5129605345978326 0.6232258932140041
P 8.39360693347316 6.08304244466045 5.584794582606328 -1.6887926018257495 -1.9810288151231945 -0.691881289598873
P 8.018578851791757 0.06663806934787767 4.26993459579591 -0.19599545109513988 0.34729818726859546 -0.4734478212151911
P 1.4438403866196206 8.419452278207636 -0.3494299938550396 -0.7387841247979986 -0.6710327282846379 0.5109291059901007
P 0.2256177299477962 2.52602322549448 6.251919845944243 1.5824160367410232 -1.2843084522644654 -1.0637535666624067
P 3.4882164855659634 0.34229126704769414 5.280742296181486 1.1004259823827758 0.08628467943085785 0.38375565876468104
Ni 1.0979792896457856 6.4974170313040505 5.586336905885971 1.3183974235283746 -1.8422684343911238 0.5897565578119649
Ni 2.047165903305768 6.470097475570281 9.177169673542098 -0.961277622183667 -1.6999365342577113 -1.2078757259270232
Ni 2.3746180236871415 7.847663680367166 1.4661000396640385 1.0211395886466221 1.3972354168732 0.9644295375490874
Ni 5.179882937706303 4.243320422033955 7.6210485253825055 1.5581671914959876 -1.4650739737837286 -1.0450199948086456
Ni 3.812673531701934 1.9601687934486396 7.719399859069013 1.4703542483460612 0.7445102286484985 -0.50218992634489
Ni 2.0965519717821497 0.36839319913964147 11.792003848249802 0.973704277982794 1.173160948153657 -0.04805571785664627
Ni 0.9056190134061348 0.06601572837539049 2.7680690776350523 -0.9448300181506051 0.14493282809136973 -0.21375380351982542
Ni 5.258221390554915 7.777116152736348 5.662852188929125 -0.013549970770292793 -0.30833954661721086 0.09643050961560812
Ni 6.446556751828374 8.801039665790968 12.707916213392785 -0.801985954267464 -0.1172513030157013 2.669980075559466
Ni 2.103484495658581 5.743647349094916 13.005618195981425 0.3735152119835954 -0.008072749705805453 -0.8660401044348955
Ni -0.07987704394850825 6.847178256111463 3.6574195195325117 1.1461970179703034 0.5544247152798902 -1.6219547182655938
Ni 6.817871314663455 1.2167372491332942 0.7909673846831181 0.25646728322795187 -0.5569608514381827 0.33090997571855907
Ni 1.02115236959392 0.8141330243606469 9.626289920567183 -1.802002644892542 -1.9989357773106025 1.4484001126724735
Ni 2.803809363918593 8.472831779011221 8.677536239757627 1.031518874998417 1.9320577845411304 0.9230165218199394
Ni 5.897711728970602 4.590851669443699 1.622585671149327 -1.7981711869615935 -0.3328933246971751 -0.49277274679604804
Ni 9.0101163751087 2.149595576408681 3.852769271747948 -1.24664359072384 -1.2702000378875415 0.27573795853210575
Ni 9.319131527549523 5.594070915362652 9.837167406611904 -1.5437633573658316 -0.09425638478242478 0.39483171407318457
Ni 8.600071116969358 8.363954765398734 9.002221881902981 0.990261668120843 -0.15848228464103029 1.5088909709686786
Ni 5.604950219319474 2.2653864529988743 9.524511512829783 0.262041949102252 0.5294230510292302 0.3791554409885083
Ni 4.775809167159042 1.301205807213151 12.42279074350003 -0.47217949602572873 -0.36202109530106685 -0.8160707144953042
Ni 8.874386328230575 0.5746642423340318 7.2509422557398855 0.26060573087635763 1.0136368525116737 -0.1679182332429495
Ni 4.62726841330603 6.464639162693144 8.55921961052497 0.5450255334531775 1.4573562934244966 1.1498942643162327
Ni 1.2959620946713548 3.866902103397518 10.27222200122283 1.6450805056497797 1.4028797596431712 -0.784558759929952
Ni 2.910083182158907 7.586028549789759 6.386664597369676 1.9905429252612168 0.4469716293015334 1.698992168066571
P 6.71362220393483 8.188355708394106 8.12763407698707 -1.1249015989266369 -0.47293077236945646 -1.4059756249596753
P 3.914907265368231 0.2972970410863009 10.302128890564855 0.40840379633066437 1.1076680086571697 0.12342529303689713
P 5.492742235284529 3.422744722388414 12.558286596099155 0.7209015880906229 0.32198541953541965 0.0872321309457917
P 3.5981851617538783 5.585104353525168 7.035872598796539 -1.883457507034924 -1.0449279493154713 -1.5655588559743683
P 4.407265747784663 6.868199758525461 3.984345402569833 -0.06709062300091026 -0.3900692596875347 -0.6731415470975245
P 0.7636431637246668 4.993535203035929 2.5380874965203555 -0.2740099200974055 -0.0006319771570440729 1.3183449730238845
P 7.00824047300912 4.2996856666335805 8.93010497268937 0.6266716856707594 -1.0458782290438828 0.3508496520652796
P 9.138652645528241 1.8236269974759651 1.7011891087598368 -0.2706194063586178 0.4112412657794595 -0.9418007444059779
Ni 5.151471719397106 8.768047196844721 3.1410976440180467 0.24139830470997134 0.011673836793502475 0.26718081299071406
Ni 7.075177116736602 6.431488076107733 9.414744374348102 -0.24176674379298363 -0.10037432475470455 -0.19786027221802052
Ni 8.632522419852572 4.098782430957509 7.186158146680362 -1.876630971031394 0.8174382842667922 0.30110883319672654
Ni 4.502734905663056 5.450326012482029 12.997329024767668 0.5898899980660357 -1.187487392078658 -0.5818295896554044
Ni 3.53058605612165 2.756261393966648 10.718570171742277 -0.11102306271780235 -1.882383557244455 2.4043100427863235
Ni 4.836942271382971 9.090862083892869 7.622933276153756 0.07544233739971523 -0.045683360969727776 0.052232989162787465
Ni 0.5189549283245984 8.791084076321045 5.424458274669084 0.33580844146144107 0.8055772711631481 -0.6867884484569978
Ni 9.153245468331388 6.411418279528724 7.587468238126413 -0.3460686857368685 0.6525680938215471 1.1429332596173671
Ni 1.5694002436924839 4.718678825711681 7.527845733654294 -0.22556853676656635 0.41528895348627193 0.5793567026348796
Ni 7.50851117648506 8.46173787471906 2.323332275720529 -0.1426831128252446 0.9680923311126552 1.0874385689841723
Ni 0.049522293037075824 4.284309086083972 4.6325979659819625 0.05544866788660774 0.7436095712111 0.24862001926939117
Ni 8.931115460355342 0.7622510606797629 13.113924186092918 0.9289295448702647 -0.8097689406469926 0.9481886502101929
Ni 3.467512218430296 1.0800834877682681 2.655337655390864 0.2564300022321132 -0.09865374251917203 2.527545845520234
Ni 0.869986960335201 7.259649431085088 11.335236364927109 1.500733374858551 -0.022169337008187625 0.40629446329714547
Ni 4.267253024649091 2.218967467419808 0.8308149347760866 1.1807215341097343 0.9748371060356567 0.285183934436354
Ni 5.889183698253162 2.0285703177260537 3.022631727595588 0.23094625613871195 0.0875784585416169 0.18733726119950964
Ni 1.6905374677674625 1.4303019045944498 4.650146675143191 1.2481916519372502 0.0323709601315378 1.2704702608297926
Ni 2.926392807644778 5.828573099193541 2.860861329591308 -1.6427608563776674 -0.0038659107133094707 1.1741312824867263
Ni 0.693960568749764 3.8076817412929285 0.7585254122492662 -0.2917531030134395 -0.8351557561512133 -1.2605224055884614
Ni 0.1635525138325417 2.6030460849829606 11.537428135660159 0.9901667944141916 -3.1546376494475474 1.7837041036936698
Ni 6.573049653837501 6.032900609785695 6.870744172066649 0.5428277544709103 0.09305979337116232 0.1783674536007315
Ni 7.7978297503213785 3.845255460876225 11.193117759370391 -1.7408764670051826 3.1939865835588157 -1.0645534368558827
Ni 0.7866063326510265 6.412090071882832 0.9184717074031528 -1.912359791891571 -0.30104018474232025 1.0461440811107596
Ni 5.2909992591658215 4.708014122090199 10.541136748392958 0.44764474410915805 0.38606990872015445 0.549427519175615
P 2.1285927348934086 2.361088872111333 9.059891523323502 1.3542422011411257 2.096499372089389 -0.8611897183211298
P 9.022012698046048 5.406874109800278 12.32240537185247 0.5577463234539556 0.33000263341294134 -0.3332599640079744
P 5.174779181904947 8.97750645458632 0.9419172605615603 -0.06976534161959598 0.616867297985828 -0.3875200109031197
P 1.1074123739514008 8.164133861848727 7.464059049631635 -1.3873677800505009 -0.027366822048727063 0.18624762767975667
P 2.752641179613949 5.570614165665009 11.020177880434112 0.5843263879353292 -2.356963178071244 -0.5857505219763653
P 4.255944520021588 3.418611333320771 3.1282878700880965 -0.6021695867643372 0.02303631299417323 -0.9349448978264091
P 6.96301578494847 6.4150291634320595 1.6267507837448032 0.004072370297160729 0.12748866447299334 -1.1991725417260701
P 8.644549369080998 0.35215075288918146 10.89466467560806 -0.552638569913745 0.755014727724248 0.40631143257800995
