# total energy = -340869.476594563 ev
CRYSTAL
PRIMVEC
9.22830927411369 0.00000000000000 0.00000000000000

0.00000000000000 9.22830927411369 0.00000000000000

0.00000000000000 0.00000000000000 13.50656343446178

PRIMCOORD
 96 1
Ni 2.694472481804798 8.806944568909378 0.3277609337966526 -0.11285420238927016 1.631021199343236 0.3212498269209758
Ni 8.760987589265678 7.433772165097618 11.059146642638638 -0.5398185353309413 -0.6270822908456167 -0.15118909341372672
Ni 1.5870938385749351 2.750516003366282 12.497136844366345 -0.06038827128007018 1.2994923590937553 0.8665882636288817
Ni 3.209079914104254 2.7547794822006977 8.660530061352949 1.2451384669332235 -0.5952844296087296 0.32240939444671574
Ni 3.5343593555663304 4.1816237321184335 0.41228486310439916 -1.8506592295579805 1.059867087123807 -1.8459361130506986
Ni 4.749081691008144 3.0506667589709697 11.370541170130451 -1.973109560276118 -0.5523349226303972 0.4030065365744931
Ni 1.9886913968348827 2.6675535039693217 3.3692658274282117 1.2952253562872853 -0.3789880621727086 -0.5901599638979707
Ni 8.952613429085241 0.3229492933978122 10.215107952583592 0.7087577536392374 0.044574444176265174 -0.2659541396724645
Ni 4.062080215189821 0.7345051200781446 2.1585107420966034 0.5115225165997255 -0.8615244759527291 0.4123622667577802
Ni 8.416051849281295 5.1396791047429335 5.560652420926559 -1.7029552664793768 -0.44683330395145626 1.313719558436731
Ni 8.756438032847134 1.5338095814539063 1.2940950225734338 1.4258345686671314 -0.9823866362481404 0.2129405635899107
Ni 0.15217020398288994 4.728345680313487 11.377415337627758 -1.0638253004406066 -0.22447530370238758 1.1357495973847342
Ni 5.529565938671986 8.789327726712626 5.063326843201151 0.18654407587425292 -0.4187162340002659 -0.7848181842389258
Ni 3.7311899617551814 7.842272498613284 3.32592322777107 -0.7045678839276059 0.08699687500653404 0.7244677081753265
Ni 6.917651290095035 3.7485668679136324 11.12738260626945 1.2431006105675881 2.682352223971574 -0.5143188483979401
Ni 5.76012601486038 3.0454712209108483 8.731290890371415 -1.45836288031214 -0.658568020158724 -0.39587892439077627
Ni 8.010744510736856 7.227510226941726 8.661934610007922 -0.0582128608953062 0.3045119453410046 -0.32676869985667595
Ni 8.182972444690748 0.5888722503080251 5.255200924537264 -0.6831901895827782 -0.530026488941184 -1.7269241185901485
Ni 7.37753484904366 1.9377049886960387 9.805305504644684 0.5324962906379153 -1.2218874668250828 0.1672363766845765
Ni 7.970665964031518 7.393379855880654 4.382339456465919 0.5989796190721297 -0.28713900128019576 0.6797863061075519
Ni 2.1865555736502587 6.3934095030269 11.027649500626206 0.292873846881444 -0.4899756436668852 -0.23502891084851782
Ni 4.608386889472432 7.472651031611454 11.437789704680565 -0.32161080980482026 -0.2577968006726528 -0.7505770036678687
Ni 2.3810329610019325 7.597279346890203 7.557880926570354 -0.3249023360718985 0.3980036840432629 0.24912626948184835
Ni 7.944097661944327 3.880660885307191 8.500503797777553 1.3948178085706429 1.3665886385216206 0.4600408037806658
P 0.7032875958334239 5.417921854388958 6.955001948611082 1.3118827623383083 0.37404254524197517 -0.3783126333722388
P 4.902373134554631 7.88109599527213 1.4128135286626595 -0.864581260501182 -1.7871280417735544 2.323986208924591
P 4.257840337515486 4.641470377830396 10.165512250635972 -0.7900786613069167 1.499425711790721 -1.385950073767368
P 8.57470494045288 2.321944097415866 11.922756730771667 0.8535064907442591 -0.6879341320256668 -0.5518731525026301
P 7.782620708168129 5.049269359849494 3.573310202891657 -0.20721780217352054 0.30820482081155953 -0.9708632089895732
P 1.9777189372372201 1.6700932512085573 1.21587587408749 0.6113700223166825 -0.8167970511383675 -0.6695918820730533
P 6.63455444982801 7.594603137232237 12.098517261474074 0.8523471803288352 -0.25622251420699743 0.36757493523976054
P 6.674356147258387 3.9782410264221477 6.639880107047364 -0.8599270495586222 -0.4425966401622894 0.4545910935200042
Ni 7.439576771562655 9.106412429635824 2.661914084238345 0.20509021430755647 0.37437370332914877 1.0169941990196807
Ni 1.2031131225117393 3.4383757119369878 7.578761821718908 0.6734526505800402 0.9608328213367646 0.18177725061322886
Ni 4.088962279788636 0.026045056957512976 7.130682193023749 0.13691972797890614 0.7512231218922998 -0.8477009398060755
Ni 6.031226053212384 5.275565957203472 8.890344490160778 -0.9926401956553484 1.6207591552955958 -0.2574720703433824
Ni 9.160757942310875 5.809359044257798 1.662387613055447 -0.38534665740088475 -0.5533877893749437 0.13474945980046468
Ni 5.419093849652963 5.411904996813116 12.766484426807839 0.361177516353849 0.4312441912639476 -0.34316411049556383
Ni 2.7311550107372695 5.739306949383234 5.999466827219654 -1.012637721823198 0.2896098314181915 -0.8428662374215934
Ni 5.8554083069931515 7.911383305952978 8.300309472897911 -0.01852299850485197 0.7398722156558548 -1.3761004346667978
Ni 7.867410412779839 3.6678283910255334 13.49148992543112 0.05959945683018767 -0.5121164414299825 0.3381466026763144
Ni 6.2701285208863 1.3790139235134597 1.2369902454579287 -0.622824029789895 0.6747117197981218 -0.5054577984628842
Ni 7.4893450428916655 3.017721695250486 2.4864507050910647 2.350315076627107 -0.7723272508607667 0.23415653554589355
Ni 2.4558099501691815 8.656347791639188 11.12657143789381 -2.5627828143456575 -0.5350026019995366 1.6559089637238515
Ni 5.797546808526084 3.9145656931808763 3.496335953312126 -1.3338235282754576 0.8529776148239825 2.066928343300492
Ni 3.6340250945526678 0.18769827143876963 9.486672291443531 2.1853117030381077 0.47002748267973243 -1.8349970975406913
Ni 1.0447922504701093 5.337838587451603 4.293250282614048 0.9006116717621779 0.5894495680945074 -1.8702389514621207
Ni 2.068313248313968 6.8357869594887575 1.7637412097881364 -0.26468170071794417 0.10507275867163839 1.0927221859806149
Ni 1.661169476245614 1.8340526201502478 10.401850171192827 0.3232627435859465 -0.047536612128382644 0.6557526621971159
Ni 0.16999191464311356 7.537710611227535 6.549115995081973 -0.38413823891508037 -0.6967692138187936 -1.141527637519092
Ni 3.7154372380098404 1.1995602234830598 4.764670150850342 -0.7211530419797967 -0.05307168301399893 -0.6692872063484409
Ni 1.9376311622227158 0.193083912667698 3.012611980465603 -1.726935431444058 0.00026225252245116125 -0.286677488262745
Ni 7.880496155176379 5.979261444302007 12.80029141460437 -0.30744248872423824 -0.19850716177340005 0.031729212782480844
Ni 1.3540974887668753 0.5083847834292253 5.861213836289107 -0.7452705038532906 0.32173165165340073 -0.15494187558793962
Ni 4.09421318770375 6.958689580953577 9.214960416193861 -0.7935519645674979 -0.6143242198490001 1.198366500885007
Ni 7.8017971346138335 0.057021722333016577 13.256029617075898 -0.5606514129158926 -1.4820028883285832 -0.30300270778532984
P 1.8840700558267247 5.119533705834862 12.917474330048472 -1.2889194686739158 0.14614253212875475 -0.6629268113480519
P 4.440219411551318 6.424527361532635 6.986378199773448 1.3317175376760484 0.06910585365872614 1.2700313735201612
P 2.615976484043892 2.166345576578029 6.393723265538524 1.238041707987442 1.1570187911761556 0.49579405012087513
P 0.15469137804687763 2.14924551969454 8.754805544955774 -2.5281677953749493 -0.9543320441037693 1.2555545200602247
P 3.9954425947064562 0.828355178628446 11.440734458135244 1.3486737059144127 0.8868159035296662 1.5215181728143858
P 2.794987225234353 8.274212737409073 5.397709088823979 2.6804102697538545 -0.21785291328986353 0.5436785325069798
P 9.263745872596758 1.9539283562088148 3.7592006485649243 -2.0438676048262865 -1.1023075156762048 -1.2594782805946632
P 7.722821264776327 5.637343361414711 10.1169288942038 0.9909918614186481 -0.5930673673527528 0.6026863784997556
Ni 0.8288082886084672 3.4964679181331912 1.2732122817630467 0.5565445898363706 1.5035880706985267 -0.03943403762590628
Ni 4.121030654138407 3.0339542910724275 2.1794460842692334 0.5659358012432835 -0.40015389761704634 1.2165701683772272
Ni 6.8358607859620815 5.137731931509034 1.6546349105255933 -1.0141539013574083 -0.4895228724001827 -0.7705269644272342
Ni 5.3044044233453524 8.869964692199906 13.247534035658228 -0.0032372759903750697 1.8437043955067023 -1.3226857664910832
Ni 3.785766182159366 4.007956181934741 4.784376282242139 -0.9420282870357518 -0.7424214644402698 -1.7267724235036326
Ni 3.3365320919876154 6.727215902157807 13.235594449260033 0.639469608766376 -1.0199656229431788 0.33461776358744955
Ni 6.440547706243772 1.8186874853898543 12.282341488725207 -0.047481333410415 -1.240093448310148 0.8502440179429034
Ni 8.090255622505957 2.368510145464483 6.6663672000139 0.48757911841025064 0.533105899197456 0.13622038791903637
Ni 0.7495417270322501 3.117442804091816 5.303082006641951 0.4245600943755527 0.4977905117256137 1.1128492957477931
Ni 1.7609920964877632 0.845816985231219 8.380971354819938 -0.43003423011624653 -1.7694406517961205 -2.3634302738528263
Ni 4.417287063275295 5.644052342177958 2.0348984636569654 -0.1067051520687388 0.6711497134784764 0.2600069209500942
Ni 3.8744871464755373 1.856643520987151 13.427482373059894 0.10016298007484685 -0.6520196775172449 -0.4837114079247283
Ni 6.138375950931861 9.111174237165173 10.43097010076425 0.2502920076551754 0.23371996222910715 0.8507944911297347
Ni 4.424291349931835 3.9560561711885223 6.939740170913342 1.0084337110441794 0.2816620373260246 -0.34196289109861105
Ni 1.936422253722048 4.215574681537947 10.176938743044575 2.005982656855055 -1.9221554378257542 0.5770064572351482
Ni 0.6184425213667216 5.773986935226813 9.050532249146569 0.013724805785260233 -0.006623161743472464 0.357286665939875
Ni 5.760965790994432 1.7871635812808422 5.851853562302639 0.5788000588004611 1.253353141533532 0.20229825338471613
Ni 8.59284779627206 0.24400849113513373 7.510229629363886 0.21343807205161952 0.32679106845417916 2.0616526967238493
Ni 0.6963525214956248 0.46155296007664526 12.523609172038217 0.4013643729853797 0.7223182659324916 -0.35037322664949333
Ni 5.864119830845292 7.08880874018574 3.4132433347559332 1.2727631706290274 -0.8309574017991496 -1.2407259396878243
Ni 7.261368893269584 7.251097785168493 1.196453051787069 -1.0525445853204645 1.5946933114464794 -0.6959860557958659
Ni 6.020853433710473 5.697899526158078 5.45439582353429 -0.8814556676590175 0.23861482842756324 -0.034051947378386516
Ni 0.8703402940073572 7.284799570240539 12.92194544583911 0.07691043730480948 -0.6457785817035394 1.727170944493632
Ni 2.9513147824962562 5.1874448329830525 8.352405123798437 -0.3829709580798566 -0.3944771589472432 -0.3644502735678497
P 7.003280770840797 8.249277846044158 6.493807046930055 1.477603987929939 -0.3147786173743353 -0.5149623955192099
P 5.802040995089635 1.5929814998224614 3.445118837444147 -0.21292565119157525 0.18331065653861978 0.771372343146665
P 2.512480996753913 4.665131762530486 2.621988727465151 -0.2643094049801899 0.6013267791480676 0.12571820283613186
P 5.586080104000906 0.9145881907936247 8.546102719025635 -0.3874351644987973 -0.08341121453780474 -0.11046847576591297
P 1.168017862755717 7.6403940073109595 4.200811232535137 -1.4531075454504716 -0.9829551071571007 -0.7895865521618466
P 0.9007134279634436 7.9347401564506095 9.197969253358524 0.014625720332974811 1.0574628485576887 0.38353325834122975
P 9.2325541876177 8.088631440092847 1.6887658119738311 0.3201823048884099 0.3511910945650984 -0.8883410819249411
P 5.577091730873805 3.5192249285350714 0.23878342248568335 0.7896618854844722 -1.0390372948626494 0.25878307584532206
