# total energy = -340860.8134219301 ev
CRYSTAL
PRIMVEC
9.36282457748611 0.00000000000000 0.00000000000000
0.00000000000000 9.36282457748611 0.00000000000000
0.00000000000000 0.00000000000000 13.70344017796537
PRIMCOORD
 96 1
Ni 6.979545555518105 1.6097504032584586 1.2646984896224132 0.48311645465320663 -0.5040118100449771 0.660785853745649
Ni 2.5310710522518796 7.325089953718865 6.953454172695094 0.013637645388092642 0.7157802077036576 -1.9114707044183983
Ni 3.898502196586752 2.7358641108831376 7.065904502877465 0.2282355420757682 0.7992991514639202 -0.10454542541325866
Ni 1.3375543715971436 0.42956638458383106 10.375915733103446 -0.04867715349072907 -0.5739974952054953 2.6194815525892823
Ni 8.45992981370693 5.484311857792445 8.861918935231623 -0.1845689544257531 0.814606728355268 0.44416347042877696
Ni 5.371443009358311 5.57544022791351 12.982241422947544 0.5750773585332354 -0.5759970421340274 -1.236561781007806
Ni 2.923729182955382 4.870372734646609 6.89716019084439 -0.41507838013736253 0.04123201006659351 0.9110215542415924
Ni 8.456737090578265 5.978116580750942 5.345547309565767 -0.1682501626610715 -2.7434670890050232 -1.6320558112553378
Ni 4.735866398968072 0.5867213925445897 5.440347779426014 -1.8548802096178636 -2.1592430309755133 0.38575109192815504
Ni 7.851561571093512 2.423089598167195 3.4744111917262126 -0.7476711428749833 -1.223863102494215 -0.8652029532455808
Ni 6.2508837447021355 8.830435501822697 2.015693445537506 1.4918921224178372 0.13154380837897345 -1.3088442326223007
Ni 2.7201720171481223 -0.010185816691123579 3.7917828512344536 0.015851365209959795 -0.5964676512835535 -0.44736603652647466
Ni 6.293297339343914 3.574623374103668 0.1815133319828444 -1.0241755472594685 0.780369661549269 -0.6899174810042829
Ni 0.31711979953122965 4.036182529745105 3.57752959480495 0.5693797939278259 0.4095078280281205 0.1326997763602876
Ni 5.704918726876234 0.7011744308713044 13.227465030007528 -1.0636327248138264 -1.811940472831544 0.5727001165503105
Ni 5.288563287554997 3.74083223328266 11.240110045154848 -0.4094070407841982 -1.0560834517116586 1.2004305825028874
Ni 1.3781890295983166 1.5565227464066913 8.489829057223277 -0.13903137500527024 -0.0124312837848173 1.103713651995112
Ni 3.8135720162345303 4.6866179424966035 0.9272360814646515 -1.2629220161688894 -0.9533426836073066 0.4291402575470674
Ni 6.815293526643776 3.740064481679873 7.110961222854203 0.5286694606926572 1.185291155758288 0.5736974474665733
Ni 8.445127188292217 3.1252358902137343 10.9588601622753 1.0434526503215256 0.16030108301732393 -1.21323210514293
Ni 9.09398028371602 8.042563189347874 9.541746126415676 0.25912220435229566 -1.0442139539675823 -1.6715114461477987
Ni 7.998632817149371 5.50050954404637 13.26017499341603 -0.7613658667532565 -0.9267937294741846 1.255099177690361
Ni 6.255153192639586 2.058622931805059 5.551359043494381 1.5698700817552123 1.4873253289827613 -0.36235739559456304
Ni 4.861122264115467 1.6341218352347382 3.2284207693458846 0.5655069412359809 -1.217754932713948 -1.1464513000729546
P 5.8716519042229836 3.2021889441565095 2.2665628357253023 -0.22143317444195412 2.123110546919014 0.07945711498606316
P 1.2684660901707248 6.89367909272346 10.606298327168577 0.049833892802991595 0.2458180310442218 0.8695203496740121
P 3.017572772159474 4.009966621357251 8.881953506934599 -0.01967253872826289 -0.1862867084478082 0.42964342243573106
P 1.2691308507048453 9.277875518232388 12.961206901596062 -2.015121385931529 -0.7821709764240659 -0.7540585344585659
P 8.78072826695444 0.8777020588482444 9.7160266765308 -0.6546440025139694 1.9018663485594147 -0.5639866479367126
P 8.379072461979248 3.260294632533302 0.6247915729359654 2.0683522202312123 -0.9318114944037501 -1.2920965808503166
P 7.019253293901278 5.088142667929855 11.359809074006463 -0.5031147521520045 -1.3829208000227409 -0.5696394753471158
P 2.5938019758942437 9.325270135467859 7.694357876445748 0.21945856721408652 0.715181140667078 0.48370575149777334
Ni 0.7918196792520781 1.7279373359655574 2.7156104490886364 0.7558300245366918 -0.1641219994253109 -0.950300554346873
Ni 1.785911944800411 6.146984482066417 8.683636713957581 -0.7507798637072941 -1.4960953618659074 0.9459391920543837
Ni 2.11944383926488 6.244385944551718 1.9311845922843751 -0.3616079190230482 0.14493514208421493 -0.0376661470922061
Ni 7.359348528287135 0.11660087024963381 7.290339830868323 -0.37175760586254036 1.9194604074920942 0.2625332869163737
Ni 1.7794796844209628 5.435128941091947 5.089772735662114 -0.33653272122197525 0.6415719998213595 -1.5681510421815767
Ni 8.648459646313295 2.0753168477534674 6.309556820239037 -0.07339368240080263 0.9975864839170302 0.474139447965577
Ni 6.073439496214063 4.913825602799477 9.348431890528527 0.4517487389752026 0.7479930449907763 -0.6491932638120432
Ni 8.527388963683531 8.844470375634621 11.637043241490458 0.7978248809112389 0.9512230661611425 2.3899614873741357
Ni 3.439208844455979 9.121572527294235 10.634965422990694 1.7927065643025966 -1.6836485957309648 -0.2764594100791626
Ni 4.928618865389765 7.7486173165490655 12.22244073066146 2.0576044947964047 1.3503868319507775 -0.48519647711068703
Ni 4.124164990859627 2.301110721568281 0.7034673865727991 0.586321563988487 -0.45601754155388563 -0.11861475902213121
Ni 1.761034920305223 2.233754562660346 6.479178428920663 -1.2187072693248882 0.5849907609922054 -1.6990657016169834
Ni 5.901800198869015 5.63015657384873 1.6754240626173593 -0.48209726936007297 0.9424311789011253 0.6692244714313055
Ni 1.7126665693296328 3.150075463411226 1.152431670798757 0.3048803844240169 0.22452775420687782 -0.07643684010250061
Ni 1.1803525495142637 7.981686104941509 4.982543116378696 1.007665208309271 -1.0618455510064164 0.021943079929994464
Ni 9.199930004900645 3.2952554189333902 8.48963711932258 -0.8435257253824634 -1.7394027106731336 1.337524888386445
Ni 6.972813684757081 7.418184516969017 8.060856275707941 -0.6265259041215145 -1.934761556625539 1.1054411762091803
Ni 7.139565587752679 7.151212941336425 10.69534346885525 -1.0440064659424666 -0.8961083845751858 0.10991388881402363
Ni 3.15882034142346 2.1170937703343973 4.627788507791817 -1.7032409160405957 0.24448362850351446 -0.8235022310726849
Ni 7.8831049265787545 4.626227724960297 2.16481421385983 0.2231766394956221 0.05398391041562315 0.34430028098253607
Ni 2.7586719511805704 7.226911376806353 12.243502404203774 -1.8442301861031851 -0.18097712330943672 0.09302765458164623
Ni 3.217094560639889 2.2082595917531584 11.00436910667173 -0.1346836395595358 0.02169265448208522 0.8316379728059419
Ni 0.3284179197639522 0.1075133128634728 6.594314953430346 2.489754485704073 -0.2318273731920846 2.392322017186512
Ni 8.299844241701386 8.530160359713104 5.183065790790061 -0.8788411128543058 1.466266708540249 -1.4020372091372177
P 2.415468259085869 4.103548051477464 2.9405251536900145 0.622655879643147 1.0962296849132411 0.5156779335289957
P 6.561149020472384 0.2863947549006652 4.055875358356595 0.18327723219752307 -0.08323509397125664 0.24075861424344344
P 2.843555317410671 1.0790093379463608 1.8867448824371935 -0.3070730211999615 -0.14582217267485856 0.054576806804615685
P 0.34974830636724086 7.2050866330734635 3.214060069243995 0.7407610460187114 -0.26633929092602515 -0.9127948440919311
P 3.205765543086567 4.450393882273193 12.315637348697837 0.9473723249564845 -0.8972180726995967 0.6294798445435159
P 7.175406479648645 7.697823994047599 13.514606938297247 -0.5417250083250348 0.5847513912878897 -1.0231136816538573
P 5.504395116182426 1.598692907613439 7.652179288697019 4.724095583366005 -0.6912518835449901 -1.5666695725400437
P 8.708241280262024 7.2912527062496855 6.801154725480742 1.4021896755546819 1.2275222965133568 3.4723429535503745
Ni 6.644113007695517 2.3335903594959473 9.656416382269033 -0.6112697492933925 0.27968717298784085 -0.9097182620491365
Ni 8.538081309176006 7.029205976264239 1.3295847354472359 -0.3538606709774615 0.02525723190489199 1.051273431917525
Ni 0.9848005985897237 2.470175242196665 12.733592894713176 -0.3043412240910952 -0.3653689287273772 -0.8431727129184189
Ni 8.47056598225286 0.061794641199940825 2.909911526670099 -0.06926320517219683 -0.28216957309006246 -0.26275825844298617
Ni 3.248525562232041 0.3861369234920242 12.905255599119284 0.8449845693161769 0.5000080882022228 0.3052503661689259
Ni 3.6436367529346927 5.581432435545019 10.51212797539208 0.2801826245670207 0.24156362664324205 -0.8608757866251366
Ni 9.163686511554438 5.293357053660204 11.224912308549435 0.7629617504854667 1.472933321927147 -0.4745569951189698
Ni 0.34803303693272125 7.08403467609255 13.042920015476117 0.6971559077342511 1.602404306937492 -1.1293863741708678
Ni 9.245976375419025 0.9076256457080946 0.5798537608294144 -1.5518926713411854 1.5515226895962764 -0.7425693028720437
Ni 4.136992060320827 8.640482519903847 1.2299848817871253 -0.9044017349322295 0.7676570990786069 0.38422951307730596
Ni 5.832421669885445 4.73287965797674 4.570864407857362 1.8582013035712965 -0.4541290662819211 0.4939775657374267
Ni 1.734659843902157 3.890618698421547 10.80573772279406 -1.0943630640181474 0.6744093580663546 -1.173208770672457
Ni 7.359854120806044 1.9668298011498744 12.487040702867395 0.9049802331435188 -0.059851424939993694 0.1668046884637966
Ni 7.618942198273432 7.082620889604491 3.58354520949752 -0.7767873435146494 -0.7690377814762175 -2.0043700609522963
Ni 4.087752966673783 1.335494550223812 8.980056244969274 -2.225787294554651 -0.13842819420363256 2.052114418216111
Ni 4.931792862869581 8.762021343754821 7.816620446624715 -0.5279721775153166 0.45825568685578494 -0.025255689242995216
Ni 0.2610065201919137 4.782446450478632 6.985876697393771 0.889660572067313 0.5113394540546419 -1.4057043735761596
Ni 4.079045539959246 5.826401373780664 3.675975012213553 -3.018391550496898 -1.3782987278696974 -0.20300659230565038
Ni 6.138548577260183 7.928224377479135 5.7058250482804995 -0.6737946073004912 -0.8121544101600336 0.4228389979193879
Ni 4.433138196859331 6.427747498075905 8.055265733244232 0.4612643917751218 -1.1638340143257762 0.25452378634833583
Ni 5.423266242546443 7.457517742375222 3.53099261228674 -0.8070636259006874 0.7327911404393572 -0.2578705913333817
Ni 1.003142371636797 8.647785522954749 1.5611236383287597 1.9770122377646338 -0.8288110448801081 0.45685803517730994
Ni 1.304035460158388 4.9601622208750085 13.225819981756189 0.30151815282000327 -0.3326971495259689 0.08694545294330833
Ni 6.87706944219487 0.04532824188504144 10.070178319224757 -1.775824186724961 -0.30767800177381205 -0.4781789081422732
P 3.918997419251399 7.864828693302651 5.155384600379815 -0.969918842798433 -0.27397366754283137 -0.2967346153884309
P 0.6139999815045939 1.208637642099873 4.640957320344501 0.30413579294850845 -1.1539272967350254 2.4110010816532546
P 8.065942161935185 3.692164271925495 5.066449940021348 -0.5013005817614011 2.098476807530734 1.4135619219473656
P 5.103263629374992 1.183451644398685 11.244974032443238 0.6500761806376288 0.48451873431737197 -0.6006390090524236
P 6.055116448815839 5.878758287960976 6.551532463506255 -0.28147023303019264 -0.588077113227013 0.720307920370682
P 3.933519159933385 6.743368309416815 0.38531767635490377 -0.4800429579342055 0.4471811742091783 0.7495125669590963
P 3.9197277195564895 3.8735409066717454 5.23719415135144 0.593839726742403 2.3526270125897355 -0.5253835908525339
P 4.949497963855806 7.402998015752912 9.912863206966344 0.6448257308719669 0.6080039340579271 0.5409343941029393
