# total energy = -340889.6985921672 ev
CRYSTAL
PRIMVEC
9.12554724430184 0.00000000000000 0.00000000000000
0.00000000000000 9.12554724430184 0.00000000000000
0.00000000000000 0.00000000000000 13.35616081649191
PRIMCOORD
 96 1
Ni 6.555309443672323 2.491612026739111 11.26409179111015 1.1153787470378662 -0.7111067134873882 0.1361759078343461
Ni 5.076313760311969 0.4865358486037318 5.556270089395347 -0.7799803965306503 0.039811475569983046 1.6223185293629157
Ni 2.776155713513256 1.7742710136240094 4.661380605140284 1.2803672082285305 -0.26237130741721265 1.1747920559991767
Ni 3.4908868201334604 4.459408519514504 4.90702664703855 0.7599962400992395 0.3547682703933955 -0.4430769222328176
Ni 3.8066307527329735 3.0422019161434934 2.6920272940151375 1.4368324624395319 0.24699019697545205 0.09907051834161648
Ni 5.55617153348575 4.728356646149558 2.615977721439861 -0.5332442245475332 0.1881751837197727 -0.3500976043906035
Ni 5.568116874750858 3.106391015042481 -0.05840350198372496 0.764361973267103 -0.6705856134448903 1.6175686733827561
Ni 5.853792129375937 8.04336679538734 12.136008622881802 -0.6586662362994851 0.8459528467667172 0.8270781213494013
Ni 2.032806890921027 6.83210554088644 0.3877737016398159 0.8286961165687986 -0.15256463360501468 -0.21466525959050126
Ni 0.9039228634134517 0.500935962061594 0.6519893195047506 -0.48223868003394366 -0.6099870259262269 -1.044805564804994
Ni 8.301537650796961 0.17513658901897675 6.6866817335016835 -0.22003963652853717 0.8111416526248031 1.0614064065864688
Ni 8.889943807735804 2.546675578453142 1.2757688349966436 0.33264752723495616 0.8106099484910492 0.524769868527935
Ni 7.2727873399952 0.7698448488437521 4.583033219783835 0.03519043185820391 1.5017736431976072 -1.1603473413287566
Ni 1.0648053477295254 7.697289543945031 2.602261111466152 0.7991515701424624 -0.1790120291632659 -0.22956608796173364
Ni 7.965115228276335 4.269487631501179 3.4869600971797734 -0.2601611871397713 -0.9292622456193352 -0.08909052431076915
Ni 7.997136773348348 4.27455231018883 12.52062579775034 -0.116604927680954 -0.9759429375053257 0.17742257318895896
Ni 8.453715275653304 6.800741035211742 9.227210343371038 0.00628300479523434 0.19449881194495536 -0.05646142542183825
Ni 7.2751873589048435 0.6578825978767958 0.29549160573193795 -0.8483989943143646 1.3331599265495298 -0.8886794391009663
Ni 1.7786147740840488 6.885645126220584 9.164850916682635 0.7361281752323903 -0.2825632089840553 -0.02704929080830825
Ni 0.4112135821390965 5.053600273368611 1.210585964009214 -0.9516565541541353 0.4056084929737144 0.6071050763927415
Ni 6.891193458909037 2.2492466190538374 6.819254945340584 -1.083047124784696 0.10489355278129678 -0.3447605084484063
Ni 3.7088505146461586 4.360569717954235 0.0326794970240496 -0.5562003191230743 1.4513442829024619 0.46600010668789427
Ni 6.403998745798551 5.877034898056023 4.621165231250897 0.00982289962769276 0.3138568768910143 0.6463637647830481
Ni 5.616135504038102 3.207702839889874 9.249983146371099 -0.013151449780293478 -0.379064938157231 -1.1353443915265156
P 0.36809172147130054 5.8951308581237924 12.43048546776677 0.3908349342089656 -0.5713631429064419 0.374954001312651
P 4.08250516968141 6.5545702743503425 12.647709992957488 0.5772447984981994 -0.7558511075826144 -0.1330119082840677
P 2.6484619317541527 8.695095124242602 1.4110386460286983 0.33295528828336207 1.0653286244590106 -1.314407328532375
P 6.776613088454717 8.165028590457188 5.613500958565805 -0.8607765420431112 -1.6322429875654794 0.18814047382709534
P 5.111310233766279 1.1558235553522869 12.455034102249025 -0.10490409430425802 -0.2626867817751024 0.5803517195582973
P 4.172473939377901 6.314002599460505 8.203634217823149 -0.9830553801803907 0.8350930212340779 -1.2202851553349694
P 4.88715941826218 1.250884380377984 3.6134292305066555 0.5769784322106902 1.5803434704827106 -1.4658977552366044
P 0.40563057237133976 5.782694991257937 3.317630093834585 0.21854685403309457 0.42340695460771594 0.6165168566249447
Ni 0.817206438733679 0.2790026545234391 4.83875021555542 0.8328348213275206 -0.48503089806710026 -0.136865477702203
Ni 1.9815578179303082 6.926509326514821 4.839938361798901 0.6657786789745501 -0.09104893358872061 -0.6090578292437382
Ni 6.124264222390879 6.12290451586032 9.056652041374756 0.33868267768544247 -1.0244244300454808 0.8131386284501737
Ni 8.983024389022367 2.3316320590396296 10.248489568692476 -0.804533403279666 0.7779461397094408 -0.6688130949254998
Ni 2.3893511449844826 5.4778104598085235 6.812963793111274 1.0503524627651524 0.026862885829115026 1.2351409894008791
Ni 0.3222741741650683 9.050626442568527 9.30732078444362 0.5837196075892658 0.4762274408428572 -0.5268113244379959
Ni 1.4678990179834472 1.3663134267205055 11.580712688794137 3.2252725381562906 -1.1789477300387632 -0.8969493924192423
Ni 4.4434570630352 7.2727599633536455 1.563845933640804 -0.7969105966270856 -1.930477070317572 -0.899935728741076
Ni 5.988485205825903 8.131382697986252 7.707733732698214 -0.8777062279189142 0.873677052154863 0.2845851245100905
Ni 5.6902531982743225 3.2570446735189362 4.595147383671866 0.0954095245502615 -0.6531442780399913 0.3495175635174174
Ni 0.7944820011336989 7.822519427964195 6.956650096312016 1.3051287314439266 -1.2957118090054007 0.036941353111039604
Ni 5.123702726843451 4.6398114618139195 7.053335268736635 1.307067600337852 0.8202580131037744 -0.5683474960085696
Ni 1.0827826756838907 7.628154398471796 11.567690532961201 -0.025315081726020917 1.8826198416249769 -1.2498381864017378
Ni 4.976005745654921 0.6495409351950266 10.352867577394013 -0.4805504936982434 -0.7084533350249412 0.04763662804135667
Ni 8.607663256663528 7.480749434793186 4.546877801837035 -0.5706506902204496 -0.3496270925120882 -0.16222683928512707
Ni 7.61052384131046 6.614515993808325 6.7686884632793 0.5810942541512767 -1.8947929866524016 0.6557567759621739
Ni 2.6612376978130925 5.416651042574942 2.5909883230285744 0.12307536589664611 1.241119061361185 0.17518314233547894
Ni 2.5512566031399904 5.6624567815489435 11.356356548478376 -0.1956270120121276 -0.7973857364912912 0.5974300151968227
Ni 1.331180070058421 3.7254133827868556 3.79240128700747 -0.2005031091575063 -0.35402007937346125 -0.9941003251406428
Ni 1.99604918686002 1.6243108967336104 2.4715175718378357 -1.2831383432157644 -0.5804039129524714 -0.39670476272618127
Ni 1.1395618302686934 3.3676371798534306 8.228129924131729 0.31369566872280163 0.4766298184875985 -0.2790652231331258
Ni 3.5254543928700777 3.0814143923972535 7.2874283678987455 -1.5454430590611 0.43138354505528925 -0.746806737992159
Ni 4.439405320085078 7.126550446356264 5.799632006833218 0.10419241294921411 -0.5803943998707746 0.2634599124957011
Ni 8.571535215358283 7.720723949116001 0.16514867762504126 -0.07096707523718102 -0.9794640632847067 0.11576854782258773
P 0.4673311345529897 5.714399396125719 7.735020031335955 -0.5026874348065988 -0.04657733353890688 0.6942477329485204
P 8.605390995414474 1.8912970307238983 8.064716925581266 1.1571979970664974 -0.517024163144245 0.4538004792979088
P 2.113640987885376 3.2952259629407967 10.354924475729502 -1.1114722128946082 0.11779714821684228 0.1386541941715096
P 4.405914561916286 6.317780575995077 3.650866787832942 -0.13576478843885653 0.017189881515725234 0.6644131660855912
P 7.148114114354318 4.53775134209736 10.428624219904654 0.09017090185914148 -0.2412574082567329 -0.5917666462634583
P 6.700077124214482 8.047883941243894 10.055119223843235 -0.3490984737021278 0.6444251529994385 -0.6419980316151847
P 2.9528354325612094 8.747174622027151 5.553438432103855 -1.9573566683172352 1.004284464762496 1.1861054241294668
P 7.064177331347082 3.9546562536201613 1.3143863255739445 1.017790469668731 1.059075701570763 -0.6129900744186089
Ni 3.1865133193264037 1.7637857599084938 0.2173431573041215 -0.14122092645742132 0.14864498683563432 -0.12161369374945505
Ni 1.6604571891332254 1.1263754145864304 7.136583985486125 -0.6662445628673752 0.6321422218670275 -0.8562280034404802
Ni 6.913204278719153 0.9367374185358387 9.120842052828461 0.6370581711114061 0.25650045045873243 -0.6525187286408504
Ni 3.08105849605704 1.6105221949371407 9.115206114887032 0.2688144919393951 0.9107688148008379 -0.05686971660385044
Ni 6.736588438501495 2.1197277278577427 2.3453149044887542 -0.6390947419254607 -0.6738815105873427 0.9037638442379144
Ni 4.1056475573424605 7.2041723507115085 10.288677565940308 0.4827027641545558 0.2518426399717469 -0.3987994404716809
Ni 7.519980162141316 6.5874678719521125 11.524069504862391 0.8476436042055788 -1.4502929588198121 -0.6177317028686523
Ni 7.838790278594975 4.122885715974844 8.169776612657522 0.24041434353014726 0.7186544439276592 0.5948866799496787
Ni 3.455789965660115 8.661722998187214 12.18986030192967 -0.8490885641822216 0.4228803926802846 0.44675282842250796
Ni 0.4854334825037889 4.773938754338419 10.339231272235532 -0.9522972730619276 0.5351792367867171 -0.020504033490622756
Ni 8.801672389815714 2.46848789017243 5.184073696800253 0.2659374275019162 1.6564440102917148 2.594195524328984
Ni 3.978838953660297 2.856287143344364 11.263290568067308 -0.2638018692161521 -0.9178084952564386 0.4202470688224956
Ni 1.3620426706379456 3.7870290773796857 12.781418422866198 -0.16245155370142347 -0.7346896430136508 -1.6960788510745177
Ni 3.2304254523804166 8.508824455103259 7.843698910425763 1.025314545959918 -0.7510737407986291 -0.41745073702428104
Ni 5.810993313078489 8.260016411105406 3.618424555035701 0.5994529591641224 -1.0796344995587215 -1.0574427939530306
Ni 3.4702083302123476 8.55748187269345 3.331841308465718 -0.7305805059412838 0.18529811928229378 1.7600844073922013
Ni 3.664454727591343 4.514052296058027 9.374969378280426 -0.38626119879535414 0.6863331060871342 -0.3857572625757421
Ni 5.200010552404061 4.794872759580709 11.59187870832965 0.7694923525151328 1.5541642409841814 -1.152986272977995
Ni 8.306164303219733 8.933208026939685 2.3525943534781946 -1.2372469800002885 0.38518416368109143 0.24455664783329495
Ni 4.917465360463423 0.4602597480393665 1.4679218318514096 -0.09850024766044327 1.1333088491537255 -0.28335639430931203
Ni 6.2982336539249 5.862132879502989 0.2777707056534699 -0.9605661979389392 0.008437075023759663 -0.35394577449210013
Ni 8.161889402225563 9.225106904744905 11.335948174753936 -0.0016730168270487316 -0.0731550840274353 0.5120459932033633
Ni 0.3852386246318348 5.215642614731893 5.506410837240897 -1.4389122277866961 -0.7148175866800721 0.40904271546624393
Ni 7.544765148295659 6.380053309985224 2.2612512763756487 0.2907552578765444 0.5581319889281484 0.5999702651201732
P 8.969828847792918 1.5924171093221857 3.3797367428659655 0.3199136246080555 0.17486792508790527 -2.4014720591168963
P 2.1979975460631187 3.73083395781472 1.4012879988615718 -0.401506812100515 -2.230047355382585 0.1901526191611177
P 4.877194320736207 1.5389596539127075 7.482882987725028 0.8603793066046924 -0.9684553708790288 1.7763340364818436
P 8.92890989421557 1.9405293577867415 12.537121136841867 -2.426798710807143 0.18460597831127562 0.2851327694834444
P 6.421519796393669 7.95343452787959 1.0842290749127066 1.9686867486180741 -0.3275677987192036 0.6737048758001623
P 1.790934262783741 3.363256917204651 5.912251297197491 0.034796795964211036 -0.1383682874999746 0.43819851109459373
P 7.191998870766775 4.284243641299255 6.026633643277898 -0.019843259978172278 0.5549168244249604 -1.2153486372653004
P 2.568540389508299 8.907072459801968 9.95892774352132 -0.8683029323271433 -1.171977212258201 1.5070438904576111
