# total energy = -340864.71581995994 ev
CRYSTAL
PRIMVEC
9.33220178695153 0.00000000000000 0.00000000000000
0.00000000000000 9.33220178695153 0.00000000000000
0.00000000000000 0.00000000000000 13.65862062861951
PRIMCOORD
 96 1
Ni 7.296242148747043 0.4153697783691275 5.465907105547236 1.434994895010161 0.06267886708645978 -0.35017628014733887
Ni 2.8880085555728523 5.10991252916726 6.943946857238893 0.25034034439460756 1.1045608304867558 1.5270151913732153
Ni 8.425214617601497 8.115646812939087 12.094435800691457 2.115932798223653 -0.057197532256914395 0.7334637410263497
Ni 2.6877581651096296 4.275613670587143 2.3385201029758726 -0.20776210471276477 -0.5791728687588477 -0.3303193933224118
Ni 4.580702018290736 2.265186726459 2.5504198811926253 -0.09471841202050785 -0.6576912739807254 0.7866788915967484
Ni 1.033672022055571 3.5003689862474623 8.080631457824113 -0.04150300433979304 -0.630611644155114 -0.06781490276144449
Ni 6.3659895892282155 8.058897692592042 11.424534878940413 -1.240069279940432 -1.0586992920679508 -4.155437498095553
Ni 7.363695304785265 8.06918177919333 1.304860212782898 0.0462780571309332 0.24477184916789457 -1.3853214390444335
Ni 1.6473296288078392 7.771251230421853 6.160816462211289 0.7635819005679688 0.45346932121073513 -2.314072549355305
Ni 5.430622983014735 4.756446046308418 7.585274442913867 -0.608465704185694 -0.04058897716595591 -1.7365932662487962
Ni 2.6626732061402407 8.326703893315461 9.212275736110463 0.8119615774229372 0.19126333572679316 0.1356334050673148
Ni 1.0243584844620257 9.153947607185437 8.084756291107027 -2.7466794252947344 1.1033328716169255 -0.8996963590367603
Ni 0.7552383096973536 4.71670953020289 12.90795651152405 -0.2403984026905473 0.8429906788145999 0.7186914678131816
Ni 8.594538090644871 2.5910018947991302 12.780290121757297 -0.9988265269717185 0.26529259482906564 -1.524575214473155
Ni 3.2212148278950345 8.670091598016958 13.63911680684755 -0.799956582542261 -0.590266407568848 -1.6071032550750584
Ni 6.986441039034693 0.9686639029407044 12.307031761177228 0.7434691889784938 -0.9425990719375573 -0.6908505343415134
Ni 6.852841235237904 3.6913338357231327 0.1757412283570826 0.03921729362940988 0.3734095396436666 0.32786424691369986
Ni 7.412334741596446 7.565018898478206 3.5301937706114015 -0.02043872747032609 0.10834577299595534 0.5112831468954099
Ni 6.231680538079614 0.35782648763209324 9.669483642474964 0.024740440169473518 0.7719570120055416 -0.21587702051041532
Ni 7.130511573472722 2.6309437193486027 6.539556414519871 -0.10929759538626337 0.9736525988092523 0.5660077921317994
Ni 8.573083358252527 2.1262955641296055 10.207182724288453 0.4017541522246307 0.8745090611378552 1.8705793655206755
Ni 8.518881929050812 1.7653073264607455 3.538593685629388 1.2120162304579578 0.40037346982702016 -0.16668204684300325
Ni 4.524914114749439 0.3456199674193103 11.909921369236487 0.6004155801877079 1.0161115393044113 1.8691899413723163
Ni 5.517776417469765 7.54110046475851 8.52434500010017 -1.0889598907247051 0.8347037562154591 0.26660334322068924
P 0.776773299026878 3.3026662869295675 2.821652866489541 -2.099414231743339 1.2661950304932066 0.35922604905443295
P 0.5916560073228664 8.9958694375491 4.642414936880271 -0.6337483900118828 0.39958722648029893 -0.4742667175720606
P 5.35415491984689 9.1738158652382 4.923509260027988 -0.18994101737094385 -0.45069510089970766 -0.5281835221951742
P 4.880713648107667 3.4579261315626484 5.515842785215876 -0.588814762723986 2.0844617241985652 1.2567554823468614
P 6.586220224168173 3.077508249334909 2.2935967490001126 0.2218257818946825 0.13718712270767988 -0.9304472670663718
P 0.8690893076269477 3.0622314346649353 11.49838712588835 1.5338288718609392 -0.733156494198576 -0.4961270079802617
P 5.894172120636565 8.281293398395428 -0.4126149123394535 -1.231191517834828 0.7242275671400624 5.186357563167706
P 9.293398701634684 6.844666226288059 1.6362345738529631 -2.52461401658542 -0.4337587301556853 0.322501954160522
Ni 6.488829364121841 2.8522942185282654 4.347497756133798 0.3888968366459883 -0.37731453112502755 -0.4240312184552762
Ni 3.571984304376588 4.075232629295955 9.324249094998153 0.83117054625122 -1.2860861129901786 -0.4593455774858541
Ni 0.8612063965996253 2.7283812404049232 0.6602682228491834 2.721414222970042 0.4214811983399128 1.4760510416205226
Ni 3.0981697445574636 1.7281464981065395 0.4759199045897692 0.7564895124975617 0.6889394333617296 -0.11054715152264831
Ni 4.088176393466544 1.6111486816633747 4.8635479957533905 0.6756422020321913 -0.5391631611351295 0.46736381980464026
Ni 0.4703028522074496 6.733967646193233 7.667662855028953 -1.1990840957773221 -1.6026629599155173 2.408935714483793
Ni 2.6078745160106833 3.5428491697402666 5.287388613875685 1.298961683401266 0.736517440251009 -1.416436415281683
Ni 3.6051322858718517 6.3720181917186265 9.965698932519297 0.8909528085161752 0.35712057267565595 0.12017541864103173
Ni 4.678279522377019 4.610154447794974 11.972723355799136 1.0386991947969402 -0.6668868244370644 -0.054082640777016536
Ni 5.485113710478374 2.6592482880071433 10.47263814332869 1.4220995271047314 1.3751964347952896 0.8063758558050436
Ni 5.791256597007688 5.437612802310893 9.824304873614162 -2.097356577883362 -1.3124607463289653 1.2192960519488225
Ni 2.822589819570094 5.890653880483492 4.572345964622138 3.0426771625171405 0.27346484622721295 0.7555860268466857
Ni 8.28667807894801 4.747431139178794 6.934959946715261 -0.019342409082353785 0.3530651716593597 0.07251693622280414
Ni 6.534855784373709 0.638255424777385 3.0567170365045886 -0.5451553741628224 -1.0604083043392576 1.2639674267142682
Ni 8.413885324376484 6.546343725032682 5.330522984728517 1.1673260866394348 0.9337120538605725 0.7538644161698888
Ni 8.600137411843395 4.721599604049602 3.644161421065965 -1.4514653818613583 -0.296956758701566 -0.24599903670677634
Ni 5.316807447452732 6.431259009999013 0.7148224092864054 -0.3811192495830985 0.09880878003979758 -0.041246408244296706
Ni 6.582515339975148 5.334006695734199 2.4348676228388797 -0.19748849070089858 -0.2598236012946945 -1.0638654096499227
Ni 0.8985650676361792 0.3132157624232506 10.795677914794751 1.2467783165294917 0.9722240938928417 0.5165456808459297
Ni 0.30748205751596175 3.621137012297633 5.286774554984247 -0.32223635920396115 -1.7129128919127208 0.8460155816838527
Ni 3.8619544848441647 1.3125275499440774 9.864570525572947 -1.5615677325371042 -0.8946811652103559 -2.0234587021526313
Ni 2.360757807115812 5.007454283436263 11.294012835362413 -0.8327458611581401 -0.8375137148604286 -0.559644826028249
Ni 7.597429636015663 6.519784278147681 10.194425604157814 2.334295818380715 1.7294108895677442 -0.5987176236599947
Ni 6.153849973420126 7.110745969641932 6.129238157092012 -1.057240191023921 1.5685706462174986 0.46292815263078985
P 4.472887088613151 8.442749825154875 10.288629517221986 -0.2036041166803332 -0.7445202559508275 -0.9322082156215364
P 7.084279844776907 6.294542250735046 7.923434248056344 2.0908478302305666 -0.9033498966289475 -0.024366344659506423
P 8.36859614808242 9.22742936571407 9.94526514302548 -0.6401334676026201 -1.2195937856948997 -0.14392624120372632
P 1.018180566739654 5.620467968250701 5.863755674665982 -0.34811605518420047 -0.5920615517960578 -0.6528331745574757
P -0.004979662985887587 1.9302633289692706 6.852461414616604 0.7195823550585672 0.4709199125870148 -1.6925410131245882
P 2.9244601365752456 4.218715235008139 13.63292862370298 -4.317452735590506 1.1761789090443744 -2.295714101452775
P 5.509974696599822 2.4079414204153764 12.664901176938509 -1.3373860488157354 0.5467281179665809 -0.06462879172397902
P 8.70587126047553 1.275497372417837 0.775767287651543 -1.8922668777964378 -1.6072760332074962 0.783572998977915
Ni 3.38332450879431 6.317312823609044 12.966852971550727 -0.4445661051838344 0.2431685092365167 -0.0055720947711387905
Ni 0.6856480794016944 7.307804747021996 10.406093943765027 0.24983075174804073 -1.3299581317827804 -1.0329165266768918
Ni 5.462828412108247 0.789347507998364 7.024205660858139 0.21129094380162966 -0.17445449169957053 0.5575529764962269
Ni 7.502567802710665 5.926237566700114 13.57545345804053 0.4134159048332751 1.3830033324342181 -0.6700778205705363
Ni 7.291156098658384 3.958589436528696 8.944361281843873 0.6127159948216157 -1.0574242820102693 -0.05590478158741985
Ni 6.032419361028129 1.0925395522560564 0.9186666307388813 0.49313784344495076 0.41600217750321256 -1.6840579153542414
Ni 6.469381055158966 5.397745635377401 4.698770238303019 -0.5432491582790451 -1.5063052125193734 0.6695319753693952
Ni 1.02240805424454 6.112657633802982 3.503778039637164 -1.792782154735538 1.0781499445933949 -1.730680500308787
Ni 2.260959238954114 1.9551616438987085 3.2518039196025725 0.14935101176372342 0.04140890196408997 -0.6439906365651812
Ni 2.7851956861659493 9.140229270249051 3.963909724887494 -0.06034456252632833 -2.065639192175423 0.025372417326517592
Ni 3.4123476570066607 2.3662731384963585 7.272915376633991 0.5224391635122294 0.37925751378401135 1.0258465072039882
Ni 0.8483886171560034 0.1481683043351496 13.378782900263563 0.6777075692016522 -0.17169364112498173 -0.1759238771562454
Ni 4.5785089508213135 3.6245619304307306 0.6851572055766237 3.188730991586831 -0.17431950878360303 1.2809734743539616
Ni 1.8195274200664555 1.4447555200472284 5.532847923695793 -1.9097233827099884 -1.4639709705275368 1.018984489976832
Ni 4.603556580982713 8.541353871460888 1.7736811113131383 0.8987455650877167 -0.18564264710590608 1.236873912931586
Ni 7.935805948244483 8.401520156729742 7.360835918093219 -0.006558112833491931 -0.8560819647809191 0.9327463475131936
Ni 8.841150860631876 4.589203654310495 1.2688164490077978 0.17507232778922752 0.45144072081648057 0.7614563695845338
Ni 1.9768030203310047 6.903179132812637 1.2092088751889076 0.9657569981112594 0.2511702964950706 0.15698204594641996
Ni 9.160816107855627 4.565770495094671 10.321041187979644 0.7495290220193286 0.6304242107346563 -0.11056926300983537
Ni 3.110758885052146 2.486667876466628 11.860149003102807 -0.4710559239442468 0.6884344687008531 -0.23462833297598945
Ni 3.1964564959955597 -0.0893632998880479 7.009726749458955 0.28652116519053883 1.5269956509891895 -0.1363826245285135
Ni 0.2199777322658239 -0.22718219220792515 2.2229127846303416 0.6462588637740677 -0.5148492669801132 0.6824754229039408
Ni 7.973060098618665 1.3333663570045855 8.244944471615009 -1.1542250304811024 -1.1324056206131659 -0.38405904893771275
Ni 4.997515488308883 7.235965456044929 4.010116256637916 -0.6172077120443822 -0.01143600975108353 -1.0386811970748113
P 3.8427114843252363 6.031084856142481 2.37487929517849 0.9795931326634033 1.4817334367172805 0.6787622357184117
P 5.505700548084949 2.697939597488946 8.327142506809345 -0.13097070948432282 -0.9863402215792497 -0.32923438778834907
P 1.6163840469839947 7.540307227588719 12.307210006235382 0.022754777198012426 0.4366157399885061 0.9598653152171729
P 1.8503890120723219 1.5592523063550523 9.0755393792223 0.5955906479952388 0.30853417912652026 -0.18895397086732618
P 1.801889558291104 5.3174700337945575 9.066073726736196 -0.6031142100657936 1.280752359482091 0.6207753747909825
P 7.362855406605488 4.92816789526516 11.631422331464286 -0.675479965422714 -0.2284126910835808 -0.14178785470448485
P 2.633734047745868 0.25526932055992263 1.8308697783742662 -0.614693944483593 -1.0261925776894971 0.6617844702134925
P 3.889260507888968 7.295766206445169 7.064976184944995 0.22789769912037525 -1.559275851179134 -0.42047049768721134
