# total energy = -381165.7362835897 ev
CRYSTAL
PRIMVEC
9.30279380111663 0.00000000000000 0.00000000000000
0.00000000000000 9.30279380111663 0.00000000000000
0.00000000000000 0.00000000000000 13.61557906873731
PRIMCOORD
 96 1
Ni 6.195790712349083 6.8615172210367765 3.103303070038047 -0.06497100555474616 2.2621804884717043 0.442189891642174
Ni 1.0156696919037147 6.4556177348980235 9.425261988997146 -1.8535231813693367 -1.6590901896653105 -2.85469044065909
Ni 0.6648148349243633 5.315113856972675 12.788499993988772 0.11561505296385896 -0.5094136977868389 -0.8481830216488168
Ni 5.174120718635699 2.417712306382622 2.8366691934826953 1.4438957970442163 -1.102841533802804 -2.48226666196746
Ni 2.291185011943376 4.607041032257672 8.067707193610024 -1.4857307308021317 0.10333726403777041 0.772635783240121
Ni 5.343152476591812 6.724514981112743 13.064692490868829 0.5762919476666268 -0.0738071157891374 -1.0771238173217255
Ni 0.14454029349980843 0.9969896825489609 3.4283752348228265 2.1248121029911533 -1.522641744895868 1.616363083110429
Ni 3.0070628804077013 5.544381202863067 10.166820218927505 1.2576579395564726 -0.3346635292237204 1.2855256125010184
Ni 4.4777322025609205 1.2877857046705978 5.66559195081514 -0.6765179197689252 -2.6520000940422777 -0.7847703617201259
Ni 3.492882665533849 7.851743772708792 2.782901837871306 -0.8150836679916866 -0.7328739299611507 -0.4912138869493604
Ni 5.445790197314421 2.367542341018983 12.82516695458228 -0.5532620624303568 0.3029939660345814 0.47075381932279575
Ni 5.319253600081672 6.26183124342946 9.719521441140087 1.393092084128788 0.0836824659213204 -1.112477257120355
Ni 6.135750483078376 9.140283003653163 9.93466156481627 0.42941896512975075 -0.4253707632023061 0.6952113824133704
Ni 9.027914560926035 4.632800467468486 1.3978572876817443 -1.4568251035113748 -0.2208294794196842 -1.860024215712648
Ni 4.5472519784115555 1.2309642419520541 9.004513383868325 -0.6302316351078759 -0.7522091399546529 0.41178633964965206
Ni 5.265111341892097 7.853399669952391 5.222200346299132 -1.1585812505672692 0.3800378435934616 -0.35396557198644196
Ni 3.1652289755518863 3.627373151211974 1.9482533441908394 -0.0428461486312488 0.9510022083995882 0.7153937708985163
Ni 7.1709002245781335 0.8178429972166404 3.025994065187046 -0.3688951967130808 -0.32342498019542365 0.014949422220980706
Ni 0.9644764192547057 4.098792211994915 10.262729229109132 -1.940246233889194 2.4195335446042976 1.7510042994678037
Ni 5.705403255612784 2.3771986406754744 7.351064635519721 0.0058505452435060525 -3.4070659867194357 -0.2504267334608268
Ni 6.459915625496578 4.236054930137042 7.186288905591398 0.956902633044423 4.216881207223331 -1.0193578141558508
Ni 8.372932778734727 4.475173934347496 5.857994186610403 -1.5860523479420296 0.15974675317575068 0.02070997885384175
Ni 5.840237944650533 8.937370471757799 7.6828896981085935 0.5956161019165356 0.006204586148815121 -1.3692834117449644
Ni 1.8370133303156708 0.41551578378317944 9.231362003447842 0.4486695858292466 -1.1377555720711696 0.6394408124109697
P 4.976641018146301 2.556100662538656 10.545415075854537 -0.33696492366338743 0.3831576201693659 1.3467973148273062
Ni 4.084363579271199 4.245878680076594 -0.09287257838212802 1.3366550841869818 1.0483498305128267 2.591067520222963
P 4.830782518807066 0.7723653608960982 0.8374728217880877 -0.4599539004938143 0.5144013808094172 1.1570308753610137
Ni 1.2092236135346939 2.2975760310801867 1.7862954304146836 -0.7748286771263817 0.4224399627087563 -0.6702117750452393
P 2.0007797071488804 3.602897501504625 6.206824755723423 -1.6966527213001168 -2.367570778383761 -0.6750835013152439
P 3.3663460683011 8.871953227842148 4.548025040551685 -0.586685375085809 1.278468705654237 2.0517032988206214
P 5.379740363440541 4.56308533295428 3.024904708067802 0.08380690731432663 0.7403766660960992 -1.6170094584451764
Ni 0.6740069251850367 6.876801710762802 3.5939677500207465 0.8151371469374414 0.9242915318776209 -0.7088634259791662
Ni 1.5971687082119552 8.94376149089461 1.808326305989349 -1.016122852158321 0.194644079273568 -0.9645701768920097
Ni 2.25839266484402 2.8535574848087015 4.022927000695637 0.4612237683451734 0.6377724235696113 0.6443328503959483
Ni 5.425435685129062 4.608948104925862 11.433191823232711 -0.6176576550976072 0.213876959361251 1.3366476279878141
Ni 1.1060277252018835 8.18198363928469 7.482373565819697 0.02557270626278177 0.12883360853666198 0.8382829889262853
Ni 4.55473142438826 4.099489921507668 8.576916062162327 -2.0700751164595896 0.20280758892096684 0.022083205052284546
Ni 0.7260867540549162 2.7908752621830386 12.624023814011256 -0.02160909362934343 0.19530665255823138 -0.478710098055395
Ni 0.38162570705042653 7.45505405213837 13.658740045333756 -0.7464822647732048 0.8740480623410366 -0.014111242590401503
Ni 2.5124891665948885 6.941865448525326 5.486492709729688 -0.23140262694984018 2.7590492597139966 -0.11434235689902243
Ni 3.3241299913828364 8.941212525474688 7.062427791770215 0.45721001920008997 -0.4073195621275501 0.5468402180644131
Ni 4.251171969580008 7.959916655565902 10.85725308660143 -0.2193932611937899 -1.6469720662455378 -1.0641191775319414
Ni 2.955544009986075 1.965391880662086 0.23719332595525705 0.6130468957984733 -1.0962718510050862 -0.09331741790792315
Ni 7.8098346879761396 2.482422537992018 -0.01284715782814488 0.5478756013074629 -0.5104984462105853 0.4176952489349194
Ni 0.9266968445581966 1.9852347392047602 7.748816735108228 -0.16394742152065958 0.5744235269993204 0.1424332015979676
Ni 1.7245239512730002 7.503447183942865 11.13477960406987 0.47967606151309 1.4666256345415645 2.900372258966921
Ni 1.0633372058149488 5.196866048751423 4.963245925780808 0.6718421115598107 -1.8243429602609549 0.3504233631611385
Ni 3.5115533720950993 0.7050689526927671 11.156904437858921 -0.8818505891045909 2.022630549824381 0.451809417009809
Ni 4.634037739004433 3.2294182507250935 4.7785371002128265 0.4186159609769758 2.4678988232815624 1.4801974596887282
Ni 4.597459154949208 6.193530133527766 1.54131101490036 0.7105487841013892 -1.172651098396774 -0.4606357570521873
Ni 8.285533033770628 7.695214969221199 8.668616488563032 -0.6174478530796462 1.5241047025946397 0.3061633649014985
Ni -0.09690719992453671 6.120959041408029 7.090721307931345 1.1794920325780074 -0.0737693205726665 0.5755447850879573
Ni 7.144917522323239 7.605536039848776 11.431231724641552 -0.8734685356884827 1.0128935465877458 0.7119945154089802
Ni 8.229679061576435 9.263405475670178 12.944793436800731 0.6412130738200441 0.4396537554838816 0.7374358383002203
Ni 1.4419981125758534 0.4885575972541877 12.61039522152883 -0.4624103324541069 -0.7038903982446071 -0.08918591223805285
Ni 6.609002194181479 0.511565266146706 5.26758123356724 1.5603590569409838 0.43186511267739813 0.9799769983653834
P 7.104775968356226 2.8152020671943343 4.57791119496059 -0.8080200762766858 -0.6799434005107065 0.39038447693510836
Ni 7.3280430124369484 6.474148899556724 1.1790137219118715 1.2230053824796097 -1.3807826706338153 -0.9336480333918565
P 7.462980032203235 5.815120402191453 12.69301426091155 0.22279380223490663 -0.5403435545964759 0.1368870749687578
Ni 7.876461295047228 3.946942713639514 11.580989024738047 0.26799302447936424 -0.7206298224864751 0.8838737901822068
P 8.269281053520253 0.2752175641209047 7.377614808178321 -0.09341460560741978 -1.4578322046196504 0.21631745048194356
P 2.708043188829091 7.600149722410328 9.11380539278389 1.8094683571419676 0.9989833642645571 -0.7897706431481946
P 1.2886415616729074 4.999609615306105 2.536773178756069 2.605051493206881 0.059759636557135794 1.6522407708436448
Ni 7.748417645266935 5.2232859823009745 3.5762273228098325 1.019985934658153 -0.746218983809489 -0.24703801949425197
Ni 7.092924209432941 1.3468491406234522 11.52246980220514 0.06296271687546577 0.8705930139129006 -0.9747471174250116
Ni 3.397742996374951 8.28520743599801 -0.6129322252767552 -1.5319388539270777 -0.19997114791343623 0.9854480487822834
Ni 8.37960288167664 5.966867569818317 10.563320162510461 0.4516433237455899 -0.5896809673790232 -0.5894225715113139
Ni 8.59088792772503 3.8242109589496405 8.441359476348717 0.6059146556290662 0.9139104457536132 -0.09555042100349996
Ni 3.4912546766707604 5.584327398166509 3.547797985863554 -1.0761079744627016 -0.620290464734764 0.5741702733379337
Ni 8.597120799372282 8.27220213068031 2.454711376704199 -1.1579081357596446 -0.5669555007570494 -1.2897813024535787
Ni 3.422916355595053 5.03616029098082 6.072806851955269 2.408336647447214 -0.17962575148786483 -0.33611800228205985
Ni 3.171554875134173 1.078984504487606 2.7810496516847865 -0.1186533255695505 0.0877761763747198 -0.14507989519219527
Ni -0.0321076614975085 2.995853014236148 4.3925623371995774 1.3694407632584351 0.8386180036682009 1.5123136234969827
Ni 0.08598013867548605 8.760170861105733 5.550526628251388 -0.7505731470131267 -0.04202493828153408 -0.4451916545829752
Ni 2.3281543133257423 2.6472122221105976 9.629577382152815 3.127479343865201 -1.2632824848321018 -0.2982119712649058
Ni 7.597396095533333 1.6325565346987496 9.015964192391616 -0.0464300093277652 -0.23730330870499133 -0.30442298517162414
Ni 6.3868235769406505 4.168739916346705 0.8523172893814047 -0.2646670454299248 0.42689954114200673 0.5239203760434461
Ni 3.1242780785500806 3.284565210613032 11.935280333637541 -1.0438349733616088 -0.779737941502541 -3.087249806921193
Ni 6.520876831324118 8.517200500384886 0.8415669812089179 -0.6260620771112186 1.2143996430884696 0.9787436401789144
Ni 5.224095325335767 9.233990042612543 3.2517682121169242 -0.39197727534352494 0.06759893009589649 -0.6900606914503664
Ni 5.71545957538992 5.487885337917141 4.909518572181483 -0.402002777900327 -0.4510748528366296 2.0344090305165476
Ni 8.11477095622289 2.7710510092273712 2.556175084886683 -1.4700961095886682 2.216856567723924 -1.999953677052156
Ni 8.820908799889192 9.317864028838866 10.43658634605544 0.6822375958615219 -0.13955228050574675 0.631227680472558
Ni 6.494326658665519 3.8260994260308236 9.559306870866461 1.3518227930663558 -0.3965718366927429 0.22930872053528895
Ni 3.3123526548075786 2.226828286487108 7.40427382352091 -0.8966097496916364 0.7816922370154344 -0.5883038845258384
Ni 1.654529732953694 1.1199167959024052 5.668464653448979 0.9976739014245141 0.3628721304474525 -0.5223057232581585
Ni 7.115799778657712 7.026660411308484 6.391629400064489 0.21964394375201526 -0.28309439889717697 0.47596775942356734
Ni 4.7232236203211775 6.7390552473584995 7.165906485025528 -0.1878651086785216 -0.6073642435913992 1.2034727117633208
P 8.005788730330986 7.610978174048243 4.48027465602539 -1.2184139064541857 -1.215375633848494 -1.026544047491645
Ni 8.276788407877467 2.164034430339405 6.513556463116321 -1.2759045444714865 0.3310709267764556 -0.7619703331064749
P 8.67466888601632 0.9706441713474356 1.4384314215466638 0.2486799259730491 -0.6558513925585092 -2.2493437417183517
Ni 2.4114515263548584 6.882364781277813 0.9646447998171166 -0.6543079593307893 -1.9541651579631312 -0.027052119021785666
P 7.290189945671763 5.837344775870988 8.635135734744427 -0.33357158171112233 -0.9750397089647659 -0.6399300933425625
P 0.24425321594495955 2.0967938388970944 10.118063347897028 -0.4539012665418312 -0.5384401669261759 0.06581612716386083
P 3.323916027132259 5.886900756863405 12.521921003915091 -0.9089021939057443 1.5108954029932173 -0.8161028532848204
Ni 5.312918397705881 9.285797299632772 12.526917534305747 2.0966513242862215 -0.14702004963770163 -0.6075563049975472
