# total energy = -340890.24057449715 ev
CRYSTAL
PRIMVEC
9.07596555350736 0.00000000000000 0.00000000000000

0.00000000000000 9.07596555350736 0.00000000000000

0.00000000000000 0.00000000000000 13.28359300021448

PRIMCOORD
 96 1
Ni 6.3059716820391305 2.117558866657781 11.577633641056876 0.19707788552604125 -0.03112963152526897 1.3124646029837075
Ni 4.737100303471683 0.22620663877126862 5.921706198278333 -0.04120347082150323 -0.2106661657334372 0.2509155001717872
Ni 2.741976210022711 1.427404305920619 4.8684367835421085 -0.3448376415432448 -0.42653547293436866 -0.8165563958824712
Ni 3.5269201533686805 3.940520972486447 4.856374825529173 -1.1434901605621015 1.22421740050984 -0.1485691392923764
Ni 4.864245502721661 4.483690273615257 2.594445484893985 1.0579341317671522 -1.4390094154861925 -0.6193934068417913
Ni 7.2406599784742145 6.016012739528006 2.623230816747881 0.06634963106982766 -0.6377665100323403 -0.23538063776098173
Ni 4.903735028165066 5.187558618067654 10.672689098421639 -2.096010862488745 -1.208863286651273 1.4414907871471498
Ni 5.761640657339473 7.991287696653207 12.644917253962983 0.10153260672886386 -0.21808996900133407 -0.25696890545471873
Ni 2.0073040390120718 6.5371637486031045 0.6906755211509639 0.682819950727553 -0.3136948973918533 -2.8436640076415993
Ni 2.4970975876396944 1.431434034556995 0.2838880292569076 1.0076117293635163 0.3657661641657959 0.4826888801974848
Ni 0.4635295199610806 0.16797705997563614 4.859218325488128 0.44392744315857097 -0.9483675989902183 -0.9517275166013867
Ni 8.687160115590633 2.6616266883609176 1.3780927707243176 0.14724604960557866 -0.2598562543048428 0.7057781021856232
Ni 6.961220079858495 0.5992451533356763 4.703215186661075 -1.3929329328431042 0.2789106998331326 0.8603173430185055
Ni 0.9333178256601001 7.549714752181138 2.3641873351693867 -1.2311902322832473 -0.19929571911296645 2.1269913700306597
Ni 7.715904754570056 3.817360122045858 3.9523605693471513 -0.5764235881484847 0.761892428680688 -0.6285303361460529
Ni 7.979053295297723 4.2737541180116265 12.812995057154529 -0.44114011022142086 -0.557219504416208 -0.6530247217429914
Ni 8.050281471735287 8.933953766672468 6.764045639199928 -0.049798668689681976 -0.23822376363673164 1.084314935753526
Ni 7.084825652603549 0.712834490668333 0.6326737490868022 -0.49380195939151084 -0.041149991875748484 -0.08817598291629974
Ni 1.8579862562966276 6.5880345346546525 9.320233207154912 -0.21857976415355904 0.1460898245139484 -0.20898492137627234
Ni 0.32523540481712815 5.059387834727786 1.5325411966788232 -0.9898947716997275 -0.505626977050897 -0.4089056756677473
Ni 6.404827097145902 1.782038577852497 6.973926431414636 0.3973665646798963 0.6719079318007396 0.21062708496538568
Ni 3.171786703339954 4.445562142981439 0.4798154322698937 1.2794408397595192 -0.4339459064658268 0.42729549102884473
Ni 5.783804164839541 5.394309109816851 4.872540935094741 1.0578523706866234 -0.06699086419825237 -0.021391064081266384
Ni 5.064388691661668 2.740396992043591 9.706480881758468 -0.04625800252627517 1.6876176076810419 -1.4730438793630827
P 0.3459331439055411 5.857019977699101 12.448241083804726 1.680161922733945 -0.18663792113963987 0.1948104296481032
P 3.9964561472296567 6.192113696130715 12.55104272866622 0.9077392839458948 -0.4921916774815975 0.25165957742666334
P 2.554602904396627 8.501856130075119 1.3133266816495905 0.09258979571327924 0.9655793348828144 0.6666171157154456
P 6.330140977891989 7.634075850548512 5.9407947687018146 -0.9377530566991656 0.9953012874272795 -0.22351525378196346
P 4.549300427471928 1.1226243119157973 12.600364247424457 0.01679675984236462 -0.049968618608642976 0.4146945144353825
P 4.029456357414032 6.014315533998722 8.455259216129134 -0.17872560827109865 0.14015006199074573 -0.28592518347775275
P 4.528244187750324 0.7426708193152302 3.7621791600271592 1.099328892663855 0.2480762309507792 0.22422950624016866
P 0.193942489380609 5.6656895511598195 3.6575841044031705 0.31316936390568645 0.1083678844831424 -0.07336925692077041
Ni 1.3732207924990774 0.9378104285317355 2.7338958780295455 0.04112736616792917 0.4315223846259988 -0.9113120888988177
Ni 2.0911750352479954 6.0776203926444925 4.861569000526014 -0.8996912168304377 0.7004253225141421 -0.31029152813725913
Ni 6.2403978320440485 5.860813731235148 9.084250846054275 0.8959466621863409 0.1920884027312498 0.6388510013457708
Ni 8.411722717715097 2.509241229341206 10.256740327055605 0.21096955590646893 -0.18784402563259908 0.3065107209385883
Ni 2.2709880616981764 5.372681084275222 7.033967572903558 0.5905471720340604 -0.8228098329913508 0.9402665671496387
Ni 0.7825778391669082 0.1329982893346611 8.810436230791767 -0.9095321141802594 -0.876064321440117 0.6177134480362071
Ni 1.2616862537323565 1.2103616694109467 11.4858974132077 -0.14629139900179322 0.08074292367702222 -0.5048165653344596
Ni 4.3526968650368465 6.6719690626483565 1.6713943912912457 0.2538277887225757 1.3048209703955205 -0.8660457608618505
Ni 5.6056338881262615 7.877692913741312 8.135364109351743 1.0424884866360433 0.9151913693485657 -0.45152890965491266
Ni 5.36336914377765 2.6870030876116098 4.830219708447397 1.197406450964583 -0.6097306869410467 0.18063388103740505
Ni 0.6557149024407835 7.075087141732308 6.615999399236638 -0.41532623448211053 1.5212898588536639 0.8235726792993041
Ni 5.284834815195305 4.540360601555643 7.200916325999686 -1.2703872141976833 -0.4857546636070021 0.19138417757537363
Ni 8.277861304071159 7.455633294873315 9.123743094287299 -0.35860821296477596 0.00798173265389593 0.032865383269453076
Ni 4.737254594883435 0.6094383700733201 10.514056652419004 -0.4383574052699612 -1.7332585454486085 0.09585406828684782
Ni 8.023171563093722 7.208168022352083 4.757864297107496 0.8001170193795253 -0.28890200671788957 -0.3823824325662382
Ni 7.217470886884257 6.026595315181192 6.966726468065003 1.090965094080192 -0.2601077081940166 -0.09024083586512845
Ni 2.347344158585183 5.117074670792664 2.7632793160031204 0.08255400874383201 -0.49290592993980265 -0.6639231138230501
Ni 2.359378888701927 5.21746392405157 11.545700764403216 -0.01657075987448759 0.9292465618900512 -0.5335188183651586
Ni 0.9815475057810501 3.211448672125907 3.900367993972504 0.6850814930682202 0.16163831377150872 -1.193165673410358
Ni 3.5769014948112985 2.4036968277366655 2.6959447287209732 -0.10962926769406926 0.3504701572386738 -0.023265912506476062
Ni 0.8205416948270364 3.377284711864333 8.051385109127592 0.8504515059680192 0.5715816866751511 -0.15975909447092487
Ni 3.8422282672343044 2.47640438653398 6.7456876839909246 -0.5943236083573571 0.48595546676389856 1.114608701641061
Ni 4.134628644437286 6.886851619393484 5.913987997304517 1.0206819322839131 -0.379070851694502 0.7856365663751632
Ni 0.6931024342981867 7.954475581001989 11.475084308033427 0.3979206374111534 -2.0000197544034006 0.1723569857405935
P 0.016421144193232 5.612413634278002 8.211066736730148 0.7342060185090129 -0.06909351236355198 -0.09071931816344377
P 8.554052007074665 1.7219103070957613 7.988739165569661 -1.1907431800117945 -0.7343607989193223 0.5485330323858036
P 2.0928994686734717 3.14138221925919 10.655407552708747 -0.20794259615468702 0.02118948959342157 -1.4043450313347878
P 4.036453926735307 5.97244810562124 3.7869129809277267 -0.35141940852582054 1.457224910052955 0.8624480162082631
P 6.708753950403383 4.059071232505237 10.71215502635501 1.053384564723257 0.9616758860633502 -0.44683767482683046
P 6.467006536082415 7.877711065672107 10.488166553526828 -0.9380888427720296 0.2613138126869758 -1.8052085534243492
P 2.4711221746727845 8.240259579430381 6.137205920670474 -1.5030733358456372 0.56620499574427 -1.7898433838221885
P 6.783376537899516 4.138240878665389 1.5212770160243045 0.7795222259473091 -0.34453656536305827 0.39895730620578385
Ni 5.167419050851171 2.5683439160080526 0.7660396150200517 -0.5615050191654394 2.2375297798025593 -2.0685447958579926
Ni 1.4560843565759072 1.0589564146541368 6.8078280962762285 0.5870286173578406 0.5938093877250998 0.8225779194862026
Ni 6.883230309199985 0.7932375605259702 9.29094325162493 -0.03309781099523332 -0.31888441201259277 -0.7688431489669082
Ni 2.7012432773198842 1.5096688562812308 9.194491152155349 0.21372886381916098 0.7260669343416463 0.14095764549370562
Ni 6.255028288264404 2.205985997523121 2.646423538723996 1.548836658123681 -0.4148546941623307 1.1702535446988749
Ni 4.0935417490839665 7.36906673691441 10.283825730590598 0.7892103997693505 -0.5055608996996519 -0.30568539682381546
Ni 8.356368404757312 7.2251219257141335 0.539211272619072 -0.5324852348943216 -0.4546710548283202 -0.4217743041002994
Ni 7.527578472577262 3.919383049076268 8.343025828026825 0.03657137136613057 -0.4625298887511067 0.2396586963110453
Ni 3.408179298076549 8.25724978665402 12.426641193755827 -1.813778297371231 1.054788129939003 0.5111648761499906
Ni 0.3844043460313753 4.742990605014493 10.256634138260457 -0.24389536010021218 0.010841570700194232 -0.09676321036467851
Ni 8.627939441373622 2.26360022586482 5.742576592022564 -0.17487383862517625 0.6573284913246679 0.4324960613931777
Ni 3.8986172402473755 3.1513839331269518 11.890648258466616 -0.10137191278128349 -0.3341086851615149 -0.21663343906046562
Ni 1.0947157183192748 3.400727930485412 12.559995260934059 -0.16578344628813385 -0.3481188833976779 1.0633049091607623
Ni 3.3638795109726054 8.366996360237483 8.028098904707885 -1.0521648333835427 0.3023779297171373 1.0228300889751676
Ni 5.822268106193057 7.755013089466777 3.552430876907252 -1.638076820638437 0.4579594957716049 0.41323309939850766
Ni 2.9436895409764396 8.090424466687294 3.870599735066086 0.7758476053091994 0.7197744164647152 -0.4569372251546776
Ni 3.0907474083079705 4.018220312252246 8.821354617164651 0.3343323711365468 0.09668067795320123 0.9256976681965283
Ni 7.656248434013977 6.305790162731186 11.361258088003902 -0.8918737776685479 -0.569522233042961 -0.021766959363446383
Ni 0.4689279041793608 0.10271633078675942 0.4021514887691445 0.3358516359945506 0.8368082041529716 -0.11156273727135625
Ni 4.7961394583807495 0.5107190944475065 1.559932460247703 -0.7607295187208383 -2.824634501813974 0.2851836773260379
Ni 5.738751072607626 4.825672649783378 13.058329293000488 -1.3898679207645355 0.6641239169799465 -0.3151185172122573
Ni 7.8612381884761104 0.16305244115109202 11.42424801065039 0.2701504371419992 -0.13832483585654887 0.3930424833832457
Ni 0.17213112933795433 4.936626326764676 5.7566180180886395 -0.9086471404721447 -1.535305970627098 0.09155544091149394
Ni 7.9801151832492 8.857152947480996 2.8106885288521593 0.4743528495279637 -1.425677731374293 -1.4514808084803261
P 8.361142362556262 1.7153120802519655 3.468997342203475 0.622428079903057 0.6134166204330661 0.406023726134262
P 1.861398819285991 3.1982068386113287 1.632009239449909 -1.192928103478255 -0.3479134522550912 -0.020102170066513766
P 4.696884700796498 1.1588374138507973 8.230739799325212 0.6575897154058545 -0.7380534172795612 -0.14691669129061793
P 8.210953287162683 1.9593284859222442 12.585633047988193 2.2253401797149026 0.12569352024578354 0.030202234614993148
P 6.473123736760156 7.781424148772754 1.4073436996030924 -0.37375535301885954 0.09586152448601556 0.8098625288020634
P 1.7263030743480268 3.197989015441795 5.938230808477094 0.6937893052548632 0.21969690847713774 0.9840673663846732
P 7.072790922486805 3.876689707847637 6.095030817066025 -0.7422931663925216 0.04227459239849494 -0.40649243824056447
P 2.324690548953664 8.644648293669945 10.241995513671244 0.2679529152700482 0.19837654973280675 0.2657528222949359
