# total energy = -381165.72505481215 ev
CRYSTAL
PRIMVEC
9.23657705023063 0.00000000000000 0.00000000000000

0.00000000000000 9.23657705023063 0.00000000000000

0.00000000000000 0.00000000000000 13.51866416053367

PRIMCOORD
 96 1
Ni 1.3570656069941067 7.76559671859854 7.452663336133991 -1.6366457446188654 0.24232801561309236 0.2879738384766653
Ni 3.4410498262574714 7.249733891467179 3.2120750816811703 -0.6406302047333805 1.4643021286147104 1.1859961522451123
Ni 1.9018112104986051 2.1783358536258866 11.530055129330403 -0.445293213157846 0.8143853563730814 -2.109756751319928
Ni 1.8809827292957184 5.366783771264048 1.3964780811815645 -0.30376349721075424 -1.0429926799659714 -0.01174402790980558
Ni 2.1806357613063825 3.615842809975177 8.468145546031568 1.8330697986109914 0.22040807561154946 -0.7716757333196969
Ni 5.475803089950377 0.2852467428168095 8.867783600735416 -1.5333485897904109 -0.7554039927428668 -0.24160990650014522
Ni 5.81577378069745 5.907742378186204 0.04259262765892286 0.7497578502006829 -0.18985977051104722 -0.32094283720351824
Ni 4.762933311343908 7.490827025106979 1.4333976032285969 -0.5106452562010948 2.198826706805407 -2.3354615565540424
Ni 3.0909835568164947 1.9049331735347808 4.40527272826878 0.42496658578535196 0.576440043208717 -0.023135300465882736
Ni 1.1533344274410824 3.5519626432349716 3.96019810383844 1.9762427065884607 -1.817719027186534 -0.27340442530292264
Ni 3.1366307204992734 3.374592654525866 13.012025120187213 -0.7476806559566801 0.15638015069636294 0.04822206823118147
Ni 7.101523776442115 3.889762738379969 9.783430420487699 -0.31095255876002575 0.9896448604724504 1.2690882928806015
Ni 2.4484133659861547 5.273171063063935 3.5376995209850834 0.18268742113232408 -0.7637068561816073 1.512556592745724
Ni 6.232084780598339 7.428378527806439 7.9385922644261875 -0.13588691583901757 0.8505636060658512 -1.1915628476996123
Ni 8.46441766354222 1.1980579334208503 1.1213841838362464 0.4633269307311053 0.791592783958598 -0.3819551152208325
Ni 4.578358792551321 4.435810699245712 4.5312531733554895 -1.313303811055551 -0.053841214190171786 -1.9119134483827716
Ni 3.0389539184059133 1.2142034700694737 7.641803494952558 0.9679943720822104 -0.11849648827671205 0.4637300797067949
Ni 8.721730226446882 1.4237998760366148 10.812375865064359 -0.6431403727497439 0.6265264183421467 0.7310039666319474
Ni 5.341909669321977 1.6045504519387384 0.7657510294192251 -0.1907437157778973 -0.26665630794581174 0.8133664281902637
Ni 4.270365131482473 5.4505687615041305 2.0945277719432296 0.3872487595196041 -1.9379214424107591 -0.04031721156180799
Ni 4.846903033124592 3.5629634064778264 11.169390811405082 -1.4190262874960464 1.4944999923543294 -1.4546820890264431
Ni 3.372431295500822 5.711298857909932 13.315289653816649 -0.2066462459407667 0.8963289852264241 -0.8645900022519305
Ni 7.9046072029016194 2.1187322220506197 8.411893868260528 1.4435157879969784 -0.6440040063016199 -0.5701601237372761
Ni 5.593911200434329 5.529550731688558 6.960395345026034 -1.6809407098814988 -1.807787884115751 3.60834556903165
P 2.882116840434732 9.11244667139735 9.511448325943824 0.16543968979546989 -0.44850092146186626 0.554746103175051
Ni 1.3485771927034402 1.518871963407485 9.366568920595814 -0.5031232367924368 -0.1766340158493926 -1.1802736479390383
P 9.038655657503842 2.5312654619461963 12.790224424990193 0.0799314835193204 -0.517405971963696 0.3789196708286184
Ni 5.277817061310078 8.76293459657818 4.082623390426263 0.940275051790071 -0.8328330215553076 1.0220124781698785
P 7.891057144398455 7.026171781030519 1.6588208839368226 -0.8024685503308373 -0.665452405983383 0.4057761288998302
P 6.521614524184008 9.156800714295914 10.811984234198281 0.8575860601302715 -1.3782683888523939 -0.6830472362470107
P 0.6033812418070106 0.555086875147404 6.9895681499179165 -0.7928688224575442 -0.3329257205970073 0.9862643740359917
Ni 2.5644340100613032 9.081365589691046 5.801602100560159 0.8514904887554949 -0.8986586618008652 -0.5005498196383057
Ni 7.749543547720218 6.9804507247315 12.461288672820988 -1.1030289672232616 -0.5570238434656343 -0.8339244548472734
Ni 2.294097873544192 4.572742953717018 10.624548223841769 1.9672132493963412 -0.28855310801890305 1.1317001099057091
Ni 1.8110156582926737 6.586778575131397 5.4063708167573745 0.015798914705469565 -0.3717892304314242 -0.0998117673830152
Ni 7.451303711995159 0.7902621338840147 4.944640796626351 1.0027070929730473 -0.4728605812531534 -1.63839075233443
Ni 8.387772547346408 2.561746166145542 3.6318165462910406 -0.39428715442362416 -0.6008724652194684 -1.1236157902356778
Ni 3.130386794426922 2.976376109026953 2.0928781192856527 -0.41976524409007065 0.5015767182409233 -0.679536909100907
Ni 0.3145654856257686 3.858653946942576 9.731599368483264 -1.430754374566252 -2.044876762817091 -1.4052644578252638
Ni 5.463426076730037 8.072906872967161 12.2877897335452 0.43132286702068295 -0.5845624152055352 0.7102615918782735
Ni 6.958347595898459 0.7242095242263282 12.754913914661804 2.218238021452483 -0.047856457361646614 -0.6076187828043663
Ni 4.9218301459928036 1.377413786191428 11.876944016273022 -2.703130079948874 -1.5801951178303042 0.6081831399482688
Ni 5.527934330708289 2.5790185651918387 7.886261513604425 2.672132603126095 -2.1402356366350754 1.2355899040128395
Ni 1.4218509582832626 1.1336235720588383 2.2546290562368503 -0.2430803203980846 -0.4475532128366163 0.8743074866500103
Ni 7.8635968008879535 4.088025864331171 0.5307789753772768 -0.5270650923200149 0.5345176919433181 0.5532438075979117
Ni 6.5280339452199305 5.25515973785523 5.14014772799177 2.344847882864949 1.0709408284394653 -2.1397777231620507
Ni 6.614746930378556 4.2697462808214555 2.9933704871046425 -1.0850996364383505 -1.1343408899626657 -0.7768379942469267
Ni 7.865434879716944 8.86246795065459 8.94085231430517 0.6569986187890751 -0.11682475700124396 0.783638819218844
Ni 9.148792602010813 8.459984106567768 5.408208895586366 0.7405455875737956 0.10782898126053686 1.8203628925672843
Ni 0.29458399853654255 6.745934033937137 0.36510895879220573 1.0243328987729392 -0.26817274459033813 1.1969071427306612
Ni 2.0778326589613147 6.894171858693291 9.484032318003065 0.3353916656389966 -0.6994984398244986 1.1707531100431128
Ni 1.6813987728292112 1.324515909540017 13.48025769054743 0.11200830944920709 -1.0102255128372797 1.4532345579466392
Ni 3.250305274008775 8.273996391489575 11.74163555204361 -1.6329814083934004 -0.01649825476533933 -0.7823596953961042
Ni 4.516427543564468 5.8247424969936805 11.33330403103903 0.825435957760288 0.07602803469985615 0.31377434447953706
Ni 4.575412324478719 7.198249211101374 9.574742893700321 0.08715731184379828 1.0887955972326993 0.9575906602503831
Ni 6.1272403947296175 6.7067617107524615 3.0434428948425443 1.167774229920447 -0.3630009427158329 0.6103233262197231
P 4.853331690737545 4.236707044784771 8.820847010899234 -0.9816070777696384 1.4956791002640952 1.01245363083685
Ni 0.7281757104030554 3.174482213168643 1.4217447376474164 -0.12304811220313645 0.7522549055909238 -0.011557880040928482
P 3.9040517230455416 0.18693723519688768 0.02114991408353427 0.0769232928206159 -0.2463548773842983 0.42195428132158946
Ni 8.44075355319109 8.666292291112192 2.936293983004812 0.3052138565040356 1.4367735841771385 0.003145230497201035
P 4.410456295298074 8.787808698520251 6.999234227779922 0.9915569898934987 0.5735146420318058 -0.47704710853067517
P 6.729003388240954 7.693357449646089 5.508125567609526 -1.1015762939371352 1.3054802012460742 -0.9485072098918761
P 4.865043670411719 2.7519642335035233 3.246737184302045 1.295510748738188 -1.3284743481484023 -0.5254386124601854
Ni 0.8636014791607508 1.0892510560062143 4.730451040902138 -1.6559182196952322 1.2551487999813737 -1.94365680223264
Ni 8.709593364229324 4.387383325876872 4.989739307633541 -0.8863297079218672 1.0280561132607973 2.5321818016303483
Ni 4.312326900930239 3.319579601734562 6.38021453740324 -2.855754106036914 1.0848042166851188 -0.06580867096469312
Ni 5.198142347848393 1.367382863536734 5.590143600663748 -1.7162604682287153 -0.9975371187363337 -0.5667410707533981
Ni 0.3171230938054046 5.66973426127446 10.928569233129968 -2.008685657608515 1.9050902548133513 -0.9176262040423036
Ni 6.769570434557175 0.5586632777734606 6.95243249196838 0.16221192688679162 -0.8246476575310379 1.6479015200383427
Ni 0.07380302144364743 8.716936442968258 12.735960458596029 0.21066847972628236 1.8605258379394152 -0.2614056010698337
Ni 6.713569068023649 1.0777238078726434 2.82325121136417 -1.8199630860257043 1.9770677735929174 0.2567480476931643
Ni 2.3962451789201222 8.16257556277542 0.9126338483250629 -0.5245053020126387 -0.15488839664218487 -0.28494610739393506
Ni 3.9312534423992003 0.4467141168531828 2.508482521043739 -0.28884415689676063 0.6996835592521111 -1.19103834265471
Ni 8.051431831372167 6.473067075313776 6.507506576428225 1.09461991722396 -0.583488465415066 2.7395446140221655
Ni 8.743445419044658 5.145235234619952 2.8319031130682695 0.7992724119910428 -0.5485841973387132 -2.30792504169667
Ni 4.523558181031709 6.623235344669222 5.29524740582359 -0.5712065627239196 1.80789355645568 -0.31480972772258686
Ni 6.788994956051485 2.9981190113558194 5.6148422076422495 0.4753458095688523 0.24081646406457233 0.540589866279327
Ni 6.645569387928016 8.849019494498759 1.1607384675884143 0.30425354947329536 -2.177244866869573 0.11419169025377109
Ni 3.832385121868957 1.966735110443213 9.73660189860277 -0.5284257201129674 0.10768834191761455 0.22861426557142564
Ni 7.149258406533698 6.312036591370927 9.84806336825586 -0.04004210352355039 0.48295781758815526 0.40104015687674155
Ni 4.99194500222833 3.8161102731419123 0.6531396059258889 0.6522595614421928 0.6123629823575711 0.9365662354799161
Ni 8.473783552650746 6.772544612360868 4.351279393581598 -1.1753666975557242 -1.9263291095874695 -1.7159853601904573
Ni 6.327517094473383 1.8925192140063196 10.177161684180794 0.38502732638825304 0.2861267579655975 0.10449888844603938
Ni 0.6046485001755411 4.663750947194641 12.913420042102326 1.2159564460526282 -1.4488487701741175 -0.06655994730842085
Ni 0.6696767734405887 5.105961309087945 7.236959705434544 0.5842196871541359 -0.14823078211635118 0.3507326668714411
Ni 1.4185627368605453 2.3828151959183494 6.475696728794247 -0.06420173148888943 2.3356693016894745 0.0952244051226489
Ni 6.418257227217134 2.978426629127636 12.572884996498715 2.2151149024424686 0.21728829903564512 0.18456098400595314
Ni 7.56928251040069 4.389627814095188 7.701312913442119 0.5444105255769979 0.3125237599018876 -1.3920757270491315
P 6.89412567580814 4.9180062031023395 11.686601255125137 -0.33009750711959274 1.509840993586774 0.7800647287143404
Ni 0.9876948915602105 7.098420286560001 2.7667030394704617 0.6606202747020623 0.6930938218497354 0.35107616625378896
P 2.4004108751606994 4.309426615742787 5.903046502424099 -0.5360261581680446 1.0065120685414344 -0.8398858146370309
Ni 3.542439732316933 6.9760633506422005 7.614550050767531 0.07152294774065102 -1.0309876850852955 -1.5765606064015105
P 2.195303445630189 8.995179089423138 3.6615029048657983 0.006193016184589334 -0.9870912408126612 -0.3539213490120679
P 1.362127251206604 7.12567742537584 11.940927632675965 0.8273470587400719 0.609379474249215 0.6129854464329184
P 8.96109612018205 6.77447505696016 8.704843916320444 0.41264303122299256 -0.2484243583188173 0.12463088330922406
Ni 0.6260524201274031 8.590718617851874 10.250540746738759 0.34782886296108484 -0.25300734970380945 0.588838673983386
