# total energy = -340885.6290403207 ev
CRYSTAL
PRIMVEC
9.09052373007184 0.00000000000000 0.00000000000000

0.00000000000000 9.09052373007184 0.00000000000000

0.00000000000000 0.00000000000000 13.30490036318492

PRIMCOORD
 96 1
Ni 6.464480407902889 2.2385505249112945 11.200051405948026 0.4690993144385082 0.9722626604402611 0.9560986490858889
Ni 4.854021429493725 0.4125661407778209 5.759677569022185 0.860254350991054 0.5352170320031879 0.1847003377972948
Ni 2.9744465906841002 1.7798972476296815 4.625634750992272 -0.10156140308427025 -0.20970611581301304 0.31527689716699253
Ni 4.045146640328983 4.7182999122737925 5.088805109446462 -0.5551307402079794 -0.4663778017422871 0.3756762241906562
Ni 3.916106657948746 2.701040003148487 2.4050071023938253 -0.40533338493545684 0.045064496438806265 -0.35524341025760114
Ni 5.114501292482335 4.753652958520834 2.4583066603150514 -0.11760123015595231 0.4072941082062534 0.741712097078071
Ni 5.651114900083985 3.276106525541852 0.210754698943531 0.18875136793821684 -1.043690991584577 -0.20867381789375675
Ni 6.250134952140747 7.896456046118071 12.131274643077358 -1.5186758182695845 2.01821750835835 1.0883227713613388
Ni 2.0792572800188043 6.497679000058763 0.3532241118253763 0.5005575329477896 0.15173005351886124 -0.6048977843287776
Ni 0.8424224574265267 0.5683304444121211 0.40270201362876873 0.04610373633659803 -1.3775741909988468 -0.6551937043698522
Ni 8.566254914857646 0.2955792836274502 6.965434618612467 -1.7113499183009753 -1.8587970281737667 -1.528982342401915
Ni 8.987627954890836 2.688086007030711 1.1418597592661763 0.1384060827164455 -0.7599885267897556 0.6970186108254383
Ni 7.045946658904615 0.9697134230677744 4.702085145343773 0.8801006962930197 0.013489549846002575 -0.04321561615552557
Ni 1.1198797822744768 7.424866953765865 2.4925533898410164 -0.11224613649162604 0.5263927488433385 -0.09733630925932914
Ni 7.7288267910922475 4.265637290038927 3.714807921645012 0.00022060065123832972 -0.5100934974626827 -0.2536007603134342
Ni 8.166790036679783 4.323325752750092 12.719085170493539 -1.4704210970282547 -1.2920754978043942 0.0048614418573593695
Ni 8.53937423659781 7.240220238576899 8.657871029716716 -0.5242972997668905 0.2688067786299112 -0.07544233739971523
Ni 7.102653345067908 1.1151618005305288 0.31517754343819715 -0.3194713948643143 -0.5200210409890399 -1.92170343789
Ni 1.8889562591559732 6.968922652514496 8.680502797249922 0.3465229996654677 0.3203648532128612 1.0371128241464267
Ni 0.057316660296275766 4.885329192742583 1.8514969385927997 1.3293629214009426 0.9841149317931568 -1.119932942067452
Ni 6.6904162812440955 2.27137640559992 6.751678228779048 -2.0099601534455642 -0.40731981923786625 1.0221562028365945
Ni 3.606165256099208 4.422939710264895 0.1352215384224044 0.4318242321371337 0.9156130302670167 0.1063804217394684
Ni 6.051852451564647 6.258052798188875 4.734748305660112 0.01181910412211513 -0.571129686739397 0.265573102183962
Ni 5.320683458059381 3.0272261706558967 9.137087071362126 2.9036506726078763 -1.0345900577245732 0.4935379070968468
P 0.3758649698821723 5.868023883498909 12.141346943216655 1.7603818840279617 -0.271497438088197 1.2159207077186867
P 4.251665155278911 6.420627722097869 12.378653243466012 -0.8116425035206214 0.6687303054037064 0.6253077154436973
P 2.6129891916419727 8.547201177410026 1.139997110982294 0.728853753058164 -0.10108472055816783 0.24716426065947114
P 6.849200456815466 8.127555336859205 5.987790622763536 -0.0884696028973186 0.35669968308815336 -1.5255820584711144
P 4.99282463421115 1.258392090236976 12.707855646701056 0.8360746684210568 -0.3971063690399742 -0.9767659476272532
P 4.258792125774586 6.660708450147329 8.212835356775054 -0.32149151061813663 -0.9491011347221331 -0.4755921212517035
P 5.060894474863719 1.1739956692142128 3.4819850676309443 -0.39639854433967214 -0.7623344013141129 2.5519782675309854
P 0.3386901827074105 5.856860720528642 3.7708482724290517 0.12456789128177256 -0.6125799834643837 -0.5908508193174082
Ni 0.548099484159411 0.14980546542012294 4.47413208481763 1.4046345375507487 -0.8387709843062974 1.0724503231054563
Ni 2.235759734168728 6.43418169277268 4.751353056052204 -2.838852959406201 0.12849370869874 0.9462981180556994
Ni 6.254689304460049 6.03704398863422 9.08348116279587 -0.002334818780763721 0.25453612764351 0.6401329533819878
Ni 8.834479903946148 2.620688865123907 10.265022875643321 -0.012479363413933346 0.16241118738179125 0.2919438788680069
Ni 2.5702000970971484 5.512084432276774 7.110112119674669 0.6944691049307072 -0.5980758763109377 -1.6869336942401396
Ni 0.4268755339630785 0.24491143228594056 9.28414628960528 -0.4705833551832025 0.5628569052076435 -0.035872802637209183
Ni 1.8035689710617449 1.4510021040920285 11.124785506820487 -1.484699718434456 -0.37451537111333566 0.5218344400486947
Ni 4.561797458123869 6.968013600155354 1.7447251028021102 -0.8429230588014579 0.7438882787937834 -0.36135826490608736
Ni 6.111486286324376 8.273485512072305 7.977018993342332 -0.749838068619315 -0.10357843351429903 0.41270088104412156
Ni 5.506793747546567 3.104904694744599 4.289872625933659 -0.7817511152778278 -1.1472411429641016 -0.5009645385782211
Ni 0.6563285308818058 7.385859517035072 6.458957005768742 0.17967897332330346 -0.41908030220790404 -0.2960944107012707
Ni 5.364481600722853 4.810432368872856 7.293307078246085 -0.6246919362365694 -0.49384798213809783 -0.9099668877248328
Ni 0.7176650207102083 7.387813979607229 10.739901828483266 0.018206495705697677 0.18021761943559286 0.2951168772793498
Ni 5.111046893517595 0.4165805159957929 10.384567806132319 -0.23494560710609216 0.5425243642978785 0.01469154057390373
Ni 8.212869900764701 7.53049883789819 4.334776176265847 -0.2360267559854129 -0.397695922994857 0.5739576431064954
Ni 7.349615599476072 6.174392709577018 6.893734022837484 -0.4477229056452611 -0.11983114792773555 -0.7615376164444304
Ni 2.6377426873814147 5.287584861663014 2.5368451479355025 -0.10255230624262983 -0.4152233903556591 -0.6415257199644564
Ni 2.675813800182291 5.7130940899303 11.145155552084145 -1.4833496321644646 -0.5126954538619041 -0.16305499161337725
Ni 1.340761324498852 3.7000067311334583 3.9286306723006477 -0.9599303641271534 -0.3998525643265436 -0.940313104116858
Ni 1.8324132024173274 1.0101935246203773 2.5474892420086985 -0.09517838237606188 0.7369167325719567 -0.3014690447496227
Ni 1.4692831470343783 3.7480774198848987 8.174077909443026 -0.9412189037605792 -1.324514592169706 0.05646656762816082
Ni 4.033928934217168 2.6054258760139093 6.6642383004578765 -0.2105504660911793 1.7201675165926054 -0.011473033636606046
Ni 4.035783401029818 7.37261462416237 6.116488801456736 -0.16525328481627669 -0.9761247144988286 0.023970908993300656
Ni 8.785100179797542 7.3822596696928695 0.22979389155340552 -0.7682348259589479 -0.22060425078275556 0.08302914860803766
P 0.2150508803928371 5.448568943943508 7.6622250699996926 1.5441351388829536 2.0684630347774635 2.8716322107197514
P 8.751365246749776 1.9778524893564902 8.08786247464962 1.2618205555745945 1.0761773942480561 -0.08507240429031156
P 2.096111110757301 3.613737662250862 10.410512160462238 -0.0841717468529131 -0.15320278140964583 -1.3217655686696592
P 4.017147827667403 6.469171118076064 3.8749720386975604 2.7955812932017596 0.06719758089241976 -1.8538353132931167
P 7.016793349746925 4.374669029994444 10.207386228916628 0.2561734061366169 -1.4376081642632919 1.07459719424513
P 7.231111533938294 8.204606614820099 10.076679044509724 -0.7628059416338927 0.45493407868171976 0.3142551407706975
P 2.1554267771913307 8.925785122898393 5.952732109480857 1.6553988568566522 -0.9126914857448475 -0.5234390655316533
P 6.9655409777384865 4.26987347403253 1.5977058828627582 1.6290057115751042 -0.5418257955689572 -0.8730918690753544
Ni 2.9139764277539597 1.7821607880039456 0.17278812716395642 0.5332611938283978 -1.5563615057458164 0.8116862122743633
Ni 1.4705012771956287 1.5193264794051573 7.0523954763403705 1.678705907013709 1.0585607096075575 -0.4547484450334749
Ni 7.060473315603708 1.1813771743704475 9.004583599493557 -0.7859363570037691 -0.5344708978657828 0.912996418579776
Ni 3.1826013998804843 1.727272206558939 8.976909318524191 -1.3489079334124057 1.6824815720060573 1.5601106883756035
Ni 6.755340800734032 2.090629525031673 2.348114969549269 0.6988785468523125 0.7221004934947306 0.8002669146938283
Ni 4.521753701703655 7.238002150820591 10.352755518824138 -0.462966462067893 -0.27054715835978566 -0.5186951230887648
Ni 7.488973326132574 6.300505543360816 11.320354486104547 0.7371887552864207 -1.3491190209819475 -1.2011538338221572
Ni 7.905946552747516 3.872617593087382 8.208418271361984 -1.187661198652361 1.0055553610551198 -0.18223130743151197
Ni 3.1681201957993483 8.598335372611775 12.007698974427926 0.45217219966586647 -0.21364684562831596 1.1558548527750416
Ni 0.25699182908658147 4.971761891049825 9.999390503883093 0.24779495226493453 0.7552147595501961 0.4845472735624623
Ni 8.516847919138266 2.876387112703429 5.659519089144254 1.5737149094225995 -2.401695487981612 -0.7198957725339279
Ni 3.6972250309144834 2.6043350131829386 11.511292752671137 2.1428280799525994 1.2420541715809448 -1.2273315206587896
Ni 1.4685377240998816 3.7718127769821015 12.56887335866888 -0.9806030619851563 0.01760845711038258 -0.834235558329789
Ni 3.5198143725042885 8.820625945992822 8.040377215617466 -0.6308690115815587 -2.1725155797147035 -0.4452361346676655
Ni 6.206055003245941 8.266058554298112 3.393534273086407 -1.576361603016827 0.43873175789024443 -0.7626830429027833
Ni 3.4391268851068255 8.569800219058301 3.9095114830831688 -0.24123144011480394 0.21493214009864275 -0.6520248197235674
Ni 3.6648900384997947 4.267200860096652 8.986874350485108 -2.019175244285929 2.393174852105111 0.4032955285698216
Ni 5.049667678228312 4.670038322526933 11.252021020267826 0.594035387692977 -0.29876398711363383 -0.7607475164429672
Ni 8.315092838550244 9.028708031000473 1.9659057232526431 -0.4404351137345963 -0.12268635798834354 1.804658337347834
Ni 4.918755047988242 0.5060003603551759 1.5497279174519503 -0.7158033476321092 -1.3891719231387754 -1.9158855456566422
Ni 5.9834462615391955 5.668295989671772 -0.03352948721460144 0.9943312102045262 0.7471234979016295 1.3504156283061841
Ni 8.475049691664909 9.134249009896884 11.733019713589515 -0.6491300146742756 -0.4662209644494487 -0.8461343666499039
Ni -0.01486482417669349 4.951808191766654 5.751761541078774 1.11480667658448 1.0409748782049941 -2.1848980125394566
Ni 7.279200403736916 6.3554668489945545 2.345494171597862 -0.08861666999814416 -0.18502686789877812 -0.15244147776358907
P 8.914912856683053 1.8358312392877019 3.6427355234551397 -1.0471473255642936 1.7647244772673734 -1.5443027748090694
P 2.1238099361403644 3.360948382220595 1.3207958075350117 -1.1520146530933448 1.0068321708850143 2.0921655206007257
P 4.976516234888139 1.2485561437110573 7.922722204983127 2.176545526809703 -0.5507380104569224 0.4689612461987472
P 9.030926118756781 1.9352270242363117 12.360039487360215 -1.0078382435520254 1.7653988776265788 0.255130052473767
P 6.498578961894314 7.844512794316684 1.042287618159893 0.853038549968905 1.2449906285014496 0.09114997794295915
P 2.212997063095807 3.51605089573744 5.827665594962431 -0.017127660819222113 0.19632043853472642 1.239501066141788
P 6.649163485186222 4.162687110366071 5.576668966184392 0.6810507746422723 1.6480326462995682 2.1803129642719354
P 2.3130200941722245 8.715939476314004 10.03024465000474 1.641964071507985 0.21541962125802255 -0.6295032415822835
