# total energy = -340869.47871038417 ev
CRYSTAL
PRIMVEC
9.29258409483405 0.00000000000000 0.00000000000000
0.00000000000000 9.29258409483405 0.00000000000000
0.00000000000000 0.00000000000000 13.60063613158253
PRIMCOORD
 96 1
Ni 5.179286789247068 6.334912546366411 0.295815475548879 0.6336866835360119 0.8522253100389904 0.3942683853705468
Ni 7.2076720438627815 5.274322046709753 4.5051971639906245 0.7456201738832255 1.2755903556651773 -1.472019037642994
Ni 4.442050338082544 9.944737638742184 7.937385218950079 -0.2201784760992466 -1.0672399825491103 0.11642906422472206
Ni 6.174160134237048 3.9388383245771843 8.223583799226823 0.4990652646729792 -0.07796973180725926 0.32416777189871915
Ni 2.7322892066584363 4.9211295107127135 9.847078155533195 1.2932695181124954 1.1077970780358664 1.4137933212318812
Ni 2.757035358083403 2.559986112508333 9.043484290658366 0.775722906805877 -0.027214869851895068 -0.04822103978991695
Ni -0.19124045126198425 6.331753067776667 5.447993009237535 1.9510857477068593 -0.06815737370252778 0.9411682530283016
Ni 0.5749535504359529 6.453532382243128 9.961187371093846 -0.7693645686880168 -0.9158431439999518 -2.760435855648878
Ni 1.911168598936207 5.814713689149132 7.720088361906794 -0.46698303942645375 0.46671204515325426 -0.42237028581308544
Ni 5.075247017803613 0.7911929114100829 5.301949828460248 0.742565960437934 1.3699117893575827 0.5839132116573105
Ni 6.992130555953622 2.090701323506372 6.751655206420928 -0.35715682523023007 -0.3859161567511096 -0.033311212557620054
Ni 2.9442902200302656 5.714669728863294 5.447177120354653 -0.10958504471969514 0.318660983147877 -0.7200556951505599
Ni 1.95914621057988 3.6379630369926708 6.414862222821476 -1.1854091693933908 0.8527760403361379 0.4873477191257349
Ni 1.4865811393950372 9.127045994548237 13.46770308913544 0.2281434965825942 -0.010460533211691662 0.28810265074504576
Ni 0.35884335638063886 8.155459865281488 3.3964320499076397 0.23466124309645395 -0.3339032540189282 2.8540530641854076
Ni 9.32352839249397 9.071569267545964 6.050623592119646 -0.19992846760095892 -2.150754533888528 0.1903426236847367
Ni 4.550513379551642 2.7741615905566333 7.182862702866021 0.3681012400568757 0.9765700295663633 1.2410851227994562
Ni 6.092180957417276 1.8939773183743642 1.0131109705200736 0.9765710580076278 0.045212591980896326 -0.623973570013306
Ni 8.152727845559768 1.4564545817834187 2.8953034337546923 -1.8439975012670888 -2.5868563103550932 -0.2089905778032272
Ni 0.729439043856717 8.440881585528517 10.860516225013146 -0.5350457965326463 1.0978425379263157 2.794667266027923
Ni 4.472093262437376 2.744927121017413 2.5278820930028982 0.1994543561780178 -0.10698411676173833 1.5011509220119437
Ni 5.73022551462574 4.259832056711097 5.830279696754075 0.553222467441673 0.04416795276646587 0.6855358069968194
Ni 8.689950716825315 5.258180828149796 11.561519961562167 0.9246874817644591 -0.3671753858084967 0.8278227128249097
Ni 5.124367617290046 6.497867300924507 9.088611866762408 -0.16970952081541738 0.21129968555237802 -0.1596701343015444
P 0.5184880924867733 4.206539086969385 4.816937340890223 -0.46460888276732243 0.08590132794951012 0.49315352717423455
P 1.0977887137588507 3.6158931497849 1.5587557107441063 -0.1586630331932687 -1.7106261527610733 0.21738420118356108
P 7.858552511102329 6.632944303220155 2.6936329861129176 -1.1809593611521532 1.0332160601951819 -0.32086724677057643
P 0.24144177827779176 0.13804784142841603 1.7435062212793926 0.558804846625457 2.500019872185823 -0.30807163766780493
P 9.066504809218285 7.233988641998533 12.54231597091802 1.6595547880065546 -1.3898604645653676 0.515574318071596
P 6.550853615391333 5.677434344424751 11.81524003119475 -1.5093146887696587 -0.8001836109514026 -0.26188099804435544
P 1.683230803854345 7.750879339280667 5.200203466769584 -0.0855395737347172 -0.5485469163428746 0.017746011129511373
P 1.606678496141663 4.127394148296295 11.884059050429828 -1.4077412015005304 2.039737641818313 -0.5424755133378142
Ni 2.723266107509491 7.082854054399715 0.26289370864374545 0.8848986319022955 -0.4146819160298923 1.1220859838547126
Ni 0.8487864890674829 4.097639294048175 9.278367363087213 -2.406405748973088 0.7528627143782518 -2.006149264339906
Ni 0.49831203391603096 1.8187073872657546 8.11125597203574 -0.1701736049360295 -0.1810599128312301 -1.1645894044345622
Ni 5.223184956476337 1.6504930301141436 12.221776646145985 0.5007040858279828 0.007982761095160447 0.8037384181821965
Ni 3.424177847476045 8.786677224591921 12.177343226073276 0.4237504539900638 0.5159101041444599 -0.8412628974902157
Ni 0.9228530305367634 5.357258359690537 0.1932597297841942 0.619888601310655 -1.1218676971963195 -1.2459892449692929
Ni 3.8185365309806336 8.194721033051101 4.993337535364496 -0.5392816889908647 -0.375097983089683 -1.782068882083092
Ni 6.362938979974259 4.657582533407617 1.8734741608437424 -0.576836250205871 -0.2424588847640018 1.58877591752078
Ni 4.413652201111198 4.886403123977789 3.597327496036518 0.9714838732927075 1.3829580810185795 -0.6657066880860342
Ni 7.226963448428395 0.8715802685756692 8.972707323956055 -1.1551606549214946 0.02367446079880439 -1.794407091933471
Ni 7.196130654426128 3.408659232049949 11.106129444287811 -0.11899271118684022 -1.0113143750260842 -0.5242916433399357
Ni 1.9586444110391559 6.450660973760096 11.672474344825119 0.18535622621373884 -0.26941227342439406 1.1537725163247163
Ni 0.674244811410705 2.5600790383492082 13.163076385354811 1.4379318661512979 -0.8550722925694821 -1.0733581796317062
Ni 4.973400296204803 4.352711434665487 10.410497750599763 0.9152713306568818 0.9859967221969018 0.5268959137320023
Ni 2.4748846274351672 1.3862212312502247 1.4145208668302443 -0.937437839451592 1.1686175517573487 0.35708714833455923
Ni -0.14513157827830406 1.8891451746488732 5.580028548761349 0.12931877570319664 2.1060350794939664 -0.7998696792554095
Ni 9.146355984282025 8.580827901886005 8.715206101858275 -1.0657271454490096 -0.43716801294755037 -1.1430733847396573
Ni 5.717875670373475 0.3823582404140137 2.782839934835933 -0.5884347536767479 0.07962012292648868 1.7180371005131638
Ni 2.01134265539927 8.357173988068473 7.338916784480752 -0.7810162939943323 0.7451365493785876 -0.11646891632372199
Ni 5.906728856783385 8.70986472452479 12.54815078446655 0.280721013568994 -0.1488586455083372 -0.7566905727647742
Ni 3.940873400492343 3.181455551110998 5.111608899337932 -1.3452034879776251 -2.223375856899681 -1.6543513894287443
Ni 8.499954542572645 -0.21741022656915288 13.304713022757813 -1.5845346257459227 1.662514641965827 -0.05591018090405855
Ni 6.67460295768434 8.498811554729883 1.0744327329133718 0.5248994521272637 -1.0715046713627352 1.2089363059810534
Ni 1.118594809530724 1.7115824779052546 3.4571590869193383 0.9341591687003201 -0.3708888301043419 -0.2928856739559859
P 4.903324919601096 2.279870457775256 10.250921779615876 -0.5432743550900256 -1.4170593935776628 -2.02227265226433
P 5.226167875968418 6.36116409641355 5.064019717709116 -0.07035078180942078 0.43241712852612624 1.1498217592070843
P 7.415008180022695 0.6360606541368301 4.974704975010685 -0.10239341206726237 1.5118937623507445 -0.45705086791440636
P 6.451915472611906 3.393828267846327 3.7017807874718667 -1.5777181170447216 -0.5776168371256375 -0.03773093889187051
P 3.8899500396929376 4.889330287965348 8.015399250139723 0.9783574604840891 -0.27715103682954845 -0.282434653825991
P 2.7508743748334017 1.7672450565892759 6.818420564572673 -0.8280093749144192 -2.3286895279375313 1.1642140233730143
P 7.3923621526015 1.9050540786066434 12.813200372618592 0.7603063151404906 0.09341589115900041 -0.03480913725938521
P 6.637256062236747 8.038494109372344 8.729146836506317 0.2554411559562827 -0.2765457991453818 -0.08854750732310557
Ni 4.339060628640975 6.548353910271801 11.434312848730208 1.0739644457571376 0.4216963996745125 0.293951653326655
Ni 5.709252152340292 6.999648256480395 3.041836333713389 -0.3812838001854208 0.3279048703436481 -0.8952354950519292
Ni 8.4830606247016 3.572218004573731 3.159998974453001 0.685173024340762 0.3584305497363311 0.9646401108979968
Ni 7.026317972811471 6.305817465588503 6.905464199720123 -0.4778657477772287 0.07479570495465182 0.20269883125724447
Ni 1.9263248035828915 0.29230845431426306 9.381297599990623 1.5101554395033994 0.8938363007115575 -0.08128234112026002
Ni 2.286310218547882 3.8905540576586244 3.58398520380371 -1.2414016255986104 0.2797591638763569 -1.0104075469410985
Ni 0.41802039036654587 2.416480736445339 10.571339371536366 0.13355261127888612 -1.3473076788048217 1.4690445283957023
Ni 7.449251352385068 7.8703726780616075 4.634212613686007 -0.522354574218223 -0.8363274078618114 -0.8161319067505427
Ni 3.4438037850688086 8.740939125713332 2.3402072062552812 -0.5786491350448938 -0.9606207053259584 0.8196324637046335
Ni 8.277573712775096 3.317090108451895 0.8111719671981708 -1.5153778642446032 0.5981434963240795 0.14677733749927627
Ni 6.61535344154255 8.76748803845127 6.631684228817892 -0.569086173946807 0.01607685095720457 1.4564330102792789
Ni 3.7474854330477414 4.713858422641413 12.945860373793087 -1.284855325906871 0.4184758358546858 0.368561724633062
Ni 8.003228752760347 0.7122040881496629 10.9863629035347 0.08502740998498905 0.03836702981397263 2.0259259327462016
Ni 7.840878016167937 5.836811454109165 0.5008247486532863 -0.5618014673599357 0.7153937708985163 -0.6563761547137277
Ni 7.443239050480467 7.504867468148651 11.15366379967051 0.06623110321409238 0.4089455277667473 -1.3960491098745826
Ni 0.2457990709564124 5.414956014289715 2.5218437718628524 1.4920885546993594 0.4218185270746736 1.068553302043895
Ni 7.413205418709723 5.453241460730144 9.37293241579507 1.1136951886878563 0.7148798073765753 0.6795955302529845
Ni 3.2749761173674234 2.9319589609461767 11.669576917106642 -0.23428020560795135 -2.2576869714767245 -0.672094593890249
Ni 2.4701082392142015 6.524602065344195 2.775345465769379 0.14640324198930915 -0.10640150478539094 0.3066883841670331
Ni 5.99102188704094 4.142884885970128 13.249916512910746 0.999529209465698 -1.2301273382363718 -0.70406420481831
Ni 8.527014547435392 4.0687207723679295 6.652547009352699 -0.08927281552490432 0.5125134197580851 0.6497504218670939
Ni 5.17337670576743 9.012319751404176 10.16835252370655 0.5613448394384912 0.47376303846276474 0.3586794325223436
Ni 3.962153418052678 7.322584138688592 7.067720151954841 1.9328699960297808 -1.1362442776329658 0.822730643013983
Ni 0.3230483224756557 7.4057806440238245 1.2806110130959842 0.055084599678969656 -0.5872605308629887 -2.0149702050656457
P 1.7765933961812832 1.002130853162304 11.681926761358906 0.013414473633693027 0.3622121282659504 -0.2322976279602838
P 8.053185684814654 2.874809568808158 9.01397104359652 0.016240373118262354 1.2892118031033537 -0.3803656592465256
P 4.013197582445221 2.508570244752292 0.48047398950169923 0.6801699146992157 0.5597201593508747 -2.6043374978589924
P 4.512023496261289 8.493579829888631 0.582671970779016 0.16408651820168516 -0.44367753193129394 -0.6180533478741291
P 3.289481841127984 7.922940826244496 9.92892723617574 -0.09568360414725456 -0.7465709678322691 0.05253020868823211
P 9.074236239179072 6.391532261211443 7.912999619787708 -0.49001292466272384 -0.19429132391983958 -0.31475804854904504
P 3.6310679395997587 5.101452104930314 1.4714119251306306 0.4513666730454356 1.0439344750539505 0.6896431442969736
P 3.5657968289692805 1.0810713549854691 3.749273326226173 -0.23004251337751996 0.31747673303178875 0.06177743831811296
