# total energy = -340897.8282574556 ev
CRYSTAL
PRIMVEC
9.02937747163788 0.00000000000000 0.00000000000000
0.00000000000000 9.02937747163788 0.00000000000000
0.00000000000000 0.00000000000000 13.21540663320965
PRIMCOORD
 96 1
Ni 6.203218229861525 2.0473570959000553 11.301987424218975 0.8608251358928595 0.05109836133771199 0.631667596223454
Ni 4.716775072828241 0.345640946125215 5.96041286026846 -0.5966185750391209 -0.25472973171155483 -0.48821238111887527
Ni 2.7842535957126167 1.746904570734784 4.641527855286024 0.021807068572762444 -1.1456334321573496 0.9613167029517187
Ni 3.5068656208501534 4.188854478122368 4.755405457153248 -0.9527379601437721 -0.055557168440013995 0.1471357492799595
Ni 4.978762451270627 4.521117499039924 2.617681451648187 0.08349657516275942 -0.5619912147732385 -0.5221589132676491
Ni 7.045334061777795 5.9820978124679165 2.4918841689854503 0.5598795677468744 -0.0787120092899225 0.3489573201385732
Ni 5.051250291151222 4.666165413818434 11.144022985405938 -0.3962594476586466 -0.4058224087567333 0.5462635196253366
Ni 5.705744694956022 7.913734410621371 12.35902139435422 -0.9906686737512747 -0.30726533971642567 0.12255291773427278
Ni 1.7620739243719785 6.586253438577859 0.28514050736886987 0.6635767862272249 -0.2898638564105266 0.9696144241841366
Ni 2.557146701258615 1.478939744609171 0.2927513693812458 0.6051626079543899 0.04650302865754572 0.6077884756130113
Ni 0.2685526385790541 9.039038598563438 4.856569695972157 1.4002047839141691 0.3236363248752814 0.3018886487855446
Ni 8.438341223907692 2.2578047894846383 1.1669043344166414 1.1804826786260507 0.5980162267175958 1.352789527854999
Ni 6.894651815648328 0.8104308445065797 4.83045583427327 -0.16792388966990435 -0.9235916775971191 0.3381599724127531
Ni 1.0157056079133355 7.634853067503277 2.6820004140076095 -0.6123735238805325 -1.2999109346884128 0.3484482417126386
Ni 7.623033612794297 3.8667224183839393 3.65762822843639 0.34227939389776535 -0.28518933375299277 0.09851747405162388
Ni 7.552107855163246 3.8348848345001603 12.486325680065793 0.4499032011260316 -0.3826333722347797 0.040217709869466226
Ni 7.819413536755814 8.635226792990448 7.048687572456875 0.8616612586409096 1.119125358564492 -0.002272855194576731
Ni 6.856177639548275 0.6843834480963724 0.30639024358897354 -0.4568449225511874 0.16472620866821308 0.34414215813811694
Ni 1.8460381026292847 6.519327695030902 9.300818301331029 0.17465478063583467 0.7065144661310155 -0.19354878932686023
Ni -0.013056479380585507 4.817154658771512 1.3508526118973911 -0.5909778318135757 -0.49198470367711394 0.2599295307449394
Ni 6.415381505107458 1.9333070329289797 7.115544692737378 0.18300109571800094 0.14132737012829852 0.010748496765755683
Ni 3.379488197183542 4.386191516063375 0.5606240958597756 -0.3424974234458424 0.2802340466302464 -0.6074118089998829
Ni 5.776950363279187 5.372813500128257 4.761762138677406 0.7660745850828355 1.2833669142868025 0.16880526383359315
Ni 5.111042826737831 2.9570758746506574 9.244374761734917 0.38593466869387083 -0.34799084246024586 -0.4954302390235532
P 0.08970234744566163 5.5536358072344845 12.472343689525795 0.4076823447836076 0.16690059061171256 -0.8062650412587921
P 4.0449081473579875 6.0848340658512505 12.443335912445528 -0.8748828995375062 0.5690085266313362 0.6243072992036409
P 2.486365413662204 8.400390751683208 1.3911597515619372 0.537206808739707 1.0433886298528094 -0.02211740072432965
P 6.331444414981646 7.731882754518335 5.797228538516337 -0.8162270375675104 -0.1419269513855104 -0.6242890443711958
P 4.689894617008046 0.9615744918091792 12.519469814825348 0.06556415905405483 0.19064884207124586 -0.05451535743906095
P 4.11133727516087 6.189322018404595 8.1996442209247 0.06449046637390184 0.15055094560909554 -0.39952834821790545
P 4.694427364344874 1.2366905846494693 3.640659319930211 -0.1117375722863237 -1.3789983250398832 1.3194947703576114
P 0.2293019360428126 5.617338063133537 3.520161378725611 -0.7680252810513032 -0.3516893743577556 0.07100152801954224
Ni 1.3883028566269322 0.9805993894958276 2.597052033639319 -0.2768749003500264 1.3034086634290263 0.30304307410496195
Ni 1.8233743659451427 6.603716254014962 4.821799370385187 0.4881465608779464 -0.4732675868835849 -0.39200735725051195
Ni 6.139606267734122 5.632913738743157 9.16131623000726 -0.27634293910595636 0.07345693153857026 -0.39056368282544995
Ni 8.645646694238854 2.322906598844266 10.018242949287275 0.2850962598185542 0.3637907856069799 0.8859275873874419
Ni 2.470627209263615 5.159539611491029 7.063529159702981 -0.507386640054481 0.5504441333655875 -0.2781026021095404
Ni 0.758467681859739 -0.16247641858238707 9.011360848739574 -0.04131531380901917 0.8367513827731075 0.3657440526786088
Ni 1.3273094138773782 1.0428388862941511 11.397045998198914 0.4524676194190982 0.46855526900958017 -0.2990792043612075
Ni 4.064736659612321 6.8044844552786685 1.5864832383951502 0.39609284017379526 0.24307492108144588 -0.05353448158303038
Ni 5.776697540718567 7.880127068813253 8.05551730261702 -1.5098132256726322 0.3125165608130359 0.010182854070272786
Ni 5.459504550289392 2.8560190854200123 4.927139696142906 -0.5467335172832197 -0.45769312948409563 -0.394338833597166
Ni 0.8221789671359571 7.346057468258017 6.929352615031127 0.004823389530572339 0.11374406119339121 0.1847864697531979
Ni 5.009733214946566 4.50437703377602 7.0213980858511045 0.7341612813140065 0.5300198040729646 0.3549626457923887
Ni 8.188940797233313 7.219727452342545 9.168663434206419 0.39290698624664594 -0.36383629413293467 0.16845173714891634
Ni 4.637045672461319 0.38276252152595025 10.292726985726016 0.11120663948351817 -0.6171277507360663 0.1717985421339622
Ni 8.17937868681558 6.999988529655181 4.864577850579793 -0.4078754346310201 -0.10842239187016164 -0.7116736417344518
Ni 7.341028105177114 6.138170596764887 7.0441945543795725 -0.28884981332371545 -0.8780980640406942 -0.3862324024399477
Ni 2.1313303035345266 5.293373039830613 2.5004602714167645 0.7567584498882322 -0.2120062247010994 0.6555246053467098
Ni 2.115501805364287 5.325553740046662 11.41726548248449 0.5898794565430745 -0.4388801105426506 0.4821666891454277
Ni 1.1327082772173653 3.301284761557504 3.867885402162791 -0.5857471795422557 0.5470248232713935 -0.6249865846588527
Ni 3.5186399286733088 2.490410574632123 2.3781257548968044 -0.47640047608561176 1.0927666660653053 -0.013295174447009362
Ni 1.310605066122134 3.337411299594656 8.270240406289227 -0.9626598472431742 0.28243696781883615 -0.23017646785222295
Ni 3.6821800078857327 2.616000181620065 6.9231015772198 0.16891762104174138 -0.21811465159168245 0.27751381948560594
Ni 4.0608359686770426 6.876475679415188 6.012428393302858 0.5123501547073434 0.5307407413993892 0.016028257107456267
Ni 0.818158185484384 7.533182280625412 11.48088376517591 0.3107252732405681 -0.4911478095981154 -0.6485435460431862
P 0.30435773078913275 5.59367206558408 8.106356307806818 -0.12404081513370897 -0.7106300309612859 -0.7881233373527589
P 8.582441054083876 1.4866237445765835 7.978907552060602 -0.5094512358929936 0.37004422271585946 0.043854021070472864
P 1.8891714373464747 3.2123273377279546 10.421880487880982 -1.1253088616673845 0.2526389106207972 0.8398094528731408
P 3.8978286227173533 6.0755789542571295 3.8602727342749823 -0.5133423434172837 1.1429340309483154 -1.1747216077725575
P 6.898236478382831 3.9180363688126167 10.308981670498444 0.6218205282260452 -0.15543989827028068 -0.6310250775434487
P 6.43602266130664 7.714284498423755 10.211690131545602 -0.9075294819279338 0.5451036949892806 0.3989771037001258
P 2.3865907959889885 8.507470135482908 5.8362535066234535 0.039055828350881124 0.5707383648382494 -0.26046457731280304
P 6.790163863094984 3.760952294273166 1.4145106238483358 -0.020024522751042932 0.8623467147437083 0.8841645819497482
Ni 5.090419729292978 2.7424475794386813 0.48131546446874185 0.6189486059948889 0.21601688852238926 0.05955934762087162
Ni 1.5231475752089958 1.1637332171562944 7.021212983619223 0.1523437758434602 -0.05432098204006774 -0.633506963425038
Ni 6.924223025863692 0.7505976767227277 9.361701585679171 -0.11573589481243939 -0.6461097397907131 -0.7226987892003618
Ni 2.7994229493498115 1.6635363313703677 9.258264652627831 0.08718148021351438 -0.7647226990406313 -0.12236368454160217
Ni 6.485323060627523 1.7471573932954039 2.6298395080008556 0.6776816010597232 1.0478032139807374 -0.7375047438649428
Ni 4.18665131009411 6.939609084552847 10.305082785438596 -0.10262378291051358 0.09975623155473141 0.26256619703683814
Ni 8.254521163582684 7.165831100044679 0.5503224794522307 -0.3724775147477004 -0.6572775834820745 -0.6444904590197351
Ni 7.823747637795013 3.839236994293689 8.097422642039769 -0.2991825627082912 -0.003044957473910885 -0.05741324781214629
Ni 3.1458620924164125 8.38333425821853 12.399856752582918 0.4836214193140833 -0.8654868030345868 -0.04996296218168815
Ni 0.012143609349204321 4.827529413134093 10.145203215728863 -0.07669626441147437 -0.1420588489776844 0.6364331359328975
Ni 8.626712090323856 2.4930471527643023 5.944302645530672 0.3137424628003371 -0.12239505200016985 -0.2659222579932646
Ni 3.6805276318645386 2.751359574700533 11.623042279261622 -0.5031895712539979 -0.010941843723484381 -0.39307822171718754
Ni 1.0607621999666699 3.335867276099442 12.589617240144776 -0.1438082275686233 0.1533933001538971 -0.7241830870553722
Ni 3.140832729335509 8.38086020887532 8.091370250526072 0.4965931489834028 -0.4386445974930768 -0.4914424580203988
Ni 5.653907040651774 7.75780609635904 3.5791548144331187 -0.2924611848240576 0.31650999824314524 0.47775750433413844
Ni 3.2152980028152385 8.441329947749304 3.7115733393709474 0.46479554485683183 -0.17784603387962272 0.018739228280716117
Ni 3.2537721789152902 4.539401987799042 9.397540989522478 0.9794290962817133 -0.2646392775157829 -0.45499372827506157
Ni 7.206806413619436 6.053727861517837 11.45692431286859 0.5533373957529826 0.19524803140615407 -0.17977179014742586
Ni 0.5489454994345686 0.006200473299203367 0.46072848453254894 0.02067526896116439 0.481961258002841 -0.5027370570976115
Ni 4.722021140961106 0.37973948605110935 1.561954935326436 -0.8487275812983769 -1.0450832439464128 -0.19843337111267118
Ni 5.9127792839722355 5.545870542872587 0.25435304004938 -0.07328261074423509 -0.02209734611967162 0.5865593910309059
Ni 7.922411642076933 8.75790894053126 11.571779796282783 -0.3061440816277889 0.0962729009918213 -0.9134576744869106
Ni 0.15916173422511673 4.930924811050473 5.774868188904939 0.06172344515172597 -0.43870501841736703 0.20297959572245688
Ni 7.936849616163763 8.61116350284573 2.5739386339723596 -0.18368603760016752 0.9271264302232548 0.5165857900552459
P 8.555939832104611 1.6951030339391968 3.703432452918986 -0.24500761932778448 -0.13128207007715453 -0.5833313710119115
P 1.6120147052668952 3.2506660731705312 1.4841560157973899 0.7126462900603662 -0.45645822863573 0.6520078504427029
P 4.640567129555668 1.0300984351143405 8.089428031497881 0.913460502700388 0.1773258997100946 0.6047820846865197
P 8.52778623410415 1.6474188931308482 12.335695804323882 -0.9111102573006565 0.030661433639598806 -0.3703005617010397
P 6.340717585330098 7.769228258472761 1.3651118043163544 -0.8566900306785633 -0.5308842089557889 0.16317351946911254
P 1.854507658410052 3.315442824952219 6.050316562824901 -0.7366105141854474 -0.5253504236217533 -0.8886380443400695
P 6.927581954169071 3.9974136234701043 5.969002506765521 1.197778746702337 0.2422976765957892 0.9536404173533833
P 2.5141849247075596 8.601014482912275 10.280436197529022 -0.38734903254289416 -0.6864536908253985 -0.3646181666042817
