# total energy = -340866.74989036 ev
CRYSTAL
PRIMVEC
9.28511385111807 0.00000000000000 0.00000000000000

0.00000000000000 9.28511385111807 0.00000000000000

0.00000000000000 0.00000000000000 13.58970267480427

PRIMCOORD
 96 1
Ni 9.05141666629743 5.481383302540328 12.837756967154121 1.0208472542171838 0.5424171492960529 -0.918584968411147
Ni 1.6790085388474836 3.1074954251486586 6.680466598878172 0.06244309692656988 1.552815954486403 0.9524047451740696
Ni 3.372158305849151 3.8816417792885534 9.888370314989748 1.2509015946692457 -1.9550550167672525 1.6404512344078843
Ni 5.464224412435974 4.929457574410989 2.2327337220104937 -0.1238577525886254 1.0002833140229033 0.0956478658133127
Ni 4.8429388850211765 8.196851942463914 5.799840417931614 0.500922372486376 1.421403015258339 0.819861548996304
Ni 8.75381948732846 4.982651990757225 7.193613978180766 1.561729197815633 -0.356266966426109 -1.3841603288567967
Ni 7.355147101094969 0.5267574989535478 11.145295227077094 0.33396547471543125 0.5553418277775211 -0.17600332424392914
Ni 1.6621189170402217 3.763535133115727 2.8027542797044243 -0.6648880488394807 1.1843750717019215 -1.9909651004003002
Ni 1.2210945868580718 6.506487709570096 1.9727496100998194 -0.26898521318930446 -0.43246212283144875 1.170489314858765
Ni 3.523180680063069 6.714112136855519 7.584671397536308 0.13012815897836946 0.2227187260225971 0.7046236768662058
Ni 4.06950748463563 3.23577855592883 2.6593141293320737 -1.6043966547771724 -0.7378186755609357 -1.6031190736163294
Ni 5.268652062723847 8.454393140962003 1.068396249622598 -0.6020181487881373 -1.8023906243595798 -0.45417380347692754
Ni 2.8398613080664594 3.2950361515164857 4.59753240160825 1.434511270505523 -0.21795524319568269 1.0394227032265262
Ni 1.9163546150636637 5.272217546381895 9.078260858494776 -1.4547959888964879 0.5078666650146931 -0.8571898531331174
Ni 1.071864239586871 8.92068226550235 10.81624843951913 -1.2251273139186192 0.8171590624634766 1.0935379970136907
Ni 8.730625273323765 4.836235032934952 3.2104859062295548 0.7501247466217984 0.33951083001369275 1.5140979690909149
Ni 4.544673177866325 1.1594878575061296 3.6890471655377177 -0.2430677219925943 -0.6595437538084318 0.3500053017871133
Ni 0.8894006133862843 2.39654355480218 10.579283981475728 1.0684106058184437 -0.9524967906672434 -0.1499251390996386
Ni 1.574773852531748 7.641657854314697 13.10009299836319 -0.14277027322241218 -0.7543490691157911 1.7782942455320083
Ni 2.8644390040113867 7.07980633964772 5.374863549744786 -0.9321195125624722 0.3167308560046997 -1.265740459454291
Ni 6.115008746052899 6.538846330789616 4.482699686523515 1.8298680038442423 1.4782711892002929 -2.579073838196197
Ni 2.0346841039651187 2.090181228507178 0.8582471999240933 1.071176598599355 -0.1612315652513933 0.46914765117794044
Ni 6.99066924819653 6.80780821912989 10.770518326070563 0.0835863066630883 -0.5786267664473905 -0.09683571547382677
Ni 0.11341673524657758 2.9923228749027664 8.487666345880267 -1.510553446272766 1.514795766488888 0.7237987071327598
P 6.941476715851905 6.476719635070875 2.517655792277377 0.8184420429409582 0.18019062285239937 -1.1139972933093072
P 7.170540470654077 5.8686375393272865 6.19547725536046 -1.0865201709349608 0.5325340858543861 0.5177204178803213
P 7.273085266277717 2.468419619898395 9.137050484352313 0.34425271557405224 1.2915075411160661 0.03063032329134725
P 4.189619715366109 1.1024122636362892 1.2926920985435022 -2.5267765714543775 0.7417102973058581 -0.2748702112151718
P 6.6072961889331765 0.3944483428761643 4.59863268758085 -1.7352524359501855 0.0025695604993891227 -0.31590913143435273
P 4.67467405467967 3.5036076603985786 6.028051799296786 0.39097043134556536 -3.2063353349321555 -1.410485339904571
P 1.5371691420757772 5.5965094272177565 6.988843794844518 1.08890512622737 0.7376854924171811 -1.416038408512316
P 4.6656860646250085 9.197146525706433 7.823292319862514 -0.40196318291164324 -0.08006029578770084 -0.25163772304979243
Ni 7.613180410618781 8.564328887085138 2.61729527582653 -0.5072963943335198 -0.599600283375264 0.8963858066062885
Ni 3.774185158521405 4.334941029772628 7.66828848889711 -0.9692285015996276 2.227122725536623 0.24325078453767784
Ni 7.035943462562781 0.4780143661116552 8.558740177153423 0.60607843490044 -0.3844850807315378 -0.49529217078379223
Ni 4.554784666677819 3.2824641075763914 0.15147363073938944 -0.0031370029670849202 -0.0396986041412026 0.6191224125685918
Ni 5.613315483001783 4.779178009292497 11.033601808931905 -0.7358345552513714 -0.9071988380613923 -0.8347981157014784
Ni 6.407824091470059 4.0288572568884105 7.300130016930831 0.16307633176961592 -0.42087827464859123 0.9414202211381077
Ni 1.424494287413257 1.4040670372890256 3.1348456560422653 0.4404497690226156 -0.03354903960003899 -1.3050983924266233
Ni 2.436042428451489 8.959568321647932 7.224938237734905 -0.07211173036458547 0.5580581982674195 -1.2543080492476333
Ni 7.320179362927764 8.376556032874989 6.239752391493362 -1.662903906984446 -0.19230617516901075 -1.0308023085473668
Ni 8.05433473239263 3.2764194985623574 11.464666926167123 -1.1150591589149186 0.07811319936365903 -0.8467000093453869
Ni 0.5326479750802806 7.287207924204516 8.22084560475756 -0.8157814653896596 0.2346501873528604 -0.39674307216328447
Ni 5.3520973794813305 8.840960279335691 9.852860326182883 0.049976589028442965 -1.1597919830459187 -0.0820816970931038
Ni 2.4540926894703547 8.112487399450838 9.23766861888469 1.4276564523672186 -0.7875432964795728 1.4452371415634593
Ni -0.029666866759968567 3.1727883446366554 1.241685254983297 0.5338342927230484 -0.2906763250094929 0.14752450007794593
Ni 4.446120981130602 8.094975675026157 3.3706949719311607 0.48610767607104666 -1.611924330612785 -0.8213476466235274
Ni 3.5795877457470255 6.669376459083453 1.2690800544226295 -0.6780747227330838 -0.5452330214782932 1.0527983532024836
Ni 2.619376998316463 0.6247052347878668 12.676610104969539 -0.48564256350917007 -0.10899086277912198 -0.052566204132490114
Ni 7.838335132556272 4.922419458231822 1.2208067483335943 -1.7073577664224466 -0.9433122959544981 -0.5074347196835971
Ni 7.039926776337005 6.598837450359006 0.015832975869017683 -0.9008577263347131 2.853138779901254 0.6015226972089576
Ni 3.586681572608349 1.614207730385207 6.079706743792751 -0.47207665189927733 -1.1198606940686198 -0.4531386773441938
Ni 0.2619785543318948 0.6184767805227148 8.574436661851156 0.8696396488606959 -0.8605410289935373 0.2527669515582292
Ni 5.550984514781798 2.3085206769941298 10.542917905186378 0.7806182872249653 -0.20366993692126215 -0.44494997088581434
Ni 8.162153472593799 5.002011452806781 9.298822234688425 -1.3200347020214815 -0.228407034656626 1.4221059548626347
Ni 7.263809437698578 7.259612566309418 8.217448181657353 -0.7144396345153632 -1.375477456370818 0.5752930740884672
P 2.7936957227856976 9.083134614672144 4.150308401013396 -1.8057484850882188 0.4066132800891449 0.8001738407593896
P 3.777620650587753 5.558681874033157 3.758490530846411 -0.4391701309792436 -0.023729739516772038 -0.4327164049340999
P 3.206725435183958 7.821956192002116 11.808717528941331 0.4635089648349243 0.714399525306047 -1.1519118089668936
P -0.11658203050446413 9.136124758517138 6.527378286867598 2.524745914177594 0.17402023237562933 0.0969133627892976
P 1.6140591685661216 5.011955809571805 0.5364483721147569 0.44159519548096854 -1.1511628466160109 -0.6032836457641222
P 0.14592484679655285 8.227929217993823 1.3913000059613814 0.7502419889259531 0.594651424010421 -0.11122515142627941
P 0.46262986123400135 3.0637068289732614 4.693176500735376 0.5666976191099724 0.9695231500219109 -0.3867335104460824
P 6.714502111630618 -0.2577185441696233 13.105963047239799 2.594755767707828 0.5936921454209453 1.9169787787208212
Ni 0.3518454557193417 8.49310277994742 3.8652099135863485 1.7567108629342778 -0.30837502784083665 -0.3360544960339761
Ni 6.2286121120847024 1.0649561149994036 1.7780082780632005 -0.15871316970491375 0.10379903416553736 0.8883739920454055
Ni 8.509240307545564 1.3091360348935082 4.230420361955153 -1.2082048271316677 0.4116865808469943 -1.074103542438163
Ni 2.8319132507453952 4.748379287173373 12.072616244784903 0.709006893535566 -0.011723201974199165 1.011777944926064
Ni 1.4925820261227964 5.22817825213679 4.738498069181461 -0.7045691694791866 0.09022669479774138 0.31099446774155476
Ni 4.845130171852685 5.521485708579671 5.800805141244299 -1.313149287755558 0.33100562075615897 1.2588653296010128
Ni 6.793731986771556 2.273395091894145 13.370500578905437 0.9941494332110234 1.282627207907301 0.006073459887589541
Ni 5.069941344583542 0.900247483202251 12.513207888668969 -1.183424277752878 0.9976733872038818 0.22500135140918667
Ni 1.5436408663196814 6.446877279662112 11.02126189283413 -0.36437391180395956 0.9047953708262223 0.056047992033503476
Ni 8.622388703006418 2.0180544653412564 6.598316555480838 -1.170725342128971 -0.3754435393545598 -0.07527238748075424
Ni 5.371298994598108 7.845382533849131 12.13946349230508 -1.8773303110912634 -1.616842336739693 -0.923387274895797
Ni 4.873551904866445 5.767596932121885 13.324105651316463 0.10544659707128937 -1.253713353086428 -0.9038995984848305
Ni 5.911655471066179 3.011849468998793 3.942345067078184 1.1905220651399238 -0.061617258591164854 0.17220040555807117
Ni 4.159210968022084 6.444277447828118 10.193309233355642 -0.48206538768087304 0.34475973711745783 -0.25723270063906667
Ni 2.5017996036241277 8.745082195343505 1.6123906336355198 -0.21525224244222282 0.892108262276857 0.5598808532984552
Ni 5.778386234232956 1.4718483672467018 6.637251822728992 2.457517737157555 -0.38658387224209556 -1.3598646895342257
Ni 4.372889289435234 2.3025782042307172 8.278439307971462 -0.36670590237124584 -2.001531563062237 1.5529522229539512
Ni 3.5377675936745083 0.7283141044407055 10.456963750709091 -1.256546708770165 1.0640448726505805 -0.32614057935437374
Ni 8.843996511513248 6.722162330427204 5.239903493708099 0.7525616381980652 -0.0526371665797416 -0.17336562951076595
Ni 0.930089838611014 3.376225185646612 12.628122312754199 0.5368977621397205 -0.09324568412972328 1.168819640465826
Ni 1.3756824447300373 1.1661452840238904 5.421938147656077 -0.1437704323521524 -1.9220235402335804 0.5219619667654947
Ni 8.595164749659034 7.9335354032488805 12.538661170835129 -0.0506155081640225 1.2457264782262094 -0.43891584887659246
Ni 7.709968435752865 3.803043291878728 5.133523946129318 0.44956741505316766 0.3483353702838582 0.755286493328396
Ni 8.488190954803912 0.8340186242540166 0.8485535412287762 0.6361809107127754 -0.029616537314852222 -0.9307578563282551
P 8.302247267991252 8.211086021755024 9.881602395619044 1.3759168579010819 0.9558525945133539 -0.09819582904614702
P 2.072344525103247 2.18991263468189 8.733204677907633 1.5186534496720814 -0.5247631836597156 -0.32157558569151073
P 7.396391576118531 2.677093265031109 2.145461081388824 0.8359242588861217 2.1568750449639693 0.4033425797576731
P 3.827797404983819 2.719182685400718 11.836644365395264 -0.9048215960784675 -0.1555514841474805 -0.6939541129675016
P 6.880770642528166 4.775686806543993 12.656661038200488 0.17561868721100077 -1.529773727954959 0.8788300571107123
P 0.41469917584023164 4.631591127144928 10.742170873966346 0.8073333346223064 -0.5063371157440442 0.38549963803898124
P 5.904543073977468 5.589378459901661 8.906487183688748 -0.6894873354453996 0.3554295581264782 0.8282654567892832
P 0.2911904505209146 1.2140193302241338 12.366670224368688 0.27542659793927404 -0.1164087525097479 0.4867584222811681
