# total energy = -381175.29292827006 ev
CRYSTAL
PRIMVEC
9.17247242856494 0.00000000000000 0.00000000000000

0.00000000000000 9.17247242856494 0.00000000000000

0.00000000000000 0.00000000000000 13.42484056692798

PRIMCOORD
 96 1
Ni 0.06676826184445621 6.2426380260395895 7.803886405284184 1.2573445220811121 0.32288350586965686 -0.4613831767411732
Ni 7.947158591287872 0.43735174417234474 6.473566028271757 -1.0786333119877165 -1.2827161680766812 0.3878313714959514
Ni 5.861897864909035 4.810503204242919 0.4016754123715957 -0.3402798469692333 -1.44662245194676 0.4330275084166156
Ni 0.5619249277312425 6.984636016704147 10.249369389051425 0.9156030029646876 0.6326273890335621 0.1383538893222714
Ni 0.8935886919812911 1.7306804568270806 5.542418813132085 -0.1726287513447414 1.1841493288443607 0.6351270155269643
Ni 7.0222981888018134 9.023896793480011 10.676843297585199 0.4447831062906468 0.12973709418753787 0.759707505214227
Ni 4.040043031401289 0.3351694832407277 8.010400954702142 0.4884124129448234 -0.40791528673002003 0.10637553664346196
Ni 3.592985894073431 1.2182877978597473 13.241953667737674 0.20182028530703308 -1.3128687804006616 0.9511976122398457
Ni 0.08955543528387022 3.764740441693697 9.539557604400194 0.5036256303501521 1.1727886524159026 1.612307682094133
Ni 3.435109297350332 8.049761868707382 6.1643243730555 -0.04634850535755243 0.07037135063471106 -0.285559829718534
Ni 6.3494698132830205 4.672384113291465 11.563567311145182 1.5054336085476976 0.9553185763867547 0.6567271102952431
Ni 2.8629854974429096 2.232607324668394 3.6160748418581963 -0.07609874003679153 -1.2789415315255974 -0.7501663984930114
Ni 2.1583102973934056 7.549770392564218 8.318501554339017 -0.36399210298450857 0.575304386942377 -1.0201363441930884
Ni 7.622205407921081 1.4631194339120916 13.421135166343687 0.8587759666733146 1.7797140086976704 -0.6588534126096266
Ni 1.8850531690540009 8.966578012808235 12.24307875012972 0.025878924649290917 0.7584348091493905 -1.4156745974149942
Ni 5.713496432281623 0.3466268186443312 12.621605593645281 0.9982647409309774 -0.56828836063586 1.4460730072011934
Ni 4.857897369666359 2.5004618667034815 8.420207763947724 0.5243147832683874 1.2126250676865504 -0.23741540880282339
Ni 8.894509896351495 1.9409226990702917 8.171418206010298 0.3705479018251554 -1.20116360401417 -1.0276182543924304
Ni -0.005298020117781886 5.192600891303931 5.532726261438075 -0.8372244657547838 -0.4193142725955811 0.1139248097456296
Ni 3.9244240154999037 5.749204867736133 1.3196949848648536 -0.8496680908347755 1.4769740676554242 -0.19811583987225234
Ni 6.949643034104877 6.3322163925047175 6.876875057996154 -0.5147582499282037 -0.7912968499847339 1.15657553299115
Ni 1.8796230653321746 3.7568245979235346 5.036289118389858 0.026318069069238545 0.9346620764786678 0.8274887265242588
Ni 0.6310633564704959 0.26010196827548027 0.8341428149360477 -0.02397682253057161 2.170898870046887 0.6149582538885732
Ni 9.127316420952296 5.3457811821054495 11.659903955350583 -1.9103126795545553 -0.7974250743696589 1.6283271974508406
P 1.7842110063550847 0.742772147343817 7.972153578858778 0.39130724585969384 0.992285126308775 0.8808419453344185
Ni 7.951854897209452 1.2172421359943957 2.265737378102287 -0.030961738488836998 -0.389877969612335 1.2072406634461854
P 3.0645047183356864 2.2748832504351126 11.603573049967386 -0.6234830035301326 1.368596670090585 -2.459079939438352
Ni 7.878750291359864 7.421043913455923 12.272143563750246 -0.20721857350446893 -0.1588666645636425 -0.8877978078269614
P 4.7162560492737216 -0.04455253344198438 1.5506761874375397 1.5265197397940355 -0.9552733249711162 -0.44542279675717483
P 4.762375241019232 0.30139643948436884 4.808053236837345 -0.5314706775868782 0.17434239160173845 0.6089814674798479
P 8.388427898466285 7.441351767577754 5.833200867435884 0.2867767328447706 0.6564877405909274 0.15247618765626642
Ni 2.7071818795055083 0.35227522721173093 2.079964540755556 -0.1670602561180284 -0.7941867699380193 0.7421584405868703
Ni 6.945121005160856 3.504480706891164 2.361442956199475 -0.1347808272590324 1.9619514867767696 -0.8654405231776837
Ni 7.964109320473573 3.927184929723332 7.637431712276202 -1.3637447413149222 1.7585900822348615 0.30396430036765076
Ni 5.823153341056004 1.8683959589883985 3.4028350356009773 -0.9455211306803588 -0.7702708825523702 1.312763622281365
Ni 5.485835664755054 2.0133485419546506 1.051498309605401 0.1466043022565217 -0.3309732248563268 0.5583484758143288
Ni 6.842783729443937 8.99662703272834 4.219736353972976 -0.7750405360268716 -0.87497031704499 -0.3195521275035787
Ni 2.022768671215319 4.190141371441772 2.7102739199862977 -0.3510355428238406 1.5199035200290985 0.10840902213372297
Ni 4.995897218475273 1.2680209437714742 10.521101135213568 -0.9168595010796081 0.6688904851306545 -1.1615305630035802
Ni 4.195094506593438 3.7996508720404383 2.2683148428756534 2.208315105911816 -1.530143966810184 1.242907006499543
Ni 2.579354302702516 2.6455795541747893 8.972116351705598 -0.007159236752600574 0.3728474964926095 0.09003000540590302
Ni 1.0859748820027466 3.8199954160522815 7.337359777821278 1.096157436914409 0.08288619527227016 -0.5258502460763073
Ni 5.609012797998982 7.2101504256649935 13.438399594088994 0.19238793624953965 0.2705918955547921 -0.5066590178598371
Ni 3.23292048596483 1.8010424933982456 6.204679583080074 -0.38404233676716437 -0.9266410059464041 0.2976411863631003
Ni 4.411335545853667 4.136977720813892 10.208517031017188 -0.3444139237422649 -0.09104841936808836 0.11910429706404005
Ni 5.654737573426861 1.7547490246751758 6.351305225030887 0.9585008307694783 -0.298692253335434 -0.8600820870792478
Ni 6.9845534644516185 4.172108290500708 5.579968163817964 -2.510820562345753 0.38367749722857797 -1.4881293129412954
Ni 0.789179354725925 1.5637873196334493 10.087559636119005 -0.07817027785383956 -1.003508248718104 2.2017801330067757
Ni 0.8970861557467175 7.146475121548578 4.577508643955806 1.687211887602191 -1.2848087889396518 -0.044129129108730444
Ni 5.759138655456974 8.38365821276468 6.716944744679614 0.6477081946260845 0.72189531946246 -0.3850394105731111
Ni 4.328939225358455 3.3758642974529063 4.843280117485444 2.0163413743815597 1.498138360437865 -0.9236832088696609
Ni 4.615193747234731 6.717166718514188 8.02359739089233 0.312688567614526 -0.5098147898799995 0.08504437926585354
Ni 7.875567443401294 2.283221027940417 11.232349329058781 0.08005232536790084 -0.49584007286746223 -0.45096995182764915
Ni 4.909162318486101 6.058023671969998 5.461077326974728 -1.197176594341964 -0.41620503754263805 -0.25903890060987
Ni 8.899829930403286 8.657089618081644 8.814736902992166 0.347357322641305 0.4346691577850966 -0.49860220899363167
Ni 4.1505713250634635 5.672275340852759 12.247334777371153 -0.27553766959584164 0.5616945094684261 -0.12320829193008458
P 2.0671817830752564 5.310476335441075 8.64292548604238 -0.15655164327722068 -0.28279846492331295 0.08208041154152315
Ni 7.765580325616802 5.979553169706106 0.7990388454194912 0.9744498978995669 -0.20990691896990948 0.2843120733543619
P 5.680824085225635 4.722135604148199 7.804007481921226 -0.19864188757905143 -1.144103111555752 0.2425938676799693
Ni 2.2199309676691303 5.950705743683904 6.435291135010885 0.2714439591424422 0.220241211016382 -0.2623414826205417
P 2.6674008662596282 5.640052444949422 4.268388065376589 0.2936701175304942 1.1970896910551123 -0.17654762678317337
P 8.178112276443049 3.739195105772606 13.17100367567906 -0.7818889264072728 0.877727568075153 -0.07850040749974868
P 8.08094827521787 2.4437484692169074 6.087507667583915 -0.45369969205398636 0.41625928781934113 1.035913404521687
Ni 2.2859911146363485 0.11143820293448008 4.524910017634115 0.8010199908097689 -0.19723318015698288 -0.6710018750467024
Ni 3.604772521239895 3.666283121845583 13.460818951381034 -0.2816137005865924 -0.07608074231466251 -1.2324873538281162
Ni 1.40680045274315 4.998557235501167 0.6233841624909131 -0.08587253159410373 0.12245573003477622 -0.9482285023091928
Ni 3.31355569173945 6.599107824926981 10.040290216321607 0.587918990382594 0.07888607297394155 0.07383102704853736
Ni 0.7753720318670313 7.373099399682299 0.21815808601337322 -0.48698390802841296 -2.4228484679101436 -0.5865290520136027
Ni 8.760527590498933 7.43039983540907 2.559915998973978 -1.174512834195861 1.6186673057635734 -0.11449173799269315
Ni 0.7789465444014836 3.1291981668999447 12.078302619589802 1.5518049967233853 -0.609653296735892 0.5638781473833062
Ni 8.937180238435847 5.282408569581635 2.9684469172943793 0.12765707173005758 -1.276007388597938 0.4507005002163464
Ni 6.786905026955144 1.0211071564609295 8.679723611230257 -0.8449457456584416 -0.12073129114450175 -0.6641473140187142
Ni 7.048302148348059 6.440148876448519 4.3989178525789905 0.6159172753677328 0.3261732323645221 -0.7832438977732704
Ni 7.651190421030829 5.758102166064125 9.325136383684578 -0.5908883574235629 0.036309118843679405 0.8302035543522605
Ni 5.911612665875756 6.679697168339087 10.657202282214342 0.11937297734439442 0.6540462210289704 -0.7532987734744059
Ni 5.717367215677926 7.121030682825021 2.3623024168730145 1.1975753724422793 0.0020895355391770463 -0.029231128950975467
Ni 6.742363500480162 3.519945495531365 9.666932061061535 -0.6063406874228913 -0.48370857971125086 -1.2613911813466598
Ni 9.291439471449994 3.2451565642839455 1.7164732141670522 -2.4064990800178423 0.29091389494159575 -0.16805424460018153
Ni 5.639336992094181 2.6525506332771336 12.193742772277378 -0.47039695020400923 0.6774041790286205 0.6958032503610985
Ni 3.815317455075708 7.820972887062932 3.5230274462924016 0.21524607179463578 -0.4428228972404825 0.4406917098300927
Ni 3.6239154713538335 4.034099269219291 6.844238483582926 0.5028363016796373 0.8573888565178008 2.004238677580755
Ni 1.8155808623156353 6.856184711770944 2.4307153030372737 1.0584390964280288 -0.5733945715141737 -0.5824798216448935
Ni 8.375311262786873 2.7738474096579298 4.088078352652696 0.9174338855258394 0.28540890596296653 -1.2874390274736474
Ni 1.929952421956602 2.2853215241436233 1.0863527878698735 1.3381206129889147 0.4929010448437963 -0.6409438793190575
Ni 3.1394988535209096 7.905029425081202 0.4714834316035743 0.8622551834711666 -0.9484863839562697 -0.5516450956522241
Ni 9.148422280181894 -0.01806059835857433 4.307212389740397 -1.3452965619120638 0.9138592808007036 -1.2706422676312825
Ni 7.692246407954637 8.57938960350801 0.8400242043050258 -1.6079342356167854 -2.02416009909503 0.16318791764681573
Ni 2.656724108266037 0.12928508268373254 9.861270153231645 0.4358289824211526 -0.37093176752713536 1.1889632052932364
P 0.9197696802468467 1.3926565001433928 2.987335789919982 -0.4012173058845542 0.5733161528677546 -0.4956791218095657
Ni 2.0131650925045887 4.814584954506792 10.839471235064895 0.8927111859681787 -1.116659670632819 -0.0915065899514295
P 5.697307018313678 4.894238705723582 3.598381142399745 -0.19708277062204768 -0.3613924605781324 -0.07336051517002205
Ni 4.501656882591544 8.308948424227053 11.231074355380853 -1.5895400493803142 -0.5536888655551303 0.581678923010153
P 8.963239232817111 0.20945249236069527 11.88616592082043 -0.850992980293786 0.5520641854675137 -0.11787865218705505
P 6.85890893610436 7.897929931363815 8.856716557897034 -0.8623996794688308 -0.901189398642519 -0.9081606877540295
P 2.2493562594590273 6.799131932801755 11.912599152079821 -0.5736493678374572 -0.12511810735828777 0.906867937084535
Ni 0.998607081410862 8.795474710735686 6.429424421597912 0.2426136651743112 -2.4185477836522606 1.083730781115282
