# total energy = -381178.19829861 ev
CRYSTAL
PRIMVEC
9.12149664238388 0.00000000000000 0.00000000000000

0.00000000000000 9.12149664238388 0.00000000000000

0.00000000000000 0.00000000000000 13.35023235114369

PRIMCOORD
 96 1
Ni 3.1093358505245496 6.08778734256759 6.569422444206194 -0.8338447506492737 2.097228794056246 0.5586984029545797
Ni 0.5513507021594887 4.579237705442642 10.233393647910455 1.052045019976227 -2.204688307792506 1.5147235184900558
Ni 6.294033508127936 5.759951623828729 3.6988691385509 0.23186619684982004 1.7396191975593136 0.2084169646879443
Ni 3.9075215549836 6.104990485650462 8.885955185570316 -1.3421307625895724 0.25629219110266827 1.6929264214884652
Ni 8.468634846160247 7.029107575794627 4.268202871775013 -0.2121044408418605 -1.4472186907698625 0.0984447118321595
Ni 6.664940935052014 2.5641166185561035 11.223099773394862 0.3141839212131298 0.6289489117407104 -0.7782389883595113
Ni 6.939607448578753 7.123743105744147 12.728325537063078 0.7648797934437859 1.081685468550479 0.7080643271166387
Ni 3.0326331834069102 8.863960520185518 3.5145820645375876 -2.1878992612596253 -1.1382170850886204 -1.338176663037831
Ni 6.739655115853605 3.5985308487628798 6.755698004535554 0.13170887320192803 0.14790605178708074 1.0356208129819326
Ni 7.537494203431876 7.730605413510073 1.949721778681039 -0.7134605584315454 0.007557500632283758 -0.3645137798159335
Ni 5.609291860149094 1.8854225229971686 12.960672865895766 -0.5889644009279729 -1.2045029528000482 1.7912613472156378
Ni 6.998149215442948 0.5991382242226725 9.783250514189994 0.6350755934637385 0.3856125094677617 -0.5014625612605622
Ni 7.77318456086471 3.2422178168189686 9.437386156902196 0.05000204294973969 0.8800539022154844 -0.9631198175987283
Ni 3.9376863451082325 8.603496177273852 6.632449251077731 0.08995004409758701 0.4750303352109625 -0.5841155574761037
Ni 5.493540064962645 7.070500928557125 7.632033957664339 -0.3857042978506196 -0.6877950353446413 -0.7919807634256361
Ni 4.18081984398095 6.887222692096818 4.556835309148086 1.638984677164687 -0.6413966505857599 1.1445700238898415
Ni 0.12057797917645233 6.177688815645418 12.198093836589576 1.0908241976269537 -0.5576967011629428 0.2856832426702757
Ni 2.438686915198432 1.2399762835024268 5.396684362676768 1.0843720142437068 -0.40725862698262766 -1.1280481149754185
Ni 3.241743498982113 6.99566816829632 1.8352159799660224 1.1600735188420797 1.061367325818417 1.009734946354106
Ni 7.877552727966627 0.557085387237008 12.432470698474194 -1.28548498907107 0.34699171177177013 0.6111126548902378
Ni 3.3899678229994326 1.0359283986859689 12.808840989869287 -0.40685599222757024 -0.7408407502167111 -0.008208761063037476
Ni 3.1578530923367416 1.3044014158430008 8.116393650415803 -0.3246040881051893 1.2538241676326791 0.44157128422156855
Ni 4.585175799900197 0.6459342395768913 1.7720295468993896 -1.6349277334864938 0.778516410390614 -0.022747578109160824
Ni 2.112173813504649 4.6705165245467235 8.345324066523759 -0.1530307746081558 -0.6796968317175391 -0.22086238954014864
P 3.6759176281452146 2.5881426412922033 3.0941029507640003 0.151953482383577 -0.41820098492674435 1.6768094613219446
Ni 5.800560527861044 4.78303930984381 9.296313998574844 0.3098834940655631 -0.8687029959790393 0.4013314628649153
P 1.9998060936542263 7.966970761710737 5.771932709957761 0.6581653854036665 0.13947231919743078 1.3912432038455071
Ni 7.538643512036566 7.64485422150473 8.322361610321838 0.8260247403842226 -0.11038568624411955 0.9586602391654779
P 2.157179279024738 2.9156135001565593 6.817336519584602 -0.38745958997882946 0.3305898733749791 0.11578603132408445
P 2.089853510681856 0.15997554842541276 1.1496141748330373 0.24199300087117678 -0.5078203851577899 -0.1749334882185181
P 6.280989767614411 0.3691004583955962 7.368087027250532 -0.06639076872040824 -0.4912966764711539 0.014612864817168383
Ni 7.362452678638501 5.181046703946685 11.160794476925158 -0.7702690827801574 0.2687044487240921 -0.6037258755078635
Ni 9.025237706213224 0.47985640975039623 2.061195591838926 0.4160008919516319 1.3446617565415422 0.12381327250393515
Ni 4.582886304187684 4.473309762377219 7.337795448319509 -0.5160067776233241 -0.8615748695746904 -0.12878012959090726
Ni 1.8910596080582582 2.73653115225305 11.381593990729789 0.3882232076177314 -0.16406749203829163 -0.8297492404236613
Ni 5.560683403368277 9.047959354897971 11.616157843300089 -0.17926553993496866 0.17033147067013246 -0.9525379283178239
Ni 2.1717007020300043 6.512949432830439 4.223879694220246 -2.7605968067067748 -0.20551238944663958 -1.8228710037011187
Ni 7.951363880578821 4.38683797211973 4.911710793186451 0.6071320729759351 -0.7986301504213535 -1.9872542272076161
Ni 3.475527463570661 5.0667999557425665 0.28272991675328246 -0.6956867793878923 1.3803746365621195 2.2209271382488716
Ni 3.0966569698855295 4.252241164415141 5.235040492475185 1.794387037328813 -1.7750855087867237 -0.64641544395659
Ni 1.8474588530550098 5.166434065972793 1.9973679175428523 0.9639356286318044 0.12753185900610292 -0.020758572703590057
Ni 0.04273877354973239 3.9277074275405437 7.291563141471399 -0.33947612012101536 0.44294631019222425 0.5802607025063877
Ni 2.5444962788046412 7.097007998439853 12.988200631277419 -0.410292528712945 0.8779545964842944 -1.549796450933789
Ni 0.8135262378825786 2.2370835915411518 9.187749942916128 0.866804493404746 0.27210961775089915 0.1664953847534939
Ni 5.557864860837732 2.263189315561925 8.377885073874198 0.08333099611917262 -0.1315026707283929 0.9211234185622845
Ni 1.7523854912560852 0.012436248822474686 11.06205609768684 0.5054421147336006 0.047687021663317876 0.31994833450073284
Ni 0.3580287855037671 2.330642784860884 5.444638808132538 -0.5435900865582316 0.6817056346174518 0.305258593699042
Ni 6.781513664956097 4.141086603647445 2.2252967932952945 1.563680922225365 -0.32486351241416306 0.14704524644868225
Ni 2.522011789038322 8.163794421012012 8.62485142572858 1.0754579995835283 -0.05905721117347248 -0.44200991442088394
Ni 8.184710013317964 8.723927300350816 6.23319677265311 -0.39297306359789097 -0.3675055154544058 1.518884848956597
Ni 5.53372938013928 3.5955846052762586 4.448163619826391 -0.4075753868920981 -1.0981464423199798 0.054446966094970746
Ni 0.6930020755376157 6.825743803242865 7.392304601420746 0.4978349918103039 0.10072425189495555 -0.005704763694261143
Ni 8.202706726627882 7.8817668595171515 10.824421949272587 -0.07968440050552084 -0.5496905430290147 -0.24268539895251104
Ni 5.39740860952766 5.877655419343775 1.2079707753109208 1.6280901417393703 0.5894282279382688 -0.1878370836540636
Ni 0.20375873336591332 3.7320057123533688 1.42033108021827 0.7093938445613396 -1.09342049759922 1.3867591999322246
Ni 2.582222789828373 2.5582606175703115 1.1155909915355233 -0.0604548628519475 0.34349346881052456 0.5690303810082071
P 8.968438145249786 1.1024697182986671 10.775559914878988 0.8080126200775181 0.5224160235837777 -1.1645228128626848
Ni 8.514908199744239 3.674978113968366 12.65987873675578 0.3958557844623247 -0.04227896327386912 -1.594818524170434
P 3.3505903210435704 7.348560638916754 10.72896822105449 0.7668124916901244 0.43180314909121115 0.2130953440002201
Ni 0.3796731854090409 8.236091405145014 0.0002864150014857746 -0.04825215013816851 -0.10993060098457197 -0.30778855920974735
P 3.4729095939710937 3.5423424280892375 9.635570743535371 0.569617878080561 0.5742484348740368 0.41761451629565494
P 9.197114071595276 5.48056017492716 2.9885298339265316 -1.3393038346637387 -0.24752910019805754 0.49275783439771265
P 8.5750188640688 5.842364347982359 9.218068886337738 -1.9628395458086776 1.706140606185894 -1.4737771579846812
Ni 5.313180707498371 7.903494265043874 3.001519757608567 1.2416816187328745 0.467611159928756 -1.311336402916535
Ni 6.280862066658335 1.8091668092257969 2.8634777605389723 1.0897721022133555 -0.2359884465483097 1.0617231664959392
Ni 4.359436995544467 2.2514499490997535 6.26428921900867 0.8418845902346146 0.1828298602474593 0.06313112413252998
Ni 7.730769600453599 6.113628543179347 6.3843217326727375 -0.206560885315812 0.04604537229483682 0.9908234541615838
Ni 4.682593386392812 0.7886500916388842 4.382801709758028 1.698496716487391 1.120141458533832 0.47387565278122895
Ni 0.8995355682491333 7.567038731769852 2.204016341114839 0.510269875139547 -1.312002318635308 0.6619947864520858
Ni 5.10449910227571 6.003012150726545 12.03014792420562 -0.9724259254910027 -0.8142025509383138 0.1465482522076057
Ni 1.0822291167605482 5.005229851919988 5.4623281269981865 -2.242407419609835 -0.032420839532866744 0.43221838225175885
Ni 4.748651266671791 8.052566888269416 0.14521879080109157 0.1745938454909122 -0.6087811785435837 0.6171300647289113
Ni 4.900670133383955 3.186038517642189 1.4976156988357436 -0.5916172651697875 0.20079287248378322 -1.570359105576489
Ni 7.709297596839029 2.193719995456331 1.0436114354933403 -0.5405734112190949 -0.4869882789037871 -0.6869974791440103
Ni 8.133036733591311 1.6852603958441803 7.715740110073086 -1.4735295607502494 -0.3603264812074633 -0.5971783041973328
Ni 1.550462915208614 3.0248069390987955 3.5078805007926324 0.38175971138057474 0.2948196577539052 -0.11084797059251877
Ni 5.672631534363019 7.107260560913421 10.112654218239536 1.0623674849481575 0.07617741579352687 0.2826891930389583
Ni 6.100128727822693 7.758106726550825 5.441060444913338 0.6207270380515504 0.6795294529017394 -0.09582964280681561
Ni 4.106862747418954 4.90723761112503 2.974431648375691 -0.8591022396644817 0.2582922522518326 0.21258215180922743
Ni 4.205849231371936 3.647212277518599 12.294763460339457 1.202576939421929 -2.487758024099335 -2.0862892643256075
Ni 2.7706273075254644 5.193451939679827 11.225863586944234 -0.2792346588314546 -0.026281302294032156 -0.7881084249544232
Ni 0.8542418634281854 1.6131549631452935 13.145280104448956 -0.6356540916750278 -0.7418067136744063 0.3053807210992031
Ni 8.134158677705411 5.675431833899838 0.9158402438910384 0.019808807195811046 0.424676822459075 0.08703595577458559
Ni 3.9037726197730698 1.6529155679693857 10.502988609181589 0.7640308151799293 -0.06088706529335965 0.27837719592716575
Ni 0.6042690662078875 8.920906025098757 4.56337633454826 1.481159052271049 1.3150557607496514 -1.1161554773028906
Ni 1.278213598350464 6.8566383131165045 10.109063084924728 -0.24365444773399975 -0.1435786280563205 -0.08032511941331327
Ni 1.0143195726184593 0.7810153987648843 7.156258505610272 1.2626085986935287 -0.40885888159021194 -1.1033560115453773
Ni 4.8197533347157915 9.034240623616615 9.157592449988986 -0.35002664194335203 -0.3255877921746973 -0.9349104450440481
P 6.54766584988951 0.2926915034769326 0.8438853158903845 -0.16305679138559015 -1.160992174001607 0.6462709479589256
Ni 0.3972466612645343 8.878627887140585 8.943027479289945 -1.634381888285353 0.003365574038123236 1.5846649806761999
P 6.39236324430681 4.021439929300665 13.144532141706224 -0.3688771989909518 0.7388661429888436 -0.04452867853999428
Ni 7.213252354456882 1.7839549918975586 5.338330498647943 -1.2559617828009724 0.6694453291928599 0.53609686350498
P 8.554340430681279 2.1681706827441762 3.4254157841068857 -0.712639862302463 -0.16541037921943127 -0.37318251123452506
P 1.7097607364171354 4.085582295238498 12.992953843292522 -1.5137053616381866 0.2711068875179976 0.5162836854337947
P 5.759741829400889 5.323506241946839 5.784495747586624 -0.04090625129605858 1.1874200291758323 -0.08178653445018817
Ni 7.500397075691666 9.121068152251745 4.05477261528568 -1.3102909923711563 -0.12274909290547892 -2.174927788700622
