# total energy = -340886.87531367433 ev
CRYSTAL
PRIMVEC
9.12579090332256 0.00000000000000 0.00000000000000
0.00000000000000 9.12579090332256 0.00000000000000
0.00000000000000 0.00000000000000 13.35651743609878
PRIMCOORD
 96 1
Ni 7.0236921176436615 2.0623465449474097 11.289502783160733 0.45999940901976916 -0.018650782331967878 -0.426730105443678
Ni 4.69364050525537 0.3616304420998822 5.831615642933809 -0.7587351139986288 1.1348725940964197 0.45726478369742535
Ni 2.8961609068702288 1.8968594580896305 4.560743441811427 0.649052881579437 -0.6413637404652955 0.849169553931802
Ni 4.086957945737054 4.96737772028713 4.855521079665471 -1.103173463220926 -3.039573326780836 0.6341631089517982
Ni 4.042451464949286 3.25714068009987 2.958481843500893 -0.4761497935273864 -0.5527959214272157 -0.4481090853400863
Ni 5.257513981038722 5.110524871740264 2.5450844416067326 0.9395849677015818 0.0941946783065539 -0.6175748655758138
Ni 5.9295189497181715 3.3810689165357712 12.759935035528283 -0.4364164794935065 0.4664904160607515 1.4579525322475988
Ni 5.702651795241255 8.325705166631572 12.276682444278753 0.9221135503896958 -1.5792672066993962 -0.019338552427611858
Ni 1.8945962620192254 6.179465228638857 0.6256368266079604 -0.31947113775399816 0.2830154660301255 -0.8942947284052146
Ni 1.03029263368018 8.83711447221831 13.067041616491672 0.7818778706636792 1.8884559886907797 -0.24543442245255795
Ni 8.173906765683501 0.08102698221581194 6.869109437981558 0.5369152456412173 0.15902170208426805 -0.24865678604459754
Ni 8.783783351914083 2.4412949998811952 1.3566482447698023 -0.45572443579349897 -1.0092955448238425 0.6525498389891019
Ni 6.889552121519117 0.654799203070005 4.797821443397925 0.9864674911857333 1.7404962008476283 -0.16115108972244505
Ni 1.1730199987654157 7.57973566508666 2.6673636476800446 0.16033862112347871 -0.6688192655730869 0.6096517540739952
Ni 7.448488544584367 4.026937620918282 3.659899235305004 0.9517365154624511 -0.7245391848432102 0.5698207381199865
Ni 8.313622619868601 4.059197290712164 12.782560608178912 -0.754764559386655 -0.3510669102824083 -1.0059713655466158
Ni 8.428060034073772 7.536315153381062 8.976301030548235 -0.0770580186262673 -0.6238460432965063 0.2645284629695316
Ni 7.256281142830835 0.6239832333500674 -0.02055401818295884 1.1775431363817528 1.1109111981848159 0.49175047617912077
Ni 2.2749774660782274 6.487615800047626 9.375874684831711 -0.14379511494250072 0.8633090786569776 -1.7205213003875983
Ni -0.0038602094265380226 4.750813583404923 1.5474055583959652 1.095869473360345 1.4152069137499563 1.1946720827525554
Ni 6.742143225852761 2.3196025821438795 7.164141685393521 -0.565287111915691 -0.3790693090326052 -0.4973379975692273
Ni 3.9293737935444804 4.526419518182362 0.4416225596609202 -0.10747751145838909 0.10567722502485671 -0.088730312757873
Ni 6.2821212471710695 6.016387350501186 4.691450315509816 -0.03871078630663656 -0.31991773837311355 0.5942325913054476
Ni 5.458600777052352 3.050861309231157 9.559152500476808 1.136908650689842 -0.4273245444945673 -0.9252670084170129
P 0.481935739665014 5.747432049747219 12.298880929929 -0.6258764434629738 -0.13032510548052392 1.0326429613005312
P 4.248895100048915 6.44033507891549 12.560602216469217 1.379144106589128 0.005519901376964687 0.3102370207502399
P 2.446104291530806 8.54087305755099 1.3298147700705294 0.47844578865041476 1.7125565370145666 -1.0100468211675702
P 6.179164077548843 7.927118010312656 5.6490186112679535 1.05497427780788 0.1912625643958448 0.4784257340457567
P 5.072561582817337 1.2620968408751976 12.696771788424641 0.5905589991086023 0.5244564510525742 -0.2120046820392026
P 4.254379700203406 6.488656140176763 8.082869703751449 -1.0536617296440434 1.220624283841943 0.6969797871677029
P 4.964448341502452 1.3512284377286181 3.247329542618851 -0.04492257154430328 -0.719673886331109 2.655977590632787
P 0.451516741836458 5.800051358384141 3.6997552131997136 -1.0200188447786174 -0.2731804822175747 -1.4981707563376971
Ni 0.6554024178290929 0.38422772479963035 4.682955117034251 -0.602491231769814 -1.1897116534234866 1.011136454687323
Ni 1.717364282650916 7.000841137965053 5.094643258347818 -0.1264280844189629 -1.4127985614187797 -1.818064583451411
Ni 6.086747196077092 5.913922973571709 9.05204509258196 1.2088622582100084 0.0814134673814856 0.6545352448502469
Ni 0.04157345168684779 2.6851087475143314 9.99708550299553 0.8639626530805766 0.11100815031946688 0.3578487090909321
Ni 2.575608386027263 5.4943373730672995 6.794994329571088 0.3038239181350445 0.7727972485186496 0.519797355014008
Ni 0.797104044050161 0.27697869585517926 8.991126789967511 0.7713335194889296 0.6762664658797514 0.35668554202076636
Ni 1.7564226664466198 1.50449609096433 11.50431568082556 0.7731530891961717 -0.9438064619820972 -1.697085695072477
Ni 3.9878701113319717 7.062157325049944 1.496891569651956 0.9345767158537129 0.013529916165634764 -0.7410286978578012
Ni 5.944850277937046 8.178223264640364 7.9564775038518 -1.1816957250975455 0.8603638799857247 0.44676439838673376
Ni 5.486397935239668 2.8240580352884868 5.085680819393201 -0.09710773818829083 -0.0563117872178514 -0.6640164448678048
Ni 1.360144335151142 8.068832412640573 7.08958580129676 -1.5803766377134911 -1.1523766644184539 1.9625227858992071
Ni 5.3141212601706735 4.991469807488219 6.943626081178711 1.048452417528962 -0.11295936050856675 -0.5153470325521382
Ni 0.6265576188801534 7.466393345754267 11.007479350258295 -0.17184765020434276 -1.1969909606937192 0.35448853436944755
Ni 5.057348889876346 0.6517338500052908 10.282060216580103 0.054826460921576545 0.7515848761070928 0.2206844692013877
Ni 8.329182092852637 7.502129941769215 4.855708158372904 0.24332560363967126 -0.12448021666397273 -0.6316112890642219
Ni 7.487638186286135 6.781511886529084 6.9905472461609515 0.703914052393691 -1.8679879506444153 -0.7604387269532968
Ni 2.4020267229015424 5.075600471089292 2.7636507769480003 0.26708902460785616 1.731195749382309 0.28460517911474853
Ni 2.5368146501591466 5.601985199061254 11.594124411341982 0.20677660087104388 0.06974708678715084 -0.7166831791339011
Ni 1.0819537343034231 3.2728917946866423 3.6438314557841873 -0.6413066619751149 0.767037463216737 0.21263357387245316
Ni 1.566989505037456 1.1603807787754508 2.605989968114333 0.25714374046968613 -0.24658396267596885 -1.7288696723522934
Ni 1.2901130180370692 3.828104895184451 7.757438535250263 -0.8740737733726496 -1.2865918489820036 1.0463981061030945
Ni 4.054305866947094 3.0743328426710055 7.157624045742378 -0.4414632978887945 -1.3692013935541194 -0.6640616962834434
Ni 4.079602558508237 7.10589723942677 5.829371611023677 0.4062229866292617 1.1716121156092985 0.21451639271746278
Ni 8.721983497927049 7.364649906282701 0.3334271862305779 -1.0174438849625895 -1.6478896929638007 0.48232172666605316
P 0.5188951916212292 5.962700324363307 7.67707226027436 0.0736317665535377 0.7717929756238514 0.10060906647332996
P 8.858934237558387 2.0539051886364224 7.966173656371178 0.7533877336437864 -0.5670755712746814 -0.9856066858473348
P 2.2700221617789125 3.793363010345609 10.340107545469754 -1.2485539203726754 -1.3015692962274423 0.06463187704777255
P 4.006285956775834 6.476701354482284 3.5450201328344813 -0.26378952792097793 2.331683834679165 0.4912539961586766
P 7.379899102386117 3.9854609026118624 10.21810941374712 -0.7495012541051866 1.3635729916237485 0.2621190821970905
P 6.822988604835504 8.353274180053726 10.235486744219967 -0.5905129763620152 -2.0222975919649944 1.2645371831748093
P 2.458542744127429 8.90107713857908 5.570602517744654 2.841787616554493 1.2444594385883276 -0.21410681598386996
P 6.998240287642209 4.236383641127441 1.580997593618392 0.2768913554102586 0.2322202377551291 -2.0540422313664433
Ni 3.045969885466088 1.6730311918846705 0.2728574888172961 -0.4038110347536594 0.10333392160366074 0.5110751446496616
Ni 1.80648675371373 1.435778887697589 6.82691634511253 -0.28352531578700846 0.4080680102578005 -0.013773913855640793
Ni 7.327261542167982 0.8799653101778739 9.042242168312486 -0.4640139294958009 0.9334878536649085 -0.18203487514998973
Ni 2.7173866688894255 1.9603475833388624 8.916931374599704 0.4027319427568677 0.5518088749235981 1.7667268524093829
Ni 6.100061724571936 2.2822507211915863 1.7424775458208686 0.8046179925736724 0.9099416909138524 -0.4719609522570194
Ni 4.32619054648574 7.563911544175036 10.195643542432107 0.3327377729559173 -1.3746631879996392 0.427901757154276
Ni 7.5203723971915535 6.147123426729516 11.279751875897718 0.01771181545746627 0.10901143160441225 -0.14005595961504266
Ni 7.892914547119595 4.369565429238306 7.888572495949036 0.7088001768413986 0.37107060709784484 1.6007120068367335
Ni 3.3828484457040333 8.584850242483581 12.378646727882998 -0.44988828872769615 -0.0646411330191532 0.9574497637971446
Ni 0.2923620410805106 5.18916180939624 9.824733083864503 -0.24362102339290304 -0.29249872293021234 0.5026997761017729
Ni 8.869410645174618 2.586988246913535 5.771925671734991 -0.4010044185427997 -1.8766155444124262 -0.043241070076822305
Ni 3.9637050178060313 2.6080231942614547 11.415814676103047 -0.4451708286473688 1.0241845461205328 -0.08249847291554825
Ni 1.6911185088667 3.564424301401024 12.658278291067479 -0.39809212999201116 0.7262137443321558 0.7967527308929827
Ni 3.436425962354636 8.812000296469297 8.221190224552819 -0.13456305482127148 -0.3534886323500235 -0.26175424265850405
Ni 5.979473527498004 8.319864660643429 3.2666296771724803 -0.9780088188954189 -0.6225162687414891 -0.7212643707466804
Ni 3.477227372156176 8.781219004753664 3.4723605880257438 -0.19810015614296853 -0.835842754915909 0.1673955279702601
Ni 3.752607229497101 4.496395667087066 9.02795026764369 -0.1425447874751674 0.8199901041543683 -0.14409644823300347
Ni 5.239435789847299 4.993322342981333 11.06905288463829 -0.37531292731396654 0.1979939695824074 0.9709369996503022
Ni 8.388663996025628 8.757783974476242 2.6482232144620284 -0.9909640935045063 1.4184035663103831 -0.6165410249946608
Ni 4.771355738060093 0.35994947147017 1.3352163255305007 0.16858209207919353 -1.6036088687685544 -0.8430048198819868
Ni 6.405702703563925 5.829837938923668 0.1665894823630409 -0.6079993060722368 0.7533905618572637 0.12663068734807223
Ni 8.618460529287221 0.30811771856258596 11.039602133193082 -0.037142413378252165 0.33320134285589714 0.9071746696916764
Ni 0.040767644376296236 4.770945077482802 5.483384599181411 0.9462405253448865 2.288137574657098 1.165719147163631
Ni 7.447448204455229 6.450537712813526 2.6254370278967265 0.9338287819440949 -0.6835239187731131 -0.7446554959771111
P 8.605100371839344 1.6888918159587207 3.5786514089565156 -0.7599885267897556 0.9453056722354429 -0.9746877249419859
P 2.2945249095572926 3.345177182080514 1.5542982680410342 -0.768740819061089 -0.9248263213351685 -0.282012735797224
P 5.0585534942364 1.2447669645135055 8.167750507340374 -0.6551173426059621 0.3873161224224297 -0.5752779045798156
P 9.151799109701315 1.951386056963306 12.61234544920792 -1.2637506827177718 -0.7730852120727137 -0.08803662912495806
P 6.785399473327442 8.001082543178118 1.0980461534588772 -0.600351816829308 -0.8155649785034793 0.7918470660612491
P 2.283555709248312 3.592622994375025 5.808990070283181 -0.0787156088343483 -0.822068841060268 -0.8878883106582386
P 7.156810025220282 4.1893310647604665 5.9655813364577694 -2.02212121428813 -0.18315921856242004 -2.0685797628609857
P 2.3167005807310215 8.585671563638163 10.522905344528953 0.6644417053306815 1.036229393100209 -1.5994645075828777
