# total energy = -381165.9231120533 ev
CRYSTAL
PRIMVEC
9.23787480155778 0.00000000000000 0.00000000000000
0.00000000000000 9.23787480155778 0.00000000000000
0.00000000000000 0.00000000000000 13.52056355077530
PRIMCOORD
 96 1
Ni 3.6740320477749164 0.5458780177330491 12.872076600387421 -0.6185387721509799 2.947247583362221 -0.06285833008711755
Ni 3.3784662508239456 4.085080514758207 11.908520093090312 -0.24764120029588962 -1.042805760766146 3.138579824653737
Ni 5.635907184385904 3.1307618820337177 10.667751598043111 -0.47861753834158866 4.238006162127404 -0.7353005371247724
Ni 8.520137907700116 0.05126466115329639 3.555745682809806 0.512953335508981 2.0107795640230663 2.8336469897252297
Ni 2.773838122171406 7.042262733572399 6.9018692109675515 0.6311448909507646 0.6852018206961683 -2.1988048524285357
Ni 7.324590656260805 0.40966463337231274 12.709396705376129 2.0465762620067007 -1.1184437591164351 -0.8214723451268499
Ni 4.527907270271311 7.3981333757334315 8.48243629399434 1.398606586189114 -0.5095286260981483 0.25755511697549194
Ni 4.526170549851658 2.7883877746232817 8.473945763474646 -0.9815813667380257 0.5299807233049131 0.030029456482554735
Ni 5.472932601175745 6.271445241358429 6.458772709516928 -0.9539047267583636 0.16262073228943608 0.029876732954774353
Ni 2.574207652657092 5.221034237329548 0.6245080347328171 0.30391236408379274 -0.8104932204075268 -0.8389455622109487
Ni 2.066678823637359 8.004045568951566 11.418724288100181 -1.3615590465175131 0.7855092967686794 -0.3813552768533045
Ni 8.666281083438962 6.324646161022146 10.151955795068341 -0.4170702137564107 0.10505398961856101 -1.3688933753953973
Ni 3.6476394401209413 5.282188967000291 10.140923001466263 2.2790291845979262 1.963306458142767 -2.174665793288487
Ni 9.161412684782238 3.0903831322767963 6.272365333665862 0.1203109157776315 -2.482185929328196 1.9895957308565995
Ni 8.816867676847238 0.8659528197126377 7.841304703968094 0.46425021387632304 1.4420831693155098 -0.0007119384653600642
Ni 0.1419621137072777 8.537172548412027 9.330094426903361 -0.9888709584209034 -0.41152922933352354 1.2727490295616404
Ni 1.500683486447516 7.31219342858435 0.26361476016665075 -0.36657709010286543 0.9211187905765943 -0.6407803571579996
Ni 0.62496253816179 2.9630020797949417 13.081767115311319 1.8583409144729546 0.11930869976536226 0.4449111472280789
Ni 8.887103237222865 6.767953286013026 1.3308765712034476 -0.26308504565478563 -0.611264864197386 0.3956146149857961
Ni 2.3847942724200952 2.2851545572798178 6.95161147039128 0.00026585206687696145 0.08935509082606545 -1.118681329048538
Ni 8.142401216425691 4.914918787616645 7.87092872014757 0.7899138535942783 1.2932718321053405 -2.5537117052823244
Ni 3.2570159138177126 0.23124247630181913 5.513171859026619 -0.8841175307618967 -0.837300570408358 2.061477861708882
Ni 8.684008564743818 7.578539828262124 12.06104571637138 0.014451142428323498 -0.9260578797494246 1.3953657106543131
Ni 0.26837226557155 2.504831214616717 3.2999101368207584 0.29080179484376373 -0.6465373142464349 0.178186447938177
P 0.03166281509765441 0.17137920149632824 11.428553386645447 -0.5935630760422488 1.0871945712941662 -1.0195213363169084
Ni 7.743417413634242 2.797718027941628 12.32735978348815 -1.2582140691702588 0.6204059072667057 0.07734469662875067
P 3.769191393747473 1.4893301385977662 10.040194140913874 0.4179675287596995 0.18972941558077003 0.10495088838179345
Ni 3.994595533319396 0.5020535407605408 1.8384183332475819 0.5347467772349886 -0.35670045441910186 -1.031641002398578
P 5.481385256409692 8.593680627172743 13.022465503279843 0.6037011929175151 -0.10400240842559508 0.11077932213811244
P 5.161847174942773 8.585920812531741 6.345267868430605 -0.050974691275654155 -0.3782408995940389 -0.28975227053332675
P 7.289422067762842 2.574955920497474 7.408741227105171 0.4098279303717006 0.23307075868088248 0.9304130713943267
Ni 7.093902452433343 8.662493554864188 10.326871254951069 1.3842503174674419 -2.408377270877162 2.5017060016389947
Ni 2.0749097698815637 4.656073542091838 7.025054420818522 -2.5452885142156356 -1.0417503229184382 -0.9429361435620018
Ni 5.538706268132798 7.487140297240623 2.1837467129463413 0.23374078816471355 0.6230765121203333 0.4832195558899742
Ni 1.5143463029404205 6.036101148746367 2.5304543073187924 0.1367245812489645 -0.6906451031989267 0.6147813619910767
Ni 5.2257917427344465 6.0293759760575 12.774688155280492 -3.0627870458931383 -0.9295756630946957 -0.5202863788352846
Ni 2.4867804077018176 3.401080567777719 2.3769559358452272 -0.02729457404989493 0.394154742610818 -0.023366699750398467
Ni 0.5294678573422473 6.653348214065105 7.398235916141188 -1.0629125588183501 0.08889512047051142 0.027066260089172744
Ni 8.473375786613515 1.9437227130757897 10.301776568674548 0.7660064508490614 -1.7068520304306216 -0.29574936865702617
Ni 4.187260645405955 7.392221136006955 4.32559319819365 -1.4558303436982734 -0.15300069270116876 -0.00769376909983191
Ni 7.672692245906265 3.999325325100578 9.728707790924448 -0.7206629897172557 -0.4621079707223396 1.525573316720366
Ni 7.225283504605142 7.465200345130652 7.438148153232191 0.5216248951410501 0.01681501467480975 1.289821925883527
Ni 1.7201384347946722 5.972267435449564 4.843538654581469 0.6844831973625889 -0.24849403521448818 0.7950815138381468
Ni 5.094881822165852 0.5108600065906191 4.054884674142685 1.1531595653310656 0.25868563103550934 -0.6389944689021704
Ni 1.3966465430106716 5.41392105840585 9.22562145578669 -0.0778216362651692 -0.14242008897184505 -0.721881435505389
Ni 5.870641577276173 4.572701724073944 8.389347155713507 -0.9619898177593433 1.8410813560615582 0.5560313976453778
Ni 7.082105686604108 5.610235130948593 11.781656361584524 1.419751081477213 -1.4716572834282011 -1.481778945243235
Ni 5.717745515224743 1.1636765841637726 11.048653185146115 0.5289186005889859 -1.8640875871487443 1.3392195024800482
Ni 6.480119590079338 7.6618562190325825 4.653007491521185 0.7749096668759622 2.5376487382821913 0.02402464504937153
Ni 0.7238724612108305 0.7758216488699579 5.247465644056728 1.2729706586541432 2.0528150438275614 0.8124647423116007
Ni 7.072747719662044 0.5950678522573352 6.5032964935945845 -1.580979818515129 -0.6984003216643133 -2.137593828136854
Ni 6.945874750281683 6.99896481545053 0.2407242307631561 0.13921675154319893 1.3243274158595644 -0.08962428532705209
Ni 3.6038519146467234 7.598706108454152 12.970506153958684 0.4870744108596903 -1.809434932800871 0.8671991577400032
Ni 5.621145060818857 3.6244523749436657 12.989299685989224 -0.30312612073707146 0.4177050191269322 0.9024001311211685
Ni 4.929690149058264 5.218041165968019 1.5160608524610988 0.6625074644224461 -0.5592344779637078 -0.6494166926767589
Ni 7.636341209463006 1.9427712119948095 4.7053862403479405 -0.41775669830047407 0.832983688200559 -0.5737954064970183
P 3.743528578184735 5.333810210112091 7.803122720784542 2.826045780339204 0.031227847666030095 1.4231909603966975
Ni 4.3151405431147305 0.5495066548651741 8.066341176132028 -2.8462554225178596 -0.7390911145154562 -0.4571547404821223
P 7.586040982415091 6.153606913310091 5.706988934072385 1.1542869940672895 -1.6486687372216702 0.06892947598186194
Ni 8.479306502089136 6.564692331791672 3.524973398820952 -0.994122693738146 -0.49811318517235503 1.0731710033215647
P 7.14625348763638 4.881468443789188 0.6901680758326271 0.38673556732861136 -0.4460560594657995 -0.5804805318266777
P 1.1564710419971291 8.712627500169795 7.061249337181504 1.0771680402961 0.7480313544278795 0.5753740638380478
P 2.671851986889683 2.5150483038940346 0.35821244336519215 0.5505606043387937 -0.0397543970798025 -0.4058635464073139
Ni 5.948119631316736 5.6313806258453205 3.8937872270456824 -0.7397811986039453 -0.686908776084946 0.45263165580078824
Ni 1.0294964559964699 0.5866447582220203 13.330531992102483 0.6116680131730756 -0.5377192295997514 0.7514884597385445
Ni 2.243085276476107 7.865458974613122 8.987956809081986 0.620526234894654 -0.02870919500923443 0.40052002270721343
Ni 1.941671904920668 1.1237504902609097 11.1544379344521 0.010266157812698448 1.1173163303802112 0.8030987277156686
Ni 6.342623064940464 0.15117504601855145 8.581609496468701 0.38159927454331055 1.2247717303514132 -0.9320102406781174
Ni 8.787833037065493 8.126484358537068 5.702527040653809 -1.5658051676572193 -0.7665288990114346 0.6177103627124135
Ni 9.308729070591808 5.391473023194384 13.057672890851011 0.09962741928635101 0.12014276563088343 0.6887915949299558
Ni 8.51722797720974 1.674124581548453 1.0503075398336676 -0.8349575240974781 0.09779807938709609 1.0619815623636484
Ni 0.11249052245824871 4.136369194385392 1.66655783848602 0.15439525905585022 0.5685871228232013 -0.5343549411132088
Ni 0.993551886034406 7.954114856886555 4.055817699474519 2.2569516359725967 -0.47425257650467356 -1.1575458673242194
Ni 4.826918794437869 2.5806834027324985 2.1021633474457064 -0.7726954328334628 1.4077347737426273 -0.4052981608221472
Ni 5.8435007017818155 1.3772377685335973 0.5182770960849756 0.21434927101197923 -0.19389511692268543 -0.11183064622076223
Ni 0.1964341649121877 4.283075880473168 11.170459180323395 1.1046595608481493 -0.8558140558315132 -1.5615844447076526
Ni 0.5506078095142305 3.2700136033413885 8.540601647453384 -0.3861424138293027 -0.3278503629566289 0.2869752220088219
Ni 1.7399167242546514 3.674946597357606 4.815078610598142 1.8576104640648328 -1.1143397642503905 -0.10123564431373533
Ni 9.002539717882323 4.467667090183257 4.7386462839592 -2.8997135423369995 3.045181416996233 -2.0606054864062577
Ni 4.022438487281272 4.753773303571865 5.463497036087271 -0.7935509361262334 -0.6949637851789386 -0.7691665937445978
Ni 1.7769328876671389 1.1964525631474277 8.859051507295648 0.25133021911170267 -0.9723500779477449 -0.7144447767216857
Ni 2.371796582896419 3.2946972041994287 10.011490217041828 0.0963610898302534 -0.6116456445755725 -0.34699068333050564
Ni 3.518817279205758 2.310337003364779 4.341263404831186 -1.6217659992935554 0.11702221772403072 -1.0752127163419418
Ni 7.245819299780075 4.218133622227651 2.7656450512129496 0.9815147751661484 -1.1488413975716858 -0.6074591172980506
Ni 4.692249058918217 2.0335795190436623 6.190295132175249 1.6375916534719022 0.21004832964378015 0.5594257680389075
Ni 2.457034451577982 0.31792422477908266 3.39724407846771 -0.6860785668741668 0.5179615873568499 -0.6104498244952583
Ni 6.33227664541913 3.949801079516763 6.119136708129817 0.9478477219310063 0.48787736637695983 -0.4429990178070306
Ni 5.5786508377848065 3.177431624374593 4.0964329388205 0.5609190647549824 0.012506874217759105 0.6626563312954846
P 1.8766372679294243 5.962225865789126 11.218524765512193 -0.762100945147068 -1.5090845750367234 1.3413512041110707
Ni 4.506669396628857 8.525117122094759 10.691696168935344 -0.6664445946933233 -1.4001510478580983 -0.007824895361057491
P 6.8054405810287175 1.5754825568620185 2.6317503733699406 0.017840884836162824 0.012707677374655533 0.12262002352678236
Ni 3.200831160667039 7.5385860207355435 1.8529661381245435 0.050672843764519186 -0.5066944990834629 0.6318982241770214
P 3.829634807076124 5.3589464668241895 3.2835637177645074 -1.6556459398704517 0.2527183577084809 0.7621662511673648
P 0.9026022395045922 8.83954665892302 1.8908506617468572 -0.20166190535229786 -0.24013075085145744 -0.3657977887346797
P 5.725265145126855 6.579149605497822 10.167787664510898 0.6414375311260243 0.034264577609824855 0.6951836144992285
Ni 7.678826194622484 8.596858456025725 1.8963943102778864 -2.226616732434481 0.04536017330235414 -3.4003062993980984
