# total energy = -340873.7524310126 ev
CRYSTAL
PRIMVEC
9.17520626588394 0.00000000000000 0.00000000000000
0.00000000000000 9.17520626588394 0.00000000000000
0.00000000000000 0.00000000000000 13.42884181418284
PRIMCOORD
 96 1
Ni 8.713243773941013 1.901332111538793 2.7896269503806064 0.802675781245637 0.341016982245574 -0.021197717123537685
Ni 6.064985648629564 5.730677834340615 10.878651166141127 0.8174354560533147 -1.1845661046668052 0.17970057058985825
Ni 3.6245367692789894 0.5308095360888366 6.578547632042465 2.0186121726936075 -1.494507191443181 0.01162575716438643
Ni 1.009795672335022 3.3176444712128803 6.815714785385609 -1.1215974742540682 0.45219791069747933 0.7025595952483256
Ni 7.657205062193972 4.0256217345283885 2.417997149699541 1.5625144127210897 1.041899704012109 -0.3929735778185232
Ni 6.068343774110675 4.000380742182663 7.961355808637798 -1.247597212886361 1.3203866860442612 0.7826384029787877
Ni 1.8333621837681118 2.6399178628460667 1.5644598271078483 -0.40176675063012096 -0.885341632976985 0.29245321440425764
Ni 7.007903242735577 6.3440311957799045 1.5229915650192452 0.22908760566341838 -1.019092476309606 0.32370265933684256
Ni 5.939276148037488 6.4462796940353675 6.45844051237598 0.04137264940951584 0.42472310231597815 1.4935039469896472
Ni 8.9751041598178 2.593050909410235 0.0970837746671643 -0.7268966293317933 -0.2894632785379983 -0.10513986446414794
Ni 7.924900879234657 8.714289747451522 2.4799307092898313 -1.2561960102989655 -0.5018603109196131 0.5763567394662913
Ni 5.667919423710019 8.072456545866418 0.939015378895313 -1.1084655648578006 1.6935393724821157 -1.3221836300436842
Ni 3.528949470748353 4.246955234476031 0.8028690812137187 -0.4771270698389912 0.7213528166954286 0.6994341622454664
Ni 3.907582706346719 5.287276817946726 7.3410375481473835 1.0131748252735906 0.5995092663233547 -0.47830206398369884
Ni 8.312810248334124 4.432991716047081 8.111329142111835 1.881492669999069 0.04476419158956807 0.7414724702634392
Ni 3.0106237202595145 8.33263786900265 3.825837123938497 0.8246551137302057 0.2816260418817666 0.5364493617483923
Ni 6.135533809351589 2.7685175534013937 3.633683532372212 -0.1403763190689389 1.2381062426767901 0.24540948275189348
Ni 2.4063905138153734 1.6866965121409065 8.041673728956235 -0.6784303063002896 0.502577905811928 1.6603687992674179
Ni 7.715843805226156 1.4989075661794422 11.334116661210189 0.009513595917390066 -0.8730751569048061 -0.24936821028932538
Ni 2.943057501563066 2.4022524958044964 10.58897706009101 -0.459719415885505 0.06569579953591266 0.6588495559548847
Ni 7.3369811894719765 1.7729251003143491 8.194279429098389 0.09147162294843601 0.06339877597161984 -0.2071424688508949
Ni 8.511737894661895 8.354126201999266 11.307689314698594 -0.8369593850188553 -0.7780240441352277 0.919316704370849
Ni 7.515136168889271 0.3029460418654927 0.09374216455727201 0.8077678510565637 -0.7680121684251805 -0.8709491117007387
Ni 4.317191438186152 1.5738781763055538 4.541365581983389 -0.006982601965420232 -0.3201653356075454 -0.6389602732301254
P 2.1477873261511395 1.1729216639434101 3.2922952114336095 1.3731107559108546 0.7347490354966765 -1.7767289579274177
P 0.11290183021206901 7.759783867873806 7.691624013334112 0.16581044287132735 2.254576193761885 -1.0092595493795846
P 6.769146026152335 9.065002830484259 9.867056235863904 0.2282406842820908 1.3930555744638977 0.43416162202105874
P 3.304276195732064 0.43124662069763914 9.85495689140505 1.3150681020448254 0.5959063794634447 0.5246318002881739
P 3.1890723062762505 2.2311440747737956 13.269521818614153 0.6122493395978423 -0.24106688951248162 -0.34472811254857405
P 9.199979289371203 2.824330332913955 4.708756209448664 0.0553980171543304 -0.8472949626169086 0.5455934901415056
P 6.955338486229337 7.1072156749966275 12.711916092723174 0.0009129987325726211 0.26059853178750597 0.47802438484228
P 7.414208900331293 5.025765089906775 6.273430736382353 1.0359110905288416 -1.8148229365856616 -0.9483166911476247
Ni 4.367544969990349 2.2760934101070256 1.961322362449031 -1.1654898047616442 -0.5764271876929106 0.9646565659582289
Ni 6.6635761032406915 1.6604370719033676 1.6399029603549358 1.1997875496022496 -0.5243186399231293 1.13748457779797
Ni 3.8168215662944003 4.045027295710218 3.8325909932462725 1.4313956076946768 -1.1437076758895464 0.04945876885175998
Ni 5.749606284798352 8.46431125364588 5.306581451859997 -2.9761105303405 1.4619979059615658 -0.2296661038747077
Ni 5.405031414735187 7.923965008198937 11.209416433303693 1.518540835353617 0.40378789482520777 0.9342370731261072
Ni 4.934095604437435 1.8984052207506117 8.435367148064698 -1.1620532682762699 -0.6043262280960238 -0.29625330487663815
Ni 1.7589696116346505 4.428936274892297 3.1774381447733853 -1.6162599818736614 -0.10170641330256679 -1.2074270684253785
Ni 3.60455317010451 5.634842805241699 11.64366518148062 -1.6982853718075333 1.413034845799302 -1.2051830095862082
Ni 3.6856711684064254 0.01118732895934009 12.03962762909039 -0.847296248168489 1.2200869232812344 0.7793005968548062
Ni 7.274231954047613 1.1013000040921768 4.776732559863708 0.7775350203139512 0.6000484266562762 -0.39979162918162114
Ni 9.062360371089287 6.531287979779881 6.032249430312472 -0.65825614534526 0.22532556751782487 -0.9169248070999046
Ni 6.956723942370451 3.416773399349278 9.948932106200628 -0.288327108051026 -0.0012570123355526738 1.82501736062016
Ni 1.0603602338825684 8.333096629314277 2.177500314014608 1.4633184245452024 0.3753566360677084 -1.2164285005930404
Ni 0.5649578186451164 9.369537100548605 4.132537660194346 -1.73760448112213 -0.4498872602864316 1.7859383923408274
Ni 3.1081194616865204 0.14131652639363249 1.4253912262411887 0.9051568679306992 0.3488961278833346 -0.7208679066392101
Ni 6.650739989721362 5.564588251119116 4.223975012946004 1.0819952864814142 0.042114926892179085 0.10315651548553202
Ni 0.09995194413545734 3.283953113926981 11.033042361416134 0.2898090919131912 0.48534174443929967 -0.03367039566925169
Ni 8.884820130489572 0.304982020128494 9.18248125356512 -0.23330472906855948 -0.013450983298583288 -0.25385118576134347
Ni 2.020444638849671 1.8015058677287215 5.3617739874312385 -0.04391315644318244 0.5599618430480356 -0.5611018701897499
Ni 5.251594440908365 1.6121938375326548 10.780620510190767 0.7312219961800246 -1.145266278625918 0.3020747966544217
Ni 5.942074585938413 3.6749178267018854 0.8455264500300591 -0.34278127323484836 0.8522543635047127 0.46254660092165506
Ni 1.8196452504504597 7.757581818377996 12.199229423984857 0.02712102458650813 0.13559946650558583 -0.3335340436049675
Ni 9.046092730438987 4.949216344308667 4.383429087020128 -1.0515961053642664 -1.1602426974300921 0.7973574543565172
Ni 5.220618944667299 1.3428097825451826 13.338989140041987 -0.19453480738921336 0.3675551377454186 -1.0843419323367196
P 3.4307380632352094 3.0911820309812454 6.617907431738829 -0.823938290168839 0.45788519089024365 -0.1315605205495218
P 8.265778141186106 5.192781368957761 10.271318575031632 -0.29342097763416564 0.6717168988358561 0.3897774394787287
P 4.583465098260792 3.6554939151075905 9.933704016416476 0.5497810458602918 0.5778754901036629 -0.7036307168253172
P 5.352319854929226 4.9348663217609685 2.5616056426100626 -0.24523927572261636 0.2357678458970714 -0.31246231053633283
P 3.971607295437406 7.505896736213099 6.463099682100865 -1.5528563208060353 0.12840294875714658 -0.28535645545847627
P 3.6356479440265996 7.4410372033552505 0.2520383276048492 -0.5072951087819393 -0.20341694037019156 -0.292693869660154
P 0.45489479724139636 2.5962805820040904 9.041786806154054 0.0734931840931444 -0.7634597731678078 -1.4664695685796745
P 0.4245266996529244 4.539653488500397 1.0274028930952728 -0.018932061017812557 -0.07714029392742844 0.5932167484464235
Ni 5.095790263873546 5.7430551875483165 -0.12446901270943639 1.279668382389293 1.9477497413550906 1.0036314045595296
Ni 5.514142967252592 8.392854747506831 8.150004471423252 -0.33495380677062964 0.7213643866596544 -0.8345016675069821
Ni 3.238636770344449 6.154810917646163 2.541448632037788 0.3329514316286201 0.8113023465723834 -0.9377517711475849
Ni 7.74147015623365 4.938398776160497 13.043742931246845 -0.12959645484461552 0.0932153451124201 0.10466729570310361
Ni 2.0178755811045583 8.469596172435825 8.74060515644708 -1.7133666916206878 0.46083090378212893 -1.49914417599456
Ni 9.167884417969768 6.41670800434788 2.5655399710425772 -0.5324692940547218 -1.2524062042392303 -0.5901561072432288
Ni 0.39135190647791745 0.8755908482922339 6.9393002257348515 -0.20302793246188908 0.7975819116624974 0.10976373638940451
Ni 5.37567992999728 3.922006130544277 5.855713874795222 -0.19363106462802138 -0.4644888122496904 -2.2425681135574154
Ni 1.6897059797851808 8.352593942558432 6.043207379116 0.7881112531679008 -0.9018650845533048 -0.6554263892059485
Ni 2.162825489166278 4.916928793576346 5.565381906458231 0.4165585642273148 0.6378135612201918 -0.7539423205956758
Ni 0.31613907090726673 6.955200858135849 9.572561476459208 0.5786463068314164 -0.8757131087482853 1.997973156287017
Ni 7.454772487085368 7.156303028340734 8.893009002052118 -1.57414788319496 -0.1631660632699448 -0.5739617568715535
Ni 1.8561075200185868 6.415074817638487 7.453624668785677 0.3698850714301759 -0.7846369214660551 1.1931805858086935
Ni 2.104480352733535 3.890214040948514 12.221830709497482 -0.5457009622536472 -0.18962065791704763 0.9919984483062916
Ni 1.2235871527595144 0.6251132232675404 10.954590678045397 0.6383802323569393 0.681814135170858 0.00106083716434656
Ni 3.7757900440224668 7.456451549825924 9.680153614824503 1.4367075068258934 -1.0185466311084652 0.21603822867862793
Ni 5.51489533416366 7.390188210414495 3.1349762078497982 0.5044825790338086 1.19347369156908 -0.6715963140975917
Ni 7.660223705044479 8.846064059363309 6.575969399091121 0.1192423653038011 -1.086418098139458 1.3142286368626657
Ni 2.5770860505656095 4.038641352172368 8.711719772185786 -0.5722306331130597 0.40949548673294645 0.903610863599818
Ni 1.7810268074176847 6.212908323510628 0.5804464842862729 0.39839320617219776 -0.9480343840205159 0.11065719473795137
Ni 8.959836616646847 7.4776187506044005 0.17412798140183072 -0.5841911479090455 0.38257346553112176 0.6909729188519906
Ni 0.4617936348076457 5.776957574577564 11.98573797280417 0.6436620495811689 -0.4623128876442942 -1.6711193529157027
Ni 4.833094934229598 3.7206929305960434 12.150738459045867 -0.7249888707861192 -1.1977620345317888 -0.8386434575894975
Ni 4.345799731219222 6.203118378460504 4.598237180295186 -1.2892004902494443 -0.18140469776515855 2.5268771015879836
P 7.567755976632907 7.77642769197964 4.611370570496448 1.3698593388530924 -0.4297262119575244 -1.2274500485145248
P 6.84593332711249 3.0376905786455177 12.477784097601758 0.808014419849731 -1.3036932845489806 -0.5804946728940649
P 1.552674274702146 6.727050179957426 4.072900654724061 0.137583329704834 -0.487011933052871 0.5475974079454118
P 2.115692454749703 6.214734189550904 10.004997203884585 1.7264957728034782 -1.9253184089347677 0.5508539672094965
P 5.929715583143177 1.768502650910263 6.456882562357695 0.14348606834251418 -0.5578465964772457 -0.6802503902281639
P 5.496618323348434 0.4303933265180126 2.952895157685599 -0.3068876446620328 -0.017912875724678826 0.072802585784023
P 5.515702752312125 6.2368097357464025 8.83444549571104 -1.4609249846123615 -0.300133870877967 -0.6921877650956982
P 0.5187661603880003 0.43985204662314153 13.010480056092005 -0.5428318682359684 -0.3999870330218788 0.1992702651916697
