# total energy = -381168.678014461 ev
CRYSTAL
PRIMVEC
9.20249827164302 0.00000000000000 0.00000000000000

0.00000000000000 9.20249827164302 0.00000000000000

0.00000000000000 0.00000000000000 13.46878642332797

PRIMCOORD
 96 1
Ni 0.9249062657857471 7.901780138046748 4.648145859092436 0.8946796225484592 0.5247732109620447 0.7800840119880501
Ni 1.5506761310020605 5.463955590626331 11.726854574419374 1.0146280127803493 -0.03783558279053484 -2.21526094110203
Ni 8.104741231831246 2.0910376121143655 11.962733003613852 -1.3242158299823645 0.04428390951903986 0.7821437227305562
Ni 3.848503076076364 8.760667683052175 12.834608034071923 0.9444700637080251 0.39585989822738277 -1.4283473077866562
Ni 1.3439236080341943 3.6074896529879044 9.935397843528706 0.05454389668415123 0.3278274801384935 -0.8380688160329501
Ni 2.8341853395488266 1.962101412385751 5.715842685372725 1.7838653118618826 0.6636359215999346 -1.2845758469932393
Ni 7.157868603276802 3.738588439750722 13.26307726203454 0.08169294629511736 -1.848652740650913 0.677239371315982
Ni 8.180468588020437 9.099448445082665 8.831954833947735 0.20508172966712424 -1.061412834344372 -0.4817879656497703
Ni 5.484587591182433 2.7932434258672476 1.0034256598735658 -0.7351025621813534 0.1473488937320301 1.0260791920400845
Ni 7.660490640017752 6.251008436104131 10.960521153228846 1.7417141324151293 -0.011991625144237412 -1.168040081987324
Ni 1.3495187268290696 2.905201016752861 12.316558009403986 1.1395093215374827 0.596492848094534 0.47888107641562044
Ni 3.0210696692960757 6.014743501992902 7.407266422309358 -0.10769528389615002 2.734931540730187 -3.491796434289296
Ni 0.5275755303662525 7.713303776142405 2.093534249826618 -0.12359344318364522 0.06677103487796242 0.24294636592338162
Ni 6.284698781347616 4.409947480147648 11.181880801300505 0.8799590285088329 -0.5151153761573064 -0.7872231941359926
Ni 0.9648359046853586 0.8875128353398652 6.053788780832994 -1.6677121270063666 -0.5914041207177169 -0.32219213622958703
Ni 4.9483672341781775 6.781274776890814 3.0447265309506575 -1.2815069782599284 1.9150057141548504 1.536625717879786
Ni 6.062670111670057 3.8624172530794088 5.719870618755154 1.7309568938986255 -0.7446074163479951 0.8458340618006658
Ni 6.8582260653163845 6.09266105271035 5.975008956051269 -0.8502602158928195 0.8534237012224657 -0.9433413494202205
Ni 3.667397915084348 9.170970259677683 10.315352422190827 0.8894044901924488 0.34747482205577573 1.1788471999051569
Ni 0.44504660789204037 1.7303917147933752 10.5742766671715 0.7676149329867619 -2.3594203813624848 -2.373584845788325
Ni 4.201722557496919 4.206360616497935 2.871666193725879 -2.3443573163817755 0.6541755475179831 -3.526885564682946
Ni 4.312907138549029 3.1417696332986806 7.131600992934545 -0.06073665575842443 -0.5972983747149648 -0.4160438293744254
Ni 6.545184690241924 2.1940963874166814 2.8875727115497964 -0.12771337888928974 -0.9563179641855466 0.03981893176915078
Ni 6.711510639417213 0.615546810168243 13.381023838630195 0.0003270443221155658 0.4299252153422079 -0.5710042169051263
P 5.793451032156773 5.35734465108911 1.5164373168767105 0.47998125145833465 -0.7735387546703646 -0.7692982342264557
Ni 8.389742595445204 4.028964062207127 9.876943576119087 -1.2110723784874498 0.7625807129969641 -0.41924022482453605
P 2.8887745577909327 6.484006483419011 13.172337870828771 0.5750932993728354 -0.47412864933229953 1.584099080870401
Ni 5.631560687026106 0.8974883431912548 8.996044576104678 -2.0677536674152646 -1.361110389015869 -0.5139779201187535
P 0.7172095665212456 4.273594067016616 2.7200752843768305 0.2606288708048092 1.6377099242173214 -1.1406120676833582
P 2.5441594120171014 0.4722059402922302 8.126783055083688 0.6154843015953723 -2.4626974815862814 -0.3089648389060356
P 6.466089219778185 2.2412039747702446 7.4250585319771405 0.3755841786974822 0.901011735414074 -0.9294795038364638
Ni 0.8617513623885924 7.9168814372941005 7.479257564303288 0.5088004896828722 0.23209271103832935 0.5252190402502116
Ni 8.569458179236518 8.065741045231439 13.52589416367678 -0.10788194598565937 -0.39997572016796923 0.3841384960253965
Ni 5.3043842749961705 5.27851605306789 7.400182339335188 -0.25616929237155883 1.0220618433505753 1.8020602376033545
Ni 4.504797627218008 0.0699730341786071 4.074402316420246 -0.9339552802196303 -0.28949027512119174 0.8782384462733004
Ni 7.998387962238525 5.246436144977537 1.9741198747971114 0.26407286348935166 -0.15022698661077352 -0.0008237814528760006
Ni 5.039591597029491 2.465155966533542 12.235207006676063 0.5845637007571158 -0.8241036121021098 -1.7513357146652937
Ni 8.179944045633418 8.791597278890293 6.090598772904541 -0.6422335446647585 -0.9301186800823593 0.7802763305045143
Ni 9.140243118795958 3.0320666544274504 0.6236569716714067 -0.06223046669513154 -0.04021153922187913 1.2923140961777615
Ni 4.245590865548186 5.2451569977530506 4.918086414450321 -1.1376195607139374 0.43744106410327893 2.2355598005603823
Ni 8.266180654559037 6.7817717117837795 3.9725509088578765 -0.5833789364203953 0.5540835298903878 -0.897910213670615
Ni 3.470087155082834 1.679759570698961 0.3787600944193988 -0.21723893385494847 -0.3363226620936982 0.8578267153861678
Ni 2.5839326084504086 6.1070445571123075 2.118249398753257 -0.4501448848231924 0.19523800410382505 0.1133131443035597
Ni 7.7502241981901685 6.238989973692771 8.506171680117708 0.06283724704119502 1.937321604043231 0.19742884110755676
Ni 8.336101234498942 8.61963019843004 11.289428555135947 0.9560757662677534 0.821608613594398 -0.706527578757138
Ni 6.290358317628615 7.975897057082809 9.879731933018506 -0.31008892520814985 -1.2175914105528902 -1.3171566091427382
Ni 2.71980749168451 8.621341863061366 1.3426748290531672 -0.44218552076679973 0.05559830609059457 0.9565370221748881
Ni 3.1958711191458384 3.9868902412693483 11.048256849081577 2.947627592409459 -0.48255826815689146 1.7734973383639974
Ni 8.690075320756963 2.6341322351379826 3.1174446702880005 1.1045438612058913 -0.8387817829395747 1.0007515119085733
Ni 3.1364966019344314 4.486263796209984 8.824411546322473 1.2762716980029183 -1.370162471915808 0.4431021190437982
Ni 1.5945812490453992 1.7675790092836563 1.7923990666876994 -0.19614457507849445 1.3299085094917678 -0.09876687105826862
Ni 4.830878941983815 2.737513097870924 4.233778539092427 -0.9380294502890039 -2.4820180362917643 1.5723013169045243
Ni 7.310731297851923 1.7058946650697602 5.266591456136313 0.2579418108909493 0.2752419927322937 -0.044144812838014295
Ni 8.779753663941271 1.8776961005656918 7.650984459565275 -0.44013275200282903 0.4918129539859401 -0.7862842272614909
Ni 0.8127149314504799 0.8122124750587034 13.361628653807696 -0.07894572256728338 -1.0085956905433404 -1.1692001637336962
Ni 1.746827376253321 7.7744727804673 11.956174383276505 -1.0805611251380485 1.106890507061197 0.5899905281996419
P 3.7136956826123377 1.473706437580454 2.6416736822636406 0.6194653977303073 0.8059953325371731 -0.7882331234577457
Ni 1.9069600442625723 2.378229170256582 7.763327635117838 -2.7644262077551938 2.1555457846295845 -0.8940535589286861
P 6.2285451384424695 8.301251374505204 7.471768571416332 0.9968717172381928 -0.8303390514888602 0.5691972456033746
Ni 0.3815935435591062 3.3601357087651205 5.456353407013754 0.7330865601925891 -0.46806238853356164 1.6317755610107574
P 8.671983209653797 9.387836327967207 3.906810103517696 -0.6191663784326499 0.33058010318296616 0.0880389431178032
P 2.2343205062528653 4.206268591517755 6.557978923236193 -0.20268186197638 0.01730043895166053 -1.0966271774619758
P 0.3309954487073583 7.0984848835673775 9.93006499592734 -0.8690657786350969 -0.9333284452689087 -0.3890030232065494
Ni 2.896707111082351 8.775299654900616 6.079998415437738 -0.2526715636309455 -0.465207949803902 0.42902147258101603
Ni 2.2012743358706333 3.2724635101487114 3.862969402960482 0.40318471402357015 -0.40248871639781003 -0.5680348498641573
Ni 7.396526186872682 2.0326385596928547 9.449026498037542 1.6607063851124946 0.7113131730712394 1.7526971137891945
Ni 7.308697545789969 5.848546387789862 13.19722878746755 0.8896104355556679 1.8415032740903254 1.1303014297859695
Ni 4.065764851780657 7.691530665832085 8.583428491477473 2.2103385640997484 1.4248971444545266 -2.245343362309707
Ni 0.7198193949591183 5.453409527897833 0.3061431825602528 -0.37132540342112824 0.3460802557010943 2.181739412305817
Ni 5.081232900560431 4.7570104903942365 12.952123013510537 -2.0402947998733634 1.6252274754795946 1.3544756573081707
Ni 4.434959869760265 6.807962021142686 11.344448450285288 0.2706988534463015 -0.5519942514615268 0.9265577022039784
Ni 5.456299112275449 0.024897358387393178 1.8616957172619917 -1.130670383089614 1.306037102190809 -0.2507604626511617
Ni 8.447184588072856 0.7803055739310857 1.7730305691094526 -0.44916940828380064 -1.1004635204889306 -0.3044163003034048
Ni 6.370622505340625 7.673889477131795 12.213387883875653 -0.7754398283478193 1.1812385829554688 1.765720779742372
Ni 1.4910715513402069 8.801738431706005 9.853480887172683 -1.0790606293331222 1.5367794698488308 -0.9853297780368643
Ni 5.535256545268919 3.445884585295791 9.256719136208353 -0.1102537886519456 -0.8236117600673557 -1.2152931014370167
Ni 2.7650101619483705 6.6543631267261345 9.934024830824438 -2.6463860902896097 -1.1257986568196097 -0.23555161612120723
Ni 6.025353982207525 4.970333596946874 3.641717424115633 3.292635698092297 -0.13397298664575638 0.08134661869929216
Ni 2.01332251635331 0.7072920344073688 3.7014646424967643 -0.3193446394784629 -1.290343602714952 1.5267344269080028
Ni 1.027827003617795 5.546087885435972 8.406233471893257 -1.8509060554614638 -0.0755166422810764 0.031530980728745696
Ni 6.5458472700992125 8.258174481283474 4.353771751247258 0.4207548616968495 0.6039714158597663 -0.01308768642189359
Ni 9.018613702493546 6.291757097327335 6.060523168882484 1.7654667547500367 -1.0189088995438902 1.3458442068854175
Ni 8.084348496223608 4.593822593043047 4.2952898763435865 0.9926291399117552 -0.7683734084193412 1.220036529659273
Ni 7.855335130550473 4.321364234227468 7.4725360597510235 0.015117315257412677 -1.7328857354902218 -1.0957745996536934
Ni 4.72250112282716 7.132018786344557 0.8407015684224779 0.06416419338273464 -0.38533405899539447 -1.7403617321522928
Ni 1.8812114548085246 5.5575265904722055 4.672685240306933 -0.9321434238218721 -0.2219877613938435 -0.10258213103930075
Ni 3.181570437226042 4.03818496522105 0.7357231520336305 -0.9338544929757078 0.34681841941869945 -0.7933462763145949
Ni 4.817029182466896 7.480857878708599 5.902843886844802 0.31960920599375925 -0.7923877690560676 0.23787075117268713
P 2.9618515945509727 7.4233606710928415 4.013981475184205 0.495647754350998 0.18586504752935734 -0.08277460939507035
Ni 5.069619348061857 0.6474592327946713 6.510205075026134 0.04895483263214795 1.0153445792313995 -0.44435836004840246
P 5.803132060071591 0.3806880177541461 11.19595510176906 0.34095913242444503 0.9267343369911587 1.1173852359449337
Ni 7.1383685099769 7.742788579791715 2.109656106104154 0.7475785831611771 -0.6351511838966802 -1.1247727866582564
P 3.0061432175110627 1.5232802944028112 11.757266989868887 -0.35965516617205157 0.3526982752382442 -0.8752209996032152
P 8.919852493765584 4.512638155529248 11.89738238418963 -1.746569660735218 -0.945287674513314 1.4538392814101737
P 5.02540134508591 5.401323389116593 9.754202498056115 -0.8734114571983023 1.5796886105075312 -0.279299450631119
Ni 3.4347219552000947 2.1806423353145306 9.240947895105299 1.419723570673387 -0.8890167678357269 2.806833726187127
