# total energy = -381164.1657434672 ev
CRYSTAL
PRIMVEC
9.29090305960876 0.00000000000000 0.00000000000000
0.00000000000000 9.29090305960876 0.00000000000000
0.00000000000000 0.00000000000000 13.59817576660815
PRIMCOORD
 96 1
Ni 7.241627022521171 9.315616693183085 11.988614100516696 -1.5240707640329108 -0.8126655454684972 0.8498444685116395
Ni 5.296139829751479 1.067710560290228 7.061396513690279 -0.5114142731566353 0.48032115129625663 0.34165513005020515
Ni 1.4002133929709335 7.79987092275645 7.20415030752776 1.326525709062464 0.3050469919088682 0.004055401016296241
Ni 9.009081934084097 7.019658061540542 0.974186473603894 -0.22372659846182116 1.3193207066735921 -2.1872351453130654
Ni 3.550388467343078 2.7154521880962834 5.8592902558037565 -0.15248595784827934 -0.8403547838536495 -0.6094797472725052
Ni 1.2526088187338045 4.008820197815062 9.098430689010994 -1.3771808122151703 -1.3519220376483814 1.4213724191307198
Ni 7.204370501926288 8.744885819461638 0.834434570490654 0.135119955766006 0.829292612502217 0.40677037449229947
Ni 0.15109516645346233 5.016437198203122 -0.024841087060981402 -1.1369215062056486 1.5015561278701623 0.0008921727969662055
Ni 1.0644587442782059 3.42963460246236 11.454980872950687 -0.07671066258917757 -1.9515765713003486 0.7570803520040252
Ni 8.375786120291346 3.4973374118326603 9.989192287371607 -1.1801201530803094 -1.5074305843730684 -0.9172775624536331
Ni 0.19277601500527244 0.06523050011087418 13.409582441456934 -0.017782777904717762 -0.00226565610572513 0.46169813687843064
Ni 7.437144782969722 6.149267696859815 6.534820655960648 -0.587785293018207 -0.5041817599639381 -1.5292854754646308
Ni 8.57715714956154 1.7611742612082781 11.626045906079124 0.5336221767122422 0.32426881625295767 0.21937603480260925
Ni 1.2650772104141865 8.730113283864167 4.5445373748996305 -0.17240249426654825 1.9909041652553776 0.7670739728816273
Ni 7.401049625236277 4.558925267117395 1.4695003012842327 1.9206976223333052 0.8568383833309695 0.09616568598999567
Ni 3.6248085995039268 4.467177601063915 1.5865675358976068 -1.1899335396263055 -0.6347804308208229 -1.047190520097403
Ni 6.150224659857639 8.221603586807042 8.796455905051152 -1.5462961510900144 1.5414563064992097 -0.8179244798745913
Ni 6.172216227001799 7.021051696974266 11.463806301607317 0.18240125735047297 0.2571311420641959 -0.1471133806824563
Ni 0.46198735900855803 6.092286589426297 6.399777382432817 -1.391077110581288 -2.244950754856979 -0.3524308805094704
Ni 1.0770757904048516 1.9478192093954552 4.8956833333224035 -0.04048613303950447 0.02790366838880356 0.6049083258517388
Ni 5.109652826913458 4.792312747751668 5.396259528400484 -1.2206440813362847 0.20718000695704966 -0.48035071898261134
Ni 1.3901792178481225 8.096984706323465 2.1601516458970287 -0.7609647746600958 1.5681952651559508 -0.2544309695242134
Ni 8.970571141598864 5.295665993704014 11.068669776173909 0.7967491313485568 1.3622992671176473 -0.9858064605629667
Ni 3.9479276202642257 3.605725084964803 12.684500868908847 -0.7148944626645946 1.7462765549748314 0.6824394274596828
P 1.2418592440883487 6.734371597354397 4.406705901414062 0.3660325304533051 -2.3620688747289256 -0.7507446395939845
Ni 1.2662478641785142 3.064056155487944 7.017120715960876 -0.027044662822617943 0.5856384218785333 -0.6809319896762209
P 4.051130969582915 2.0521281761582326 2.6461912943110804 -0.45198733734857 -0.6136477626072657 -0.21012263452514132
Ni 3.737581578800853 8.334841111248544 7.544580138555487 -0.09666345156202062 2.054279801298546 2.4710491959850867
P 2.964513421908502 0.615502805665254 6.359268116735624 -0.6836005376473194 1.1238196787163677 -0.7345572312008447
P 0.6977960489363527 6.304221375284113 9.158017894705576 -1.71103547238435 0.29804922043479637 1.3143438222842911
P 4.817407476461586 5.079671083282614 9.420761841206094 -0.05983419854881307 0.9050949043445121 0.4386731367381671
Ni 2.271588593358158 6.734687488052708 -0.02746483803753866 -0.7963488105863447 -0.9597709557311536 1.5253195488383473
Ni 5.481205324447103 8.426198559380582 2.8728047776471652 1.1986917454349098 -1.4037428789744146 -1.3675715712601804
Ni 1.3394508880605775 4.393853795444262 4.719831627024273 -2.7005083260553104 -0.1107646668500931 -0.7884087298036615
Ni 2.1571060879291974 5.345520978619758 11.713251249708954 0.26340823332215924 -0.43206514450334615 -0.3303852135633407
Ni 9.109498012535338 2.6339616788350098 0.13970637768907176 -2.0798419660383662 -0.9217736505517738 1.0509756981714482
Ni 3.213871964613248 1.7177857447050118 11.818459575871627 -0.41737437526039084 -1.8357704853716061 -0.3596186565071613
Ni 2.016107345647919 5.941355871954013 2.2384089209520632 -0.2869281708209704 -0.7909584928087088 0.39036802187487607
Ni 7.969875863864965 2.074751524699015 7.55314728011173 0.2829900121088288 -1.9906815077216105 0.4819625435544216
Ni 7.493456945395053 3.919153694009276 12.75727836943848 -1.10576924897256 0.014736534879226233 -0.9378967813658814
Ni 1.138981076370861 3.41680386556921 2.00734881149211 -0.40046037311387156 1.6508328347525247 1.5085143043555505
Ni 3.1100368338979365 3.7408055221042007 3.6846568795697596 1.0249260522722479 -2.0639399500961297 -0.1748517271379892
Ni 6.291780856312406 3.5319924796179243 8.740444767879506 -1.3109034291441746 -0.0878643652131519 2.534147667107468
Ni 1.0502157901455489 8.377551391840731 9.421223599079802 -0.38689009062860463 -0.1683604629866907 0.36058873372991446
Ni 2.292270143194619 5.579595986068 8.155383605538225 2.7511006942908813 1.5893652143653465 -0.7325227172693191
Ni 4.849275273379403 1.85187205523502 9.489799753321902 -1.244358137123773 -1.6055744771353575 -0.6612843906486223
Ni 0.6525307700490051 1.550019911193346 9.626284045888205 -0.13403983532794977 0.3296565629274323 -0.4874965859987734
Ni 6.134718142931739 1.5918011014963842 2.266815856542799 0.6186128199220249 -2.312849218471165 -1.3522439397641746
Ni 9.13335705116069 5.571921700279628 2.675073924129861 1.150596946810212 -0.2783563699915593 1.0462734075997722
Ni 4.170760635213763 4.020378081012078 7.630153999637572 -0.5012327046379432 0.3985574996642039 0.6231071082479527
Ni 3.2404439468829143 3.361513702461943 10.197543571984175 0.5512414324559023 1.5808839163672128 -0.09200281286155769
Ni 3.31440882480208 8.849947349358628 3.2186205450810896 -0.07422826248695603 0.7118939852753741 0.007986617749902374
Ni 5.491072263317867 5.267979103087368 2.9124843657161485 0.3426318921411777 0.08432215638784832 -1.2717696963675067
Ni 2.8407028499764833 8.898083517239446 0.10701076132362328 -0.8078534687918344 0.8432922692154186 0.2516217822101925
Ni 4.931490473066213 8.458530901442973 13.05953838411709 1.5197700797750278 0.6002428020552695 0.06444032986225677
Ni 2.784037633241275 1.9436568849000668 8.30936917188123 0.2565467303156356 -0.11915880445105931 -1.1576659378418515
P 8.033602166797708 6.500872625885427 12.487408300420189 -0.629450276857161 0.9829270821326426 0.9174176875759232
Ni 5.696642780695013 3.0261213989819837 3.8826330129234 -0.2594237947531145 0.9543441282886272 1.3878647742915777
P 1.3479706460120755 0.5554640620901454 11.475052010467177 -0.9020764292331626 -0.3231953806831208 0.7416812438401356
Ni 7.811168660672504 9.459811506059035 3.65083799304473 0.1347944541057872 -0.8343018927913503 -0.3527851785250956
P 8.024134736751277 4.2754505289950915 7.909610422259305 1.5077396309730549 0.9556222236701025 -1.1583164269416568
P 1.7559249010745852 3.8831700271105283 13.659367436604398 3.749906395326994 -0.04454539071054264 -1.1747887135650672
P 9.008868243317592 0.9573810884537638 2.025244019551412 0.21402839733745074 -0.1806001995859922 -1.2664529121402834
Ni 3.669367769771521 7.219356728290265 9.481109971847491 0.7842270876221462 -1.0493240215006379 0.48640129605206556
Ni 0.6993030333853527 7.428234807096782 11.857731293303672 0.048126423193581624 0.7472559097144357 -0.3035362116912966
Ni 5.213339303182506 0.6766852593863052 4.480367895898965 -0.8874494233486071 0.40119570861799936 0.95275801474843
Ni 2.6763746505346693 5.511902467600591 5.979103881311855 2.3989330947451264 0.6038315478477924 0.028859090323537392
Ni 4.956064911214209 6.572217469189192 7.108418702314408 0.47989331973021865 -1.45915915096119 0.7300853114724201
Ni 7.162905202321561 6.844152905920263 2.2565354724933635 -0.47208590787065796 0.03681716882834949 1.1138759372400946
Ni 5.611287255830879 3.5703081631424363 1.0731513130234855 -0.8297561824021968 -1.6289782007712785 -1.4742754377773384
Ni 5.555309565909641 6.917755438626661 4.921070725473405 1.8890134038561468 1.3502474781594358 -1.288771630242142
Ni 5.57006351970133 4.80204961398195 11.579362835410533 -0.6475158761096202 0.9443947303853993 -1.0212347194635896
Ni 1.8506828196649092 1.8045999413231102 0.31322142190999275 1.6663162751001044 -1.2620365282401427 -0.2811784128213867
Ni 2.8540167138199912 0.3056437615116921 9.88422831195498 2.102265585149205 -0.4133308013186366 0.5550690337321086
Ni 1.6768778992737738 1.3305966576049861 2.7471443869494507 1.09486365780365 -0.9848998895882974 -0.041353366135806195
Ni 7.459600895258458 4.804743975820482 3.815743157556106 -0.3815712495188525 0.4824934763572271 2.6807601968941053
Ni 6.897027434275742 8.841028082582794 6.000426503447828 0.4581559280531271 -0.5967545863963529 0.33716135594490965
Ni 6.859984604447365 6.128632601537811 8.639532555213858 -0.38908786961087183 -2.0320333311955197 2.2665639622513805
Ni 4.886429594042478 5.791326372062206 13.759449971641835 0.21990465361256967 1.0550514109027185 -0.004857842312933569
Ni 4.27513463829678 1.6382556159538428 0.28610127636972843 1.24850249830945 -0.6126964544375899 1.2695680607304973
Ni 8.104343101413525 7.992666448657795 10.106938686986348 0.37800075855877485 -0.5645011256792859 -0.18876885143971361
Ni 6.99080980806246 1.2055968501028562 9.886118081603108 1.4294091733922674 -1.3960671075967117 -1.6393312618708284
Ni 3.5257954473893 7.931801743815632 5.458389654216467 -0.6878359158849058 -0.16234639558212688 -1.9783091021991863
Ni 8.156966775390934 2.7023427241163884 3.183781517418574 0.6435147253700273 -0.7506549080936556 0.3145688153563744
Ni 6.251653446724053 3.3992998045216396 6.5358407970981345 0.6471379239449113 -1.4315087362337733 -1.5229708461005127
Ni 5.9493739211493715 2.63359004271935 11.26536748128968 0.2853166033594764 -0.3735015851368406 2.000341142298561
Ni 8.372645795114023 7.159058768524484 4.565301613771826 -0.35960374410882584 0.031083608778681954 -0.4700524223803969
Ni 3.6839359055053795 5.913390254250624 3.8529346418307466 -1.6737930430931238 2.225297756512742 0.23942472592336828
P 8.022964082986949 8.910078072872361 7.913322137964456 0.8491248167367956 0.9826861697664303 0.5633310166305847
Ni 3.5759105775860056 7.076081714800571 11.78767324005038 1.1495001142016075 0.6148466680113733 -0.34299493190755126
P 6.674017892171267 1.5487470574972115 13.723958722596336 -0.08725218555044974 0.42898084915106766 -1.301366693298333
Ni 0.8162309044553543 0.6432983998457298 7.209236147770563 -0.40174592469451453 1.0776719765157117 0.17028390526164866
P 3.7440759199220057 7.295895186310373 1.659888554246392 0.41805366071560257 0.17309926322325672 -0.5161132212942015
P 7.150836319465514 1.6294199673040342 5.084289591109975 -0.06823373546641796 1.4704465509495515 0.8403164744165464
P 5.125252252868273 8.81876707925478 10.64575345109494 -0.6091676153487251 0.930137963356069 0.3414095896983024
Ni 8.623091373457074 3.5893638049728858 5.847609732688572 -0.6305427385903916 0.4708214393359376 -0.874386676627378
