# total energy = -340896.68099108944 ev
CRYSTAL
PRIMVEC
9.01829199049935 0.00000000000000 0.00000000000000
0.00000000000000 9.01829199049935 0.00000000000000
0.00000000000000 0.00000000000000 13.19918191102780
PRIMCOORD
 96 1
Ni 6.3726407397455604 2.1157904952237656 11.410310033332896 0.5413635112205579 -0.6387450718955258 1.1163832770429805
Ni 4.774220636023013 0.5223394703716386 5.966215179604943 -1.1229298199122468 -0.8182790350005327 0.872501029568891
Ni 2.64498386748564 1.4637589681633403 4.72984793408811 0.8381318080604017 -0.5160682269888789 0.2811195345589933
Ni 3.452220199192058 4.37217616211697 4.86261793382313 0.20743994548665562 0.014628548546452225 -0.6264284593117019
Ni 4.872619219607698 4.512951699625624 2.6287094578131147 0.32784470652967407 0.7945770633979025 0.4509804933506104
Ni 7.201088094143866 6.12838932027827 2.7389887392270054 0.23110283632123427 -0.714883406921001 -0.6767868571595957
Ni 5.160789720924261 4.3543740537862785 11.55379827306337 -0.07109974416030336 0.666598089552052 0.25046787111140734
Ni 5.54952319589611 7.814629551115442 12.335163830621738 -0.8160745711500461 0.49561895799559164 0.24809294312132757
Ni 1.9197147914112629 6.538829823999852 0.23814062483462775 -0.12945787238422218 -0.23800162032359656 0.012269818506288546
Ni 2.765468248082413 1.6392729663051362 0.19403306068337348 -0.04046067911820774 -0.05695096346374708 1.3524547702234
Ni 0.6725598650508772 -0.20531764941396793 4.676337898738487 -0.44765168608769357 0.3960110790932664 -0.3178621413956655
Ni 8.546436888861425 2.3101797784395925 1.4794697345883132 0.3322605762091826 0.20987323751849662 0.8298034907003644
Ni 6.923514085881286 0.7806170393256178 4.900143046672169 -0.24772681803116042 -0.2253793035738957 -0.7701652102124413
Ni 0.833189172311313 7.290179800424968 2.5634792502311896 -0.5346303062617825 0.008561259306449772 -0.2612024839200921
Ni 7.672104464966385 3.756894174796952 3.845093070173931 -0.18253881136960176 -0.31295827633614487 -1.1339644804598534
Ni 7.558356748464357 3.802247165067998 12.96345740958285 -0.18953298329924778 0.39970344034318905 -1.1108669752104416
Ni 7.955630545923118 8.709433497761582 6.892520020070283 0.7657866215287715 0.8019409599621414 0.5915956679032328
Ni 6.883112137896739 0.7245061285744904 0.45513425685029046 -0.9107014518980122 -0.5035047885015715 -0.645479819516198
Ni 1.7478892746814487 6.3927154576503815 9.098328400159527 0.9691608815864857 0.5547551020361157 0.2820129929075401
Ni 0.18420131878766974 4.817670766690322 1.3490489999090909 -0.0873797122672495 0.12413903127447007 0.40154923530267617
Ni 6.466412939554337 2.1577345711336156 7.075012372531375 -0.1525926586294727 -0.33552099212800923 0.09566534931480944
Ni 3.328750763956249 4.460176655070811 0.5072960575517677 0.2099223455888772 -0.7822000298897883 -0.225425840541115
Ni 6.049334972949579 5.900596283639506 4.892421585095302 -0.008686472030404395 -0.952066130887728 -0.3196318317015786
Ni 5.5053065104121295 2.949648824798573 9.376936806510017 -0.7839962025582627 0.45426790585263055 -0.6089405869395835
P 0.19371561680635205 5.694420092830867 12.495692133012213 -0.49052226019897455 -1.0474214051612865 -0.4767630016313531
P 4.0158363918684445 6.020079633828627 12.367778483498101 0.9099825714541167 1.81475994455821 0.7195738704181349
P 2.2409463510562517 8.409782710778874 1.2976970418256966 1.1394920951463021 0.5088177160740527 0.10182185583450852
P 6.238701067543221 7.900745221049467 5.881950965010477 0.6097877654312273 -1.0812123855688025 -0.64546773533134
P 4.725945719156655 0.9558938563888439 12.582107210239338 0.4267018233089038 0.4868491822227616 -0.13313429279454492
P 3.874447610506453 6.094191957162779 8.09339487574605 0.8664057153044306 0.05102302801508632 1.9533634879974426
P 4.713861207929136 0.9767621839862192 3.774332845961621 -0.7818102506505374 -0.0349924569147849 0.24636876134136929
P 0.20970775394050303 5.376976215809429 3.53274813542715 0.411054346579634 0.7633975524713046 -0.02398016496468128
Ni 1.6099274442645752 1.096642339021616 2.5700653088501886 -0.744333593861318 -0.3948551111119522 -0.4624470992293132
Ni 1.8344919323813598 6.415594864355024 4.7130188994599935 0.17559323328970405 0.16380832483963403 0.07700968188683512
Ni 5.847244068399198 5.610964819025287 9.13525920756835 -0.42129967845672606 -0.011918348704140765 0.8199780199695105
Ni 8.681179189048281 2.2802480674215766 10.17505113589805 -0.11576494827816192 1.205652235913143 -0.2851278843874379
Ni 2.382091638535301 5.219138069910872 6.926362964311713 -2.031156327907205 -1.2165064050188275 0.03219483956498972
Ni 0.4855637775845443 -0.03305384369485721 9.075375043460808 -0.20277416457987013 -0.5101063529784893 0.09195961832844808
Ni 1.419857922897989 1.2302663710053277 11.354556246943417 0.12811447098245032 -0.4331182683582089 -0.21508949161211346
Ni 4.0118863799895985 6.8239431243416915 1.4930386566725875 0.4060751481974877 0.2822233091461333 -0.21034992004459904
Ni 5.931565098233018 7.9854360008536815 8.072289367070104 -2.0387608797273407 0.3106013460681941 -0.11775446790436495
Ni 5.235695653950967 2.7847223014187987 4.916959455691542 0.41981049550570926 0.3676417839219539 -0.33506230732403586
Ni 0.8774284035251955 7.320995304055145 6.860261589726371 -0.17484118561502793 -0.020843161997596362 0.31659227354430636
Ni 5.164514275504087 4.521843735499009 7.086746072201619 0.02102056811572509 -0.1180534872020225 -0.2139926590035089
Ni 7.94994902198779 6.962842857122492 9.285452547371706 1.3471289871351122 0.7452669043088649 -0.45300857952423274
Ni 4.6390093846541935 0.5661746821056756 10.319185987162115 0.09673775644338177 -1.0431286913232036 0.5812919719843795
Ni 8.252783266032674 6.9726186856080385 4.837909617508831 -0.4102223375966419 0.655081090051388 -0.09996423380047946
Ni 7.225942506787931 6.210194246655016 7.09305526925742 0.283246351094009 -0.936912048855109 -0.8134412472922572
Ni 2.4218172146227848 5.197800791131534 2.575200324292689 -0.6241088100395896 -0.1295548029734027 0.5436695336459153
Ni 2.4904373981527885 5.073032721853362 11.322377177568761 -0.8823694377225385 0.6111563636439796 -0.4425593591664507
Ni 1.2285619138247295 3.233030613083932 3.7850105036432513 -1.2675150348562108 0.4405603264585509 -0.535009286867756
Ni 3.6586308655916797 2.545223521814869 2.6768202417657845 -0.583258351682131 0.17597915587421306 -0.256215572228462
Ni 0.9779886716928928 3.261762891271156 7.928894015746826 0.30823541693917883 0.9057006562493112 0.3688954538233969
Ni 3.63059299588544 2.7125669474401475 6.801670648686015 0.20663081932179894 -0.7986692311894052 1.0586141885533122
Ni 4.018713227003952 6.5579486029568255 5.977368101272909 0.23263032870935418 2.2064405145969226 0.15845940182289486
Ni 0.6168033731738107 7.352162521071796 11.168289739296716 1.023412700951515 -0.13435608101678795 0.05931303593802044
P 0.10679100608343917 5.527563654971473 8.006742617440354 0.5175350413423926 -0.4241055233366373 -0.5054418576232843
P 8.578974886256123 1.6328339058450994 7.954632221003053 -0.6976737279109338 -0.38998492750384445 -0.10237875677924303
P 1.7116988690426127 3.3402220313304323 10.390040001610817 0.26377332997106184 -1.8155083926884605 -1.207939489285423
P 4.139432083191706 6.239675043074991 3.8058788312406264 -0.9477718743877483 -0.9601692196108367 -1.1455311022515304
P 7.024735394849713 4.106199677316024 10.574986231314455 0.29860509293826637 -0.013223697779125613 -0.8253680806368301
P 6.274097863489502 7.859874321882958 10.227808143868941 -0.4023179951479007 -0.13253394020638465 0.6803141535865639
P 2.4678736316667758 8.439110196235513 5.766392375482713 0.962616909820381 -0.3977866829364504 0.07310494751579022
P 6.683582428263236 3.834262101528967 1.784965276590839 1.0807716984869582 1.0033784080084591 -0.8498966619058136
Ni 5.101268993982742 2.816421597661138 0.5447472204067286 0.18901104935750673 -0.0027953033569500245 -0.4289926762256096
Ni 1.5777772334241935 1.0043401208024565 6.968864370664743 -0.7557516058902726 0.4567158531724908 -0.18131856580925546
Ni 6.943309236735321 0.7907418757100486 9.30147624852772 0.04643489442377164 0.2484809225883656 -0.4991801929842887
Ni 2.6535602631403954 1.399043705052379 9.130943053035894 0.14076481275660918 1.1692096768153928 -0.260990367909286
Ni 6.250740487310937 1.90792788381845 2.606798615665067 0.9132267894230273 -0.3724998833452036 0.3885091142892664
Ni 4.067781753562862 7.036215680515856 10.15457961314695 -0.03501636817418485 0.1346622994032971 0.5140393694843082
Ni 8.125634367676842 7.255576614171239 0.40966312695455775 0.3909663175805073 -0.09245018481162143 -0.032393585839357114
Ni 7.557770559486903 3.939469495544083 8.379302687609638 0.5254195862967919 0.053269657957417935 -0.28761954046104016
Ni 2.923829454914699 8.513628342707904 12.261102911551761 0.868788356603994 -0.7889838855808411 0.06940333029448693
Ni 0.09959260544029963 4.922950307041124 10.27375453775101 -0.22513864831799935 -0.455632390300325 0.43719526664105995
Ni 8.480107351489474 2.4449761883782126 5.826158399965568 1.448597059174628 -0.21499333235388135 -0.22498926722432866
Ni 3.676559230009822 2.617586296508619 11.314946104993032 -0.5828811708483703 -0.18439309096952117 -0.20434896526615776
Ni 1.1311192691878933 3.302047601460212 12.620424129122538 -0.8048655898081041 1.0179038553181436 0.06548188375289367
Ni 3.208293438235358 8.300363774418047 7.9290653632940815 0.4766102781035727 -0.36584741102569246 -0.03846858838884343
Ni 5.500157065702492 7.963016527039043 3.6758530977492887 1.1876295740834772 0.43081995924233546 -0.42586544345053756
Ni 3.0902530147599716 8.12603117252312 3.435245068234176 -0.5709710496743456 0.8488376245136801 0.39209014677230536
Ni 3.2901434560719083 4.014402483446672 9.014777532459163 0.18536805328828077 0.4963260113649452 0.1558949835298283
Ni 7.182194772485913 6.162433372430427 11.457919400252543 0.26082504597601536 -0.7206352218031138 0.4143936953655121
Ni 0.4692199270639207 0.2403852777036799 0.3273459615944361 0.2563369282976747 -0.6460842858694164 0.214798699844572
Ni 4.497341036241417 0.3033582068078076 1.595121212523274 0.0693105134703645 -0.4727875619233729 -0.42144854532976445
Ni 5.947247907952912 5.673804277408395 0.4308137270903071 -0.1306333807495621 -1.1625710884529525 -0.041379334277735186
Ni 7.94282457133873 8.858821504092834 11.396609444185993 -0.6506117414261247 0.45513668161082904 0.18333431068770362
Ni 0.08698773876663872 4.8922610594983995 5.701492237386554 0.14716505985599815 -0.7472541099422227 0.914737826750915
Ni 7.888119612304298 8.750638073730642 2.485525134521721 -0.22910843159902478 -0.30929239744878345 0.2193482668884674
P 8.563950411849369 1.3934162908688172 3.6494024474281557 0.48832165300323 1.4324351047027846 -0.12412026222139269
P 1.7603796090472072 3.151856967144444 1.5814603038609991 0.5155169824710992 -0.008936640367997512 -0.2440120881837346
P 4.862320330188423 1.1992434466600508 8.227551888784646 -0.9208840488579688 -0.2968454299346823 -0.7744954621566791
P 8.450319933142833 1.7779111686190727 12.390335937179742 -0.39059505028401764 -0.08369352166491394 0.07748585019230526
P 6.224380019909412 7.569746851210893 1.357430600457492 -0.36453743396501737 1.467878276001743 0.8689457081174647
P 1.825834372098957 3.2539801053089543 5.836652084491196 -0.6774586864156398 -0.35908438127024606 0.9204886131917631
P 6.867339145257236 4.063056168575383 5.834394806013399 0.3081832235450047 -0.05717696343162411 0.9116566167224298
P 2.3355031422656203 8.504159136149024 10.144547665169718 -0.09643899425604036 -0.3492123735721728 -0.1729236568773409
