# total energy = -340859.6941940378 ev
CRYSTAL
PRIMVEC
9.34599973854326 0.00000000000000 0.00000000000000
0.00000000000000 9.34599973854326 0.00000000000000
0.00000000000000 0.00000000000000 13.67881532549132
PRIMCOORD
 96 1
Ni 1.7494029278383507 8.741491153331188 1.227569965611419 0.1955748186179535 0.471874048970168 0.7596517122756272
Ni 6.641435660344654 5.723892133506977 8.152738028993578 0.011425725338438388 0.12694667592659428 -0.2768113941019426
Ni 1.4574993172071191 1.2363823087889616 12.323764263700856 -0.744649325329524 -0.3443671296647295 -0.2254440953735601
Ni 0.4499753084408949 3.5040676535438737 3.0471202292789816 -0.11626631339461266 -2.1528736371140598 -0.06581458450196408
Ni 4.331469012657085 7.4744726573156015 10.523920040535836 -1.593188701876495 -0.36268675390952376 -0.8627514063812948
Ni 7.8530697617583565 2.586309168711623 0.9771953049318371 0.27129560649003603 -0.859872542171603 -0.9029997123783804
Ni 4.566371370727247 5.533579540311199 2.4987502353219466 -2.005283059684869 -0.6129869890948152 -0.060478774111347465
Ni 8.821062995322489 0.3296502344783619 12.949173333713127 -0.46811406770710345 0.06508336276289436 -0.1012202176947676
Ni 0.023422010008738503 5.8086416593675745 7.720213571312156 -0.14914352373860765 1.0743907346612787 -0.1960849254851526
Ni 7.776946593679997 -0.3400046676169763 5.627067575951202 -1.4814017644094744 -0.008409821330250032 1.0489468406668774
Ni 0.45432960973097564 6.052338603215727 12.096736845031899 -2.338250689263405 -0.5888394453143343 1.6260162899294768
Ni 3.184434461612643 2.7873976996353758 2.5519467313790627 1.2840068618636467 1.6016355470922676 0.28149131607611516
Ni 3.468066862452672 1.5793150781320213 4.672546601046977 2.713508337859404 0.38273878746439244 1.5118436258390993
Ni 3.7060347084454492 4.297711261509261 9.645014745922783 -0.34602343432122984 1.427499100853748 -0.30127852600537147
Ni 6.6711933235934575 4.900145060301518 5.900644615645065 -2.3284319034007708 1.4997419574795592 -0.306188304602163
Ni 7.240598359219487 8.226778908324501 11.170366956017034 -1.3915602208652937 1.6635322845970641 1.5718385183354928
Ni 3.431804383368076 2.22087123193668 12.697141627275377 1.3446327030758196 0.6292319901987679 0.2860144007574494
Ni 5.429212760945817 3.365391709044587 0.570057386409562 -0.09466698995728212 0.4676682384189365 0.15380441954938676
Ni 2.9992154382882825 0.010016107947154965 10.984936713098005 -0.9358897782381818 0.5543781783126711 0.9516367566597933
Ni 4.967875520591741 7.345684780566701 12.658403392853279 0.922309982671218 -2.6750490054419416 0.3313478345869261
Ni 3.0605345427403527 8.741257503337085 4.334816749772576 -1.844003671914676 -2.3938366540588256 3.2433376231881175
Ni 1.1633900506315666 8.223909686396933 9.234609465882986 0.23499034430109855 1.4330819942581643 2.2957241287551042
Ni 3.7056889064541787 8.959785669820596 8.95564352272516 0.08069895781296424 -0.1320893964697983 -3.6974492059685415
Ni 6.7643168652426615 2.9163351123805006 2.949016204355504 -0.21973521791424092 1.4882090171392952 2.2581168599252917
P 9.277073015811045 7.731964296815523 2.5787987233012153 -0.8427307402849938 -0.05072015206268684 -0.3922611251325309
P 4.521389073862773 6.47627315251399 8.195019331926234 -0.39906837786235144 0.6691699640442862 0.6276739016830287
P 9.019282304318672 0.19994177675270158 10.279957670294383 1.754897720984939 -0.7815667671811637 0.7176758820644737
P 8.330285855711589 1.7313371102944013 7.190611279481352 -0.27507744212997143 1.435510658304315 -1.4718521730478265
P 3.513292155311012 5.379566810199071 12.124874846521587 -1.3781922841988201 1.8867775725470928 0.2054977341586203
P 7.79185346330369 7.564259677049032 7.488549602160245 -0.6222139070097219 -2.4598931793682666 -2.8542438400399748
P 5.893101459235484 1.468415444931554 1.6427435747308425 0.42351339827859313 -1.0742398109057112 -0.6623552551152979
P 8.046139424884537 4.533417375559133 2.0792615781114514 0.22841654773832273 0.5043735642597701 -0.39465173685189453
Ni 2.052175936195197 6.7679244211515925 7.967185353477641 2.7865819179166267 -0.025036888363969785 1.3032993915446716
Ni 9.203342423672288 7.62600869749025 0.44470136077402955 -0.8771567831733474 -1.0184175617297686 -1.0552897521657696
Ni 6.619622096895313 8.663741781293881 13.521317681870007 0.8708912618796097 0.3283018486717507 1.4460627227885483
Ni 7.884790084957613 4.753338096007489 13.48870761949321 -0.3550577766093562 2.1480348209645195 0.7877505273943723
Ni 0.825774220554287 5.175328677354826 1.1611853292872223 -1.3637750803322255 -0.0063663085376600035 -0.0012264162079333718
Ni 5.169926689491193 7.882051707026741 3.5695550738907196 -1.8859255089594424 -2.1466888484595867 0.617758956562162
Ni 8.867391116152989 0.42178496935252735 1.7767138083489193 0.3023743301727115 0.3368119430252909 0.28338210534092484
Ni 5.6452922754911405 0.2305929175789491 7.202389108384035 1.0110791190868265 1.7817719196679636 -0.9424921140460478
Ni 1.942734278957925 5.935728564159413 10.403313651980405 0.657070866787907 1.3189211572423285 -1.4474104950656943
Ni 9.498339560225427 2.9947106664020007 10.471639452455598 -2.6314006726243715 -2.5202971343776204 2.8440640712934955
Ni 3.477768010207778 6.114321273651046 4.873379051577194 1.3340510709052313 -1.5864408416297 -1.084832498819893
Ni 0.7855920291686398 8.138907818542705 6.8566160897126744 -3.447564975274746 2.9261198002446704 2.146977840454915
Ni 1.803768608465952 1.1638666966195343 3.342815512014497 -3.030171316740646 -0.9009726546460225 -0.964180397652759
Ni 3.7273529339072953 2.0429794724273513 8.7141849458205 -0.4740630862016868 -0.2889220613225476 0.20381931801493286
Ni 2.3517993426315513 3.54329281455368 4.839988598220097 -0.42955857603140857 1.3851442900366209 0.02170011068125295
Ni 2.6883301021362223 6.512731897593632 0.3199060951243414 -0.19055268281301374 1.529119896421044 -0.7567846751404773
Ni 8.327977393769864 3.8903378237929305 7.821327942759641 -0.9839701786851764 -2.0484282276137753 0.2161593276375245
Ni 1.857143613118562 4.103482694412335 11.864252297100702 0.05424050651111949 -0.34800189820383937 0.4407202490751829
Ni 3.485983144000396 8.848390698632633 13.216525937564123 -1.0387112789817983 1.4088010102236124 1.0628397965988858
Ni 0.29909629204966076 8.252798171667676 4.618651958807485 0.9970329254064055 -0.5009087456396212 -1.7146838677702145
Ni 8.39204422215257 -0.03742418685526978 8.273248153751439 1.4534117069544517 1.5280526314987941 -0.6766351620730798
Ni 7.617830947696687 1.406339314498594 11.09161756200497 -1.3988251299578232 1.3629880656545557 0.8464704098330842
Ni 6.191640729699206 2.3138171995903667 5.542546092484848 1.1321387401050245 0.37112614292612855 0.10026633842193054
Ni 3.9492082763068144 0.0014346109637849089 2.5335762342428048 0.7338604622441361 2.251029614061207 -3.3167927549544745
P 8.729687155629167 1.3602261516626675 3.775913814081432 -0.159669362970596 0.443763406776881 0.35073086709922824
P 1.1754650823267463 3.942441772477627 6.654880815605248 -1.2996520246000711 0.04969042524659184 0.6202123031986608
P 2.275741596551541 4.8100122385768165 2.8089579864911114 0.2523244647041719 -0.8700232574523596 -0.5113510240188677
P 6.468385128713114 7.22885043751605 4.955821050096041 1.2858811960682242 -0.7148630952060269 1.7071695616710407
P 5.253059357392606 0.31543683803716266 10.652487351690304 0.25758185644836934 0.3411792188550511 0.10384017181611793
P 5.848053740372661 3.461505970618294 8.132685251899787 -0.3084832712839268 0.07220608985060468 0.2650015459512082
P 3.0859930460976823 1.296635969267928 1.0350947080702337 0.3495057364428755 -0.9171850027398268 -1.6471718409611695
P 2.3606406584083626 2.474316053538759 10.637686091863944 0.878721556557306 -1.489632636959699 -1.5035160798100105
Ni 0.03362223415124567 3.2717821754076515 12.987583523543508 0.5230629131391573 -1.4196448949166518 -1.161276023790613
Ni 5.807295835401548 1.3924791968484769 12.815231138094344 -0.1411993291908665 0.13727968242148614 -0.40023745846978814
Ni 6.14134990496874 8.254340261628746 8.974834598640703 -0.7216649486192087 -0.49252977754730665 0.20395224404837134
Ni 1.7540478897210943 6.791485686556816 3.211799548921843 0.9832911503402807 0.9205282081804469 -0.06341008882552951
Ni 6.779205042866826 8.494074501576934 2.280052906242707 1.8805585882205744 0.07877962930306433 -1.7987957079194696
Ni 0.5064372968155775 1.0102184604982059 5.755908724898756 0.16647558725915199 1.271594604242223 -0.2690307217152592
Ni 8.301023530450284 7.399218667215301 9.47731292995622 1.895835568984303 -3.4154585816585046 1.1711554876878538
Ni 6.8426643812648695 1.4910981863589545 8.83899049206993 -1.3825374485413933 1.800333998940867 0.3009283417548043
Ni 5.343257601115655 4.643429138782014 11.953068267458645 2.293861107404437 -0.8280389426007739 0.713109859960346
Ni 1.4834344665524164 1.1875307680221623 8.384032831154808 -0.5459930395727695 -0.10323210591847382 -0.16458171267054883
Ni 5.1505617779800374 2.758163412373362 10.486836048071979 0.5236488675496143 -2.3719524523912243 0.913188222875608
Ni 1.314813938809046 2.3078357597413612 0.9610463519394987 -1.6634592652672837 0.24427614047839866 0.11531911898999495
Ni 6.172070206193242 6.0537872331791585 0.7135979237860475 -0.38623754464627025 0.6197016821108295 1.0685265625710176
Ni 1.224204471096377 3.8528323267397138 8.981865594263214 2.756454759513943 1.8208650290146833 -3.625064424448228
Ni 7.043005232207496 3.9598627160378554 9.944608245159891 1.0832224740202956 -0.16451486398835538 0.6084304800723844
Ni 2.879278223315959 4.268710624241348 0.4064678103391912 1.1630889086296354 -1.3134030556375766 0.48283003376103945
Ni 2.9698316150300434 5.086289337602521 7.0598691541817855 1.2102668518670188 -1.7901336613690977 -0.7110432072393045
Ni 4.346151578286441 3.0260851876099872 6.62689328471176 -0.6647404675180228 0.41532906269558795 -0.22908014946425065
Ni 4.63410183101747 7.821863468546123 6.233996800629977 -0.7215063115541573 -1.2083547224459705 0.07499882210439342
Ni 6.143518176914005 0.8215143138618233 3.837591804924443 -0.030927799927108025 -0.9417575498728684 -0.26885537247965957
Ni 8.374427012597296 3.74662438542081 5.429163227147067 2.6135117081590926 -2.0523692145393944 -0.7314873340262692
Ni 6.037693421585428 6.174210440139214 10.339926277780545 1.3946704843595013 -0.5619968712001935 0.5163525909985172
Ni 9.174631512397061 5.500933963135298 3.882266618396679 -0.7064005662609705 1.4758728641714454 0.042316501380023894
Ni 6.679903795373571 5.745901962951365 3.281574913960445 0.7400938447483576 -0.09181923609584187 0.5987433346916076
P 1.9847538938971885 7.171923952953093 5.719139692626948 1.372353566029856 -0.7351814950484048 -2.011460135029858
P 1.5114257358458092 7.833377740255458 12.217835767774897 1.3942357108149277 2.0580274412664363 0.8050041722684974
P 4.4248075123008626 7.43092029841503 1.3242776981701445 0.609983426381801 0.11082817309817687 -0.1510782788674753
P 8.950346210058884 5.09429885940033 10.235816513408675 0.4377657944325493 0.769764632339913 -1.0856053724301755
P 7.129502460023974 3.251099477929762 12.239681107623438 -0.5753396110556865 -1.2409645380611918 -0.41240417573930915
P 7.3830968176222775 6.775401220962849 12.72046363508664 0.29820734327921544 -0.2740515719686184 -0.13841302469498099
P 3.6547625537397552 0.6317045354533511 6.645688090237306 -0.694560636203249 0.5197374483103501 0.6561326712443539
P 4.6766635139430495 3.8813469720198945 4.471317880126763 0.5203879374101554 -0.32280457300260534 0.10624415327192024
