# total energy = -381171.35543571855 ev
CRYSTAL
PRIMVEC
9.22117217694204 0.00000000000000 0.00000000000000

0.00000000000000 9.22117217694204 0.00000000000000

0.00000000000000 0.00000000000000 13.49611757131870

PRIMCOORD
 96 1
Ni 6.915584036785536 5.9104854933469015 8.591722953746437 -0.7313536366618824 -1.9053324527311442 -0.20488221206180846
Ni 0.7093912285040657 2.4705456642411647 13.409661839664704 -1.2511152533419485 -0.3863324183529217 -0.014550129900033005
Ni 6.883752550515477 2.199812049846919 0.2657532593147381 0.7509662686864873 -0.6306730935206687 -0.4281287855634175
Ni 2.6095087285777203 1.3192730998428024 12.22979073195291 1.260761518182461 -0.7866668074118903 0.2922295284292258
Ni 5.23153980893839 7.7264939158669375 7.817221028674329 -0.11311799757361808 -0.26939041904752314 0.8829034558491375
Ni 3.7149520673786918 3.3750596618415023 8.640336051216636 -0.30617082110066624 0.15224993057807326 -0.10553350035814082
Ni 5.77863195273984 4.924391785714347 13.403628426725392 -0.9546410907037559 0.42205481145519574 0.5312590757967045
Ni 8.118089433662593 0.015889001735787604 13.371453912851265 0.6555698567623485 -0.391981389108583 -1.173752558991069
Ni 1.796708509205079 6.602027298915581 12.207035645432452 0.6889674583861877 -0.9163938742970993 0.9299605572379404
Ni 6.854244799627821 7.876799021950936 5.829715402229665 -0.17215052615674223 -1.1485693748572219 -0.4816275288125059
Ni 3.5532495925143364 0.4858266760209539 5.662417520103237 -0.03140011157783624 0.3010000755330042 0.3136401328945179
Ni 0.20727996246198643 3.279334673727515 6.53488794447401 0.13494383519945793 -0.22378444828295008 -0.02867217112371191
Ni 2.5708166902262812 2.6273240331761425 1.524318772292264 -0.4580566834711014 0.8903102898361699 -1.2133676022795294
Ni 1.9529336078109136 3.06868621707826 4.074518765820226 0.1004170050671819 2.3971415500623423 1.4739509645583841
Ni 5.842672993338207 7.824385879436736 10.458330714218299 0.3002963645977602 0.7788095161510007 -1.3250578662676857
Ni 7.5023364420144265 3.642925491696354 3.2006587108060867 -0.10352212635506687 0.48796864053918537 -0.029597768261774834
Ni 6.6673500824431295 5.805631544802045 11.344741706649058 -0.022278866002858406 -0.5109203642393524 -0.5775962683003472
Ni 6.321048962260027 3.2933692977434568 11.798778391674638 0.8582733160052831 -0.354545355749312 -0.010206251109040488
Ni 4.398637434273533 2.386218044907535 0.05649996601213964 -0.0011904207636753692 0.07667286737270668 -1.0742686072611176
Ni 4.498779363848516 8.462500213554454 3.7499768455651243 2.178576698307119 -0.1827164745980466 0.66621833761513
Ni 5.481931517564457 0.7261507088910392 12.117368045305371 -0.5033422947817784 0.8237655120364006 -0.5212885948475537
Ni 4.612909811578679 7.396606482115094 0.75978124584803 0.2524612473923523 -0.29102830903227295 1.3031173574408523
Ni 9.226151585354843 7.398856448120278 7.167963830127659 0.7972651517530269 0.362891156610846 0.008138312836418242
Ni 7.14615022528396 3.056698693280149 5.872970076562107 0.8470694768696637 0.259974525050262 0.23243698175162553
P 1.7047088746406587 8.349420979449665 5.953947644052773 -0.403234336314583 0.653091827535501 1.2244156325635753
Ni 8.941254250534522 8.275504063476085 4.531780094747498 0.4060327249953265 0.2207415476915682 -0.6739858973756908
P 8.309539409890567 2.3183041120051637 11.879039474089064 -0.43578758766025594 -1.1257870868553836 1.1005632792915885
Ni 8.720545495067007 6.859805166435714 11.363150854734096 0.16991778017148157 0.2471737737411679 0.7408168389573112
P 9.148232680667126 4.293239436571686 4.568503412844402 -0.015142769178709405 -0.45873056960967457 -0.8809105937888249
P 4.632624677640494 4.873205059096415 11.402437658689363 -0.8429896503733354 0.19166648470248282 -0.1404197707123646
P 7.817045826403433 3.212425848589755 8.180091673098065 -0.408175225259626 1.641689220580044 -1.5324021667167416
Ni 1.6724347721072845 0.3616866459193692 0.7387855589742475 -0.4357153396614238 -0.42656735461356865 -0.7528598861647744
Ni 5.941265765991587 5.437651448888668 6.4560570658604215 -1.8193128540362151 -0.2753702907800419 -0.10147038603236073
Ni 5.495837045170266 3.2659455317622417 1.774766730068461 1.7873686970294507 0.6247690693314079 0.5401175546285988
Ni 1.2432353142741732 1.2925040370844068 5.320020644209458 -1.1288179032619075 -0.9612038315229382 -0.9230800280680231
Ni 4.0718851990535025 6.308093215385916 2.924906012409294 -0.08332251147874037 -0.3556640427347875 0.27576469800498316
Ni 2.7672460994165475 8.648150072498574 2.503881123689279 0.2851484532127283 2.2034086697491344 -1.2289425738996513
Ni 0.3904852886685064 3.4804115536825875 2.239438192937396 0.7661674019069579 0.4277176661679279 -0.1366811296055388
Ni 4.216869688805571 7.129091056802034 12.006658652443745 -0.4912164580525218 -1.4518117094571836 -0.28534257150140535
Ni 8.605142525579813 1.1807618729417138 1.6774326474138812 -0.14830765810087362 1.908929940274416 0.7074025251629236
Ni 5.659088676956223 0.9211296277017339 9.680603223127282 0.5672874301751714 0.2053879480536334 0.10641076075677158
Ni 7.816400344352766 -0.006418857935280455 10.821051975653164 -0.10046585602724635 1.1614693707483417 1.5293150431509854
Ni 2.5777417905127282 7.639353839026828 8.094012953172696 0.5186161902217133 0.1117699681861559 -1.8450429118124676
Ni 0.2953089602975867 5.436277494237962 9.327261738005829 -0.36399313142577316 0.34202845422922384 -0.6837535182854161
Ni 2.4499179021362623 3.8349102959091668 12.599921205212226 1.0249491922006992 -0.3240518151461451 -0.9390771748272279
Ni 8.047602793729704 7.571237040337104 9.253019314655269 1.0058834338185 1.1529232809505434 -0.03580646817564801
Ni 0.8245350830537762 9.250218844672588 9.42159893971088 -1.63098906055372 -0.26355658597456544 1.587800440981388
Ni 2.5350569846193034 2.7600074792769194 6.692562611342201 0.8826067505443251 0.1028595530704035 -0.7934861443265689
Ni 7.332786749648386 7.77579952336578 2.3305904017810115 0.6226952175215147 1.1210503435013468 0.068523755903011
Ni 0.7832906242505547 6.1842713157235885 5.139199913121547 -0.5298768507371971 -1.2831943932646803 1.1019205646504313
Ni 4.381753468062502 6.168180370317664 9.526423380504848 -0.5676371002051063 -0.6846338640078402 -0.30944075010118965
Ni 1.2154980284397765 0.8130206053870835 7.4786039112458145 0.49706828884760845 0.012924421371151936 -0.4562458555146078
Ni 0.813380231101027 8.728079192715512 12.060346160949406 0.5962529641695861 0.8044783816720145 -0.6842463987614344
Ni 5.845955730624458 0.9022658758295844 4.772604837265459 0.11597063653106479 0.8625452039077597 0.5442976541482175
Ni 2.3845397915757993 6.922518358244137 1.2735748148899753 -1.4297189913232022 0.3283213890557765 -0.7154153681650711
Ni 6.009696084534492 0.05569587980045101 1.3459785365133463 -1.240485027321612 0.8202253600936262 -0.9710663261393147
P 6.698895712376465 1.5123460023695974 2.6095954075959527 -1.3867316891283987 1.4964707429274549 1.1793290246375818
Ni 8.304587640444732 3.6812025773009354 10.211986178049916 -1.0857357273604527 0.1445422775211704 -0.4815149144940417
P 3.8237895622933813 5.8667494738281025 7.192755873576583 -0.3708739177060065 -1.497660392360182 3.3891783078057367
Ni 7.85553499896752 1.233479314136942 8.799738765746184 0.6275936832643966 -0.8992885820753803 -0.46766026799913657
P 4.021085761665972 0.22669790678049467 0.34127465924283307 -1.212326048388893 0.28522892874167655 -0.27852914812399776
P 2.518753952253873 1.1056646469326288 10.011690331376151 0.028400919740196248 2.8760187698232214 -0.46708768332511813
P 4.021343954486239 2.8663552577104623 4.93789158174545 -0.7216693194945829 -1.6915570519447642 0.288756996499593
Ni 1.3583247639081846 1.370450605288581 2.9948421483646848 -0.7626138802277447 -2.7637050133184538 -0.8970098133435326
Ni 5.8233269741624865 3.690313095387499 9.555210957847402 1.763941319244446 0.7248222633012679 -1.8691950835786388
Ni 8.728466481945912 6.132356116505618 2.904296692648697 1.1580585452945797 -1.4031530679092157 0.6188622169286697
Ni 8.107512749203797 1.5767835533705168 4.167344617409501 1.6303984781575727 -0.3260629320389029 0.037242429291226176
Ni 3.447999133566927 5.131268782953273 0.6851533775015018 1.68473411548566 -1.4865542551446915 0.7680579340614514
Ni 0.2679967704994152 4.545337062045945 12.092129697124271 -0.5879225899270197 0.7681445802379868 -0.1498634326237677
Ni 2.994667868211005 4.956647445903416 5.341952280056708 0.8208005158708056 -0.33303782069483934 -1.1968035272732616
Ni 8.19300223622863 0.5458703384912581 6.2556394997142455 0.46048689017914884 0.9211275323273427 1.0822385128404717
Ni 1.5525687552983338 7.24015085420545 10.041853707603842 -1.094388003718812 -1.8641276963580604 0.3068336514956458
Ni 3.3554738921898206 8.54553686878675 10.298643987586455 1.9408954374374185 -1.3280372606109838 0.7909278966810894
Ni 1.3488730624519822 3.0718398579543784 8.717047904469606 -0.9735227580996071 -0.04174108849252811 -0.2791490410961837
Ni 4.237903182485178 7.073699475682612 5.690138207827759 -0.1486619561164988 2.250479655095008 -2.3728381974302875
Ni 5.540891692306855 4.163008822263445 4.36872026334231 1.4411110352102277 1.4563551058534918 0.8128038708185744
Ni 6.334862278144311 8.004069639998258 12.738958038926 0.21273898910206587 -1.19826468519982 -0.439698749789204
Ni 2.143286264552753 7.422388879453184 4.119420341499087 1.6055780766797831 0.48066696467144965 0.08997241269509021
Ni 6.360727666031772 5.745334300097551 2.309806801866734 -0.751569449488125 -1.3910938227518364 -0.48636247239433017
Ni 1.8414773000049447 5.3470810960078685 3.047638891640424 -0.2476337440967219 -0.7454723354514516 -0.46764098472542687
Ni 1.0575301282971397 2.456040760445451 10.91564644806127 -0.12456557728892739 -0.05064044786468699 0.43022140642638806
Ni 1.7587633857979839 5.199523899225284 7.2598316019303 -0.6161695005878549 -0.09150196196573919 1.4974297644066146
Ni 5.126621312188467 2.7517084243397663 6.821383308428341 -0.5663132391873602 -0.6345839985393007 0.16388571504478874
Ni 3.8728738616605667 0.6502862813588751 8.331018286185135 -0.867078573001739 0.8442080961614686 -1.242258574282267
Ni 7.92537615684974 4.290786604779149 0.8176247366427732 0.39345617388189663 1.0602406684131416 -0.24120830018635228
Ni 2.409298638804973 4.604536987264306 10.192740669650657 0.20791739934370643 0.7241540335896496 0.9778401545280385
Ni 0.21262178748986743 7.115554376082321 0.570085136563441 -1.1530245824150982 0.30757644319894123 -0.34816619169584556
Ni 4.309302718461153 2.749366246613058 10.898546706421874 -2.281112035268884 -1.153103772392466 0.4711351139216144
P 6.403329481375826 0.18281158215561283 7.3516320591762305 -0.47915489890229734 1.4051485010726896 0.4019513558371013
Ni 4.091544738082404 1.4525190374448746 2.848369361427221 0.6717814335252044 -0.06839751473779188 0.766233479258203
P 1.2022010981960263 5.009991926805006 0.5674819996648205 -0.22141183428571548 -0.42210443374620854 0.7347852880512507
Ni 8.116023891100456 5.488063597045798 6.187915522958214 0.44001370992646155 -0.46001457852842065 0.7653402780199722
P 7.389358640803314 6.453529542573452 0.0949079922612851 0.211779453402274 -1.161876119268457 0.5951702726283684
P 0.2522082795400887 8.664370114314632 2.323073302242381 1.01411327792746 -1.93033308854054 0.7250595761230545
P 5.934783281968455 6.6681431032482354 4.230007092771085 -0.006297917193569799 -0.07679782298634515 -0.019397430690005303
Ni 3.8491846704010704 3.9564545660498527 2.961398801202388 -2.0030269166608408 0.7848217837833515 -0.07186978955710849
