# total energy = -381166.0079140181 ev
CRYSTAL
PRIMVEC
9.25948134869320 0.00000000000000 0.00000000000000
0.00000000000000 9.25948134869320 0.00000000000000
0.00000000000000 0.00000000000000 13.55218691652940
PRIMCOORD
 96 1
Ni 7.686406629905307 4.413855894597852 7.682382459285733 0.6704699138026323 -0.6315945768936736 -0.8081599442886599
Ni 6.1217672401584915 8.232169723527914 12.462753628580918 0.07176334588623125 1.354564617477551 0.07684153174008701
Ni 3.8779819271181504 7.487957424385895 8.133359019587111 0.5981864337468731 0.9827833574659268 -1.145318729130408
Ni 1.634381803705953 1.9747788591979574 5.544620060254275 -0.10974856688075293 0.8411088884108546 -0.48648202869132984
Ni 2.7335100251864874 5.3842217676296675 7.943668357530782 -0.06790694825461853 -0.5862305469365775 0.2857284940859144
Ni 5.663450688945615 1.9284444142362582 2.4711870650238312 1.0790925110123222 -0.1358951433691337 0.773661653401474
Ni 4.176831689535986 4.111302339617131 5.829703751664004 -0.8516637811085656 -2.5817873804726186 -0.6012205925875065
Ni 8.95611301786954 4.193758021548373 1.7802834522394253 -1.2444797503033018 -0.1280530216168956 0.41378948612260996
Ni 4.868255685175476 1.9519079401221386 13.66602508934467 1.4558339432426992 -0.11006661234180398 -0.9251731631516261
Ni 0.4190470905648811 3.802415299353876 4.468047935481713 1.0788541697492708 0.5844911956479676 0.18115067277282348
Ni 2.7869557518689274 7.197320821976259 3.909115081453626 0.6539009537003577 -0.21537745516617746 0.3328686421068267
Ni 3.0483231335503596 8.201307871997669 1.7849993061201197 0.42667276984318137 0.8724184971574136 1.3795115172308758
Ni 4.133543613957259 1.7408936183331367 4.25615951864787 -0.9900276977331659 0.3320749425609378 0.13528964857465087
Ni 5.391268232980557 8.966604010303914 9.23610029071274 2.670953495216329 0.33590845737441505 -0.578657619685326
Ni 6.225269723328331 0.02389686961573814 1.1680048739280968 -0.1996271343104562 -1.1544829121281797 -0.6163368794036547
Ni 0.9192489059232902 1.611464587223098 7.949184230605058 -0.1576505327683543 -0.3885546228152212 0.1538283308087867
Ni 1.047191790267471 0.15140548428192055 9.811173346781741 -0.5273815951191692 -0.965772681840543 -0.08506237698798254
Ni 5.306321750550776 7.38766798126436 2.5552650080976163 -1.2985001703838153 0.5479043976628692 0.5165693349950136
Ni 3.4079613914065554 5.962281932400636 1.7687091004804076 -0.2248864230978772 -0.9777612216609871 -0.8101731180639467
Ni 7.860336728658417 6.939925757818521 5.816964557143958 0.750961640700797 -0.7149885650402977 -0.08990916355732258
Ni 5.0122869184646905 4.375197559722732 7.879661266355273 1.8022345583976898 0.24084603175092711 0.35534702571500093
Ni 1.9943348839299937 7.205635836279938 9.307682563627491 0.590522489443712 0.13400949631064663 0.4230246315676327
Ni 6.961861469272211 7.7708531003391 10.405477419785385 -0.15267904769569188 -0.1143816947773901 -0.10867590264186446
Ni 3.347441420929004 0.3926714577764318 9.359912520401164 -1.2084082013917254 0.39686185712933586 -0.5448784663523519
P 1.479859577982364 5.20233777434776 0.9916404575130308 0.2582493148290391 -0.036951380413368616 -0.4416689861416974
Ni 9.005891989914723 7.129689569777968 9.790804339582152 0.7418493939868837 0.5314958743978588 0.5999540671702571
P 7.809122536995116 5.223393835067765 4.228512559062209 0.2566246347414225 -0.6903309143926176 0.4122733065883997
Ni 4.915358667093974 4.484514997216302 0.1277410276495035 -0.9566141552697268 0.651500057568349 -0.13501454053639328
P 0.8139454536197479 1.3000497085356735 2.7216588149333942 0.5850812638234827 1.3758955177448433 -0.3671010809271355
P 0.5727878160577011 8.669319100243898 11.864601315104435 3.771258378640208 -3.0645927316433093 -3.0465464156645594
P 4.692131089328857 6.507619089878511 12.623767676719103 -1.6954502163515834 0.4683459812122515 1.7619407438746493
Ni 2.2055621737913618 7.067901050347627 11.927998206455209 -1.1356382686178506 0.658460290936266 -0.6020659713069373
Ni 7.414705666973425 1.893888029624535 13.045063895317798 -1.1193649853791239 2.365571745675861 1.3185748296465034
Ni 2.255535594946096 0.41750816475500213 3.8636880656698334 0.6063504576149041 -1.1242387685316575 0.662153423517137
Ni 8.111389048052214 2.5514963991648805 3.7450518860880435 -0.8117494614121311 -0.09830330115828875 0.24036652101134734
Ni 7.847808650314457 7.220589898752588 3.3428774225433884 -0.6156467953151655 -1.6857666705152323 -1.612399727587307
Ni 7.562459211788339 5.234384839498129 9.781643008677856 0.8683939493790527 -1.2182177312829794 1.4695448650708882
Ni 3.9224274378727775 3.7689237551039825 9.682184141038546 -0.7817202620398924 0.7628496503876346 2.1795575741631494
Ni 0.8112870565077367 8.303134389032802 2.409944854996517 -1.08417455352092 0.04144181208455444 0.6782960947152705
Ni 3.3257371965104943 2.7017129660341146 7.8734814884640985 -1.4408019886102412 -0.7838283095218307 -1.0584403819796095
Ni 1.2922069277837633 7.267368798821834 0.48320048154662326 -0.9411643963735598 -0.3758883402014623 -0.9780034195787801
Ni 8.094064558339316 1.0162003059975253 2.238943530212509 -0.7929768087903182 -0.9171369231107108 -3.108409471717943
Ni 3.8779078512668925 8.462795626937396 13.319875118054364 0.6414670988123791 -0.02944890138873638 -0.6453142404726112
Ni 6.117970852781534 5.590050779830629 11.512067857331994 0.7140308291127186 -0.14329195005383707 0.1064783807699134
Ni 6.382921653767558 8.665994946418708 6.881597506590058 0.546816049694697 -0.30874886624048764 0.052454618255290304
Ni 4.714576072259944 5.4972522571675295 3.76654592027861 -1.3675036941367225 -0.43031859412588463 1.8967552525850944
Ni 0.896206686441438 7.747778472672323 5.345714362301486 1.3270229604138566 2.1534387655889105 -0.615265757826663
Ni 5.464936667056353 2.2289516238259846 9.293697042910033 0.5603151126223963 -0.9487933736737273 -0.6151513437359857
Ni 1.9767881666633231 3.627429619720344 2.462730380654622 0.1787826867612792 -1.31047405491624 0.13617513650339774
Ni 0.5148114251227115 8.40810912974639 7.689958566973115 0.5451337768962675 -1.1834654154034585 0.7234904318637216
Ni 0.4265546780898503 4.892256260982975 12.687693284458229 -0.22276552010013248 0.00024785434474796026 -0.4569310545070905
Ni 4.25894477065516 7.699073600470377 10.814740016347264 -0.207992475556016 1.6246397212969246 -0.14667166515934738
Ni 6.335439033111364 6.623066304063655 0.7509078301475751 0.11714228824166278 0.95255412626774 -3.189035153090811
Ni 8.17551095679717 6.884498502114938 12.547387140539136 0.5135637153994704 -0.06642290750992431 -0.3393498789557962
Ni 7.182885290462413 6.786727637936164 8.201363428886113 0.5139354969165923 0.7364624186433575 -1.470385358694313
Ni 2.2887678737165875 3.6518468721911677 11.782095631973595 0.5813930163386181 1.1234784933268651 1.969338009048828
P 0.38487960417226114 5.926364404022053 7.928530957326268 0.00578369656131262 -0.31536919977048267 0.439264747575579
Ni 2.175496637662137 2.337472745918534 10.14859625684575 -0.3227693488892957 -0.19280059830692603 -3.7970208323162926
P 2.819595423829357 2.5990901335979606 0.06759236237638146 -0.29604684529278685 0.7359687668363906 -0.4374783450991176
Ni 3.914214277864579 8.727135302150543 5.582783012874107 1.8161642811049041 -1.0216324691226406 -1.7772910010784746
P 8.51107456299461 8.968492944510986 6.181233481651901 -1.6210178082736213 1.845199234884674 0.7030311355681054
P 7.023409242185965 3.2131233836359563 1.465371267424496 0.0022885389238605745 -0.6151022356656053 -0.11614290044287094
P 8.347996576450754 3.248670532758251 11.496971198845674 -0.34729844437891155 0.6919144568296535 0.8352478016443874
Ni 6.214556503340184 3.5079545311230604 4.557654714903745 -0.4698282221847328 1.5334997706562945 -0.49797640248417463
Ni 3.368886379868112 1.3173741982485712 1.6563212189522059 1.1395867117426375 0.535903002326619 3.598490787724757
Ni 0.8331598034878579 5.649737396981531 5.736261695043103 0.4332648212384022 -0.9886318458269038 1.0647169590169405
Ni 0.6910841726718463 1.533740500290943 11.563484831638114 -2.7821789037529245 1.3642324795846184 1.4832030792842716
Ni 4.303918071849998 3.756793834460532 2.3474146511054594 0.04940143325126331 -0.552836544857164 -0.3435068385469633
Ni 7.233793919239276 4.4460048140436985 13.272307310169223 1.3287258020375763 -0.21583948240426054 -0.46325493984258925
Ni 8.631484859214021 9.062374826498731 4.108670795001201 0.12492964549656548 2.384309431294681 1.0168751569433132
Ni 3.591808394746791 5.543188544428719 10.94127731141383 -0.3615878644183902 -0.8542346271595354 0.19616874344821056
Ni 4.722918865007844 0.9465597463338682 7.263701118236437 -0.17504481698540175 0.10868927237830311 -0.15477321122055926
Ni 6.123137643406759 5.400657347127472 6.120099607557052 0.7067407232092086 -0.3465541100137193 0.14261883524621244
Ni 1.0103760921923879 5.779046054833276 3.0424118806199942 -0.22039187766163335 1.0576525959709915 0.9983878967724031
Ni 1.9038697505815119 0.5437704532237736 0.35621965732065203 -3.0264632717614397 -1.6577539873523903 -1.1096212757287987
Ni 7.951625955852141 1.9496856645844074 6.763137257155005 0.2661785969784448 -0.007379323183206646 -0.053490258608656256
Ni 0.6434015472172565 2.5441628898903668 0.22142105294256997 -0.38559811129005844 0.4401553777106484 0.5081548856790733
Ni 1.242983524623013 3.6799679172248765 7.125875589386336 -0.9081750859317328 0.9747535451829148 0.1519812502977189
Ni 2.3862887318973667 0.25222642163623055 6.738472776530609 -0.7402563384681509 -0.18046753066286983 1.6528223543787277
Ni 3.7505066465850336 6.288826803707448 5.980810154696472 -0.5032011412182237 1.335331994500184 0.21677613528591697
Ni 5.72302619231963 7.236886586029285 4.943201001737326 -0.32711734144534627 2.0830311623996254 -1.0087499567330176
Ni 2.8345680052648223 0.836619145741593 11.816802020184115 1.4034651998329957 -0.5945400952435375 -0.29920467419547825
Ni 5.701423822196601 3.1577794632650376 11.655544447684917 -0.02623193711333547 0.7708591509556724 -0.5182629206473526
Ni 7.081929164679558 1.3406154965806785 10.775398331744292 0.20364011212459124 -0.8407209089438166 0.0260694433935422
Ni 7.955913095743682 0.49997866185649525 8.79448876990662 0.10833934523805212 -0.7410873190098785 -0.36985138997876305
Ni 6.390107011339556 5.248792592567754 2.334133776923092 1.680115642877042 -2.617507973802679 1.2892948497354633
Ni 8.81798933371813 2.8653280024995875 9.480039476489514 -0.24177599976436423 0.10882528373553517 -0.44015177816622264
Ni 8.481268292344787 9.31976063117506 12.999352613454803 -2.2512561282497163 -0.4972734628798791 3.562386585803033
P 4.945544576481492 1.139397706120509 11.561587563897776 0.7795335388012188 -1.076840481753352 -0.7717063294473161
Ni 5.32062764932492 6.141823276886518 9.345561250168121 -0.33111797796430714 -0.1158233123199231 -0.11227596128829696
P 2.667082505571134 4.736863644007109 4.538396845473022 -1.6294430562228388 0.6868635246693073 -1.1534711830342135
Ni 1.1437404029004925 5.0342967057696395 10.035936146564175 -0.12418402557979258 -0.21600737544069248 -0.0549267339448667
P 5.8237600905487135 2.7288617655200667 6.627507151346555 0.7015483803749918 0.4592208789825317 0.5924785847288184
P 8.14606580592223 7.760473221681614 1.0901067087454863 0.354619403520357 0.5846824857231673 0.3244199971188413
P 5.570050299991046 -0.05602912199505249 3.468709145126724 -0.40872004201950257 0.5945112988881309 0.32198439109415516
Ni 6.235825532132554 1.2469836205909297 5.020190811793889 1.4250447257759846 -1.595388537741291 0.7476215205839705
