# total energy = -340898.23403361184 ev
CRYSTAL
PRIMVEC
9.00055231854198 0.00000000000000 0.00000000000000
0.00000000000000 9.00055231854198 0.00000000000000
0.00000000000000 0.00000000000000 13.17321810796368
PRIMCOORD
 96 1
Ni 6.433684827648554 1.9457214066275084 11.389524861705425 0.19660814497847431 0.5477275057653728 -0.21425979662196648
Ni 4.764442388209122 0.37867393877293026 5.98268245016466 -0.5564844260223965 -0.21547567130693857 -0.18275272715262073
Ni 2.7642046359777925 1.554386390859218 4.775343857219415 -0.052829742206521924 -0.1610202205715356 0.9323216012709493
Ni 3.325038053663064 4.2019888711002595 4.504068109346771 -0.06032296525977354 -0.2204276159955752 1.4026288199746295
Ni 4.910278337989328 4.5187093078598535 2.6977166556888728 1.0506247425899324 -0.035184261210616824 -0.9044919806531906
Ni 7.186752042495195 6.09139382165329 2.451443542198407 0.5368293707956303 -0.7534008462699089 1.132851964121965
Ni 5.156542450927441 4.589606658746644 11.518464074552817 -0.5081643987607699 0.23215955972052277 0.21821209640149514
Ni 5.544484258458544 7.915013735056193 12.357572069620643 -0.30347656209795476 -0.17628126049566414 0.13974845567695288
Ni 1.8467963357126005 6.5212602020459745 0.4414302900561797 0.1394121553834567 0.238830286872479 -0.16719575325462818
Ni 2.6414371018790437 1.5668431553161584 0.4064928459864501 0.3484940073489095 0.16161774494621844 0.23188085213783938
Ni 0.3570744132355273 8.968690397950054 4.855503676532968 -0.07329392359814474 0.461395003815715 -0.8690410960447486
Ni 8.648369740249148 2.2812349967007517 1.2880222444057594 0.45441471584313997 0.034007724404012396 0.6290013622452006
Ni 6.861643090942343 0.5271893529887085 4.710162757132192 0.0977829098784445 0.8747193773764484 0.5463272829837366
Ni 0.7518125378485928 7.475048734923127 2.62418394307304 0.2245894606827487 -0.02406835380311339 -0.2817018894250245
Ni 7.667012515513897 3.8118509287949554 3.8304820721662463 -0.30263041204757557 0.6701657522986523 -0.18458746636851436
Ni 7.59250594313344 3.849680250335794 12.647106337997153 -0.047986040960975425 0.063133181015059 -0.46322511504591835
Ni 7.905635159504074 8.806005414164506 6.939664379016756 0.2758796263162926 0.21286548737760114 0.1743727306190416
Ni 6.819943531889594 0.7722194901991861 0.35892312668889115 -0.36515552716499045 -0.03809192177571504 0.25473333125598063
Ni 1.8257440437582768 6.3677197794513605 9.244200905704917 0.44967128762088365 0.6801969112824091 -1.0719569284088055
Ni 9.03232430308775 4.90702013803744 1.2807380973862492 0.08265428176712217 -1.016816792901552 1.0306241310982895
Ni 6.450776876567434 1.8597841327583844 6.995808924541286 0.3170861824615894 0.8421725537886787 0.018704261277722626
Ni 3.271907793121648 4.35461123735484 0.3308531040647147 -0.09435511514381814 -0.05212114617527152 0.6050777615500675
Ni 5.851547102543067 5.66197746887827 4.801098037723092 0.2657618211560004 -0.5979930867891444 -0.14947416760514903
Ni 5.336580499650114 2.908411485782055 9.186303952637203 -0.43751973986001425 0.2065410878214701 0.15476884034518507
P 0.425661322333232 5.290884695352508 12.360022019971208 -1.0084221410799536 1.3222756755368583 -0.4998191121198683
P 3.820293446902333 6.2948783092562595 12.600025348692377 1.3162076149659074 -0.38289356787470186 0.024016417519255415
P 2.408763822994385 8.458287075100214 1.364666447970121 -0.13413008104891094 0.2746133580093593 0.6772535123833691
P 6.339566051690298 7.654699759894609 5.995789954556743 -1.3284324391668736 0.47930582265786487 -0.871871366404692
P 4.688252712538601 1.1662015684145761 12.524319002683226 -0.03405374715059942 0.2748498995001976 0.9834909250559126
P 3.904475613062567 6.225151030175394 8.227899936513289 0.09238333612942798 0.0995006639004996 -1.1402390006146554
P 4.792839130883722 0.8830648926507788 3.6561341726413175 0.19405529664963356 0.5398445034728703 1.131560241893735
P 0.16392525989983014 5.583834673347087 3.5631575667766926 0.1903577931933883 -0.4264405992277172 0.529750609571978
Ni 1.5689222829097662 1.003930610037279 2.70089205055911 -1.1930312047150229 0.2688749128636853 -0.4897506721402727
Ni 1.844960223032531 6.518290019769393 4.859744736801834 -0.08844826274107993 0.09049048998208932 -0.43717778313956324
Ni 5.905973442623355 5.551153667752325 9.090943100454194 -0.04279755478150049 0.254822034315045 0.5726085852777687
Ni 8.787374270793215 2.4325792845211662 10.20631944978503 -0.7855113536512085 -1.0512160963170283 0.19813486603564587
Ni 2.5253839798358433 5.050263928739902 6.860756536535545 -0.7542323410322687 0.5664021993567406 0.3705322180958715
Ni 0.45341542556980824 -0.07870893027420411 9.194471953897807 0.4481090853400863 0.42637195077331086 0.11361679158690756
Ni 1.5815950606231854 1.0501574469237285 11.33832071936761 -0.8199168277142718 0.05923950238760766 -0.03249360175233113
Ni 4.25475010899519 6.884621501100269 1.7185519655068808 -0.90770971625954 0.13806361177536222 -0.37718957551138915
Ni 5.532378515543381 7.990285354386679 8.118548625752341 -0.2254556653377859 -0.5373111955280553 -0.5315303271802201
Ni 5.325068793190268 2.775410323657627 4.843015410142791 -0.03259644587878257 -0.08435069563293861 -0.3596906473956773
Ni 0.7911827539523132 7.346511846765926 6.958949862544131 0.10223323234031424 -0.08426996299367422 0.0157084118741923
Ni 4.932536703958991 4.684310470607864 6.923342777379317 0.5071943215380168 0.7444837462859372 0.19333101688909932
Ni 7.995631682484529 7.110193344178189 8.742748632170414 -0.8775123667405532 0.8601144829790799 1.7501077557954634
Ni 4.592153815062622 0.43308317780374717 10.523214497260279 -0.1675546792559437 -0.32892534118836253 -1.236857972091986
Ni 7.946218650065017 7.120606983250934 4.62956911119521 0.6599003658169021 -0.3685457837934621 0.12372174123139337
Ni 7.119589920835014 5.892607622378733 6.887261363105486 0.4640378407552008 -0.04634027782743632 0.29366291844164266
Ni 2.2127857960540522 5.380098170278226 2.6199158811471146 0.13310112556376433 -0.43506356501003784 -0.4878166883423534
Ni 2.3765688472267 5.198944053063746 11.351849449609826 -0.2806374527162522 0.10377100914107935 0.376375564250526
Ni 1.1391459080406146 3.3276392132931623 3.65828170443281 -0.9028426179752257 0.14837065012832512 1.33638357569315
Ni 3.6054952649912897 2.5416569784905745 2.748684083499795 0.42473184406672654 -0.20972308509387752 -0.7365310670977637
Ni 1.0756110089788062 3.316109505728609 8.168146169495094 0.1991586793144699 0.3241340904473063 -0.21862912933425574
Ni 3.899453304849436 2.72016493331319 6.882914096318852 -1.3611373855990623 -1.091790932415597 0.3535086869546815
Ni 4.0480524242021 7.023788041586695 5.9604204839740555 0.33585086466360226 -0.28958386327626257 -0.16540138035836674
Ni 0.8286592538409032 7.27576750526914 11.283177935320001 -0.4895496118730602 -0.07847803890224549 0.4894236278181571
P 0.15269797089434783 5.565932574716412 7.971140279476016 0.7988432948734242 -1.2297830675230754 -0.19555604956487613
P 8.425804081657224 1.6605839080755767 8.026375769212864 0.2529348445946612 0.04338633740543496 0.5047877689790532
P 1.8376607750740204 3.2735908964117115 10.358035460417634 -1.1575381540147356 -0.717868457691254 -1.091037084968708
P 3.9813493307119368 6.146495203160074 3.800447228963349 -0.6858214565580382 0.9375388838058305 0.3707672169248131
P 6.867250435058438 3.925095878503933 10.39710775823846 0.7122436553053089 0.3519999636196389 0.08354748300535288
P 6.2088600304159565 7.667714558597454 10.194964352936132 1.1481060620675583 -0.013690095892582873 -0.12599485353628626
P 2.198411913945863 8.61564373189262 5.758619999716386 2.010419866690802 -1.1834343050552072 -0.5165042860850331
P 6.870040606287954 3.839419620653054 1.6118090148179134 0.34268022888060984 1.4648065790549547 -0.1096945737143659
Ni 5.17025929271384 2.9989210402466457 0.6001730319109908 -0.07113291139108395 -0.7373548485506398 -0.6251621910047684
Ni 1.351225923140967 1.0530196225720718 7.071620577012969 -0.12532970914846156 1.0245313879369904 -0.006020238052150922
Ni 6.861814101437055 0.6726850818899612 9.28848902361447 0.04553115166257966 0.32282334205568275 -0.2619239354671489
Ni 2.738184039124458 1.4934166492180947 9.216405399927515 0.1777259633619907 0.11414206796275828 -0.8805102730266127
Ni 6.413307577120727 1.957296116953827 2.597047277727899 0.03919029704621637 -0.09556430496057092 0.09192079467071265
Ni 4.182961703425424 6.922900850258771 10.3516729699591 -0.8042161291495633 -0.2941223745765644 0.36353367529085134
Ni 8.11910125966683 6.9380937826311095 0.26116542741420384 0.30707199275869695 0.2667205855248439 -0.054102181161042304
Ni 7.631370328194906 3.890668765752634 8.276140196961167 -0.3104149410890009 -0.6516921189744971 -0.6739954104573876
Ni 3.07846792194494 8.447837433818055 12.354437177235996 0.23595759331037425 -0.6574323638923839 0.14146903791248538
Ni 0.11036117273498623 4.782857518323934 10.08047552689193 -0.18234623574282144 0.8006019294357437 0.7571621130845541
Ni 8.581441632950154 2.243234664665201 5.617389632575352 0.27171958140133207 0.89099034662233 1.3414008264020834
Ni 3.535056942274515 2.7416942545422374 11.362098378574506 1.484874039228791 -0.2487184925204684 0.8376011323679123
Ni 1.0848005729315058 3.1836933795071443 12.544012211232205 -0.1428191241824766 0.11947067926452329 0.0991741337990163
Ni 3.092517784168411 8.342656979017617 7.782802821428382 -0.256257738320307 0.04267928403608134 1.0781697420877365
Ni 5.79046035372135 7.823415113756855 3.5491023042218095 -1.5328701074920956 -0.42099140318768785 -0.2751473761359584
Ni 3.1826493154341637 8.360208056106515 3.6167072530577715 0.16905620350213466 -0.7129640784111011 0.19004848948308561
Ni 3.381354509737541 4.4233934584386105 9.321606555998365 0.8871442334033625 -0.6665204422365811 -0.6743139701390709
Ni 7.292526533750949 6.10233849331488 11.334184065506042 0.053972340451397365 -0.6391505348640605 -0.34485383949316095
Ni 0.505810340983961 -0.16367864476535027 0.18988285288669157 0.47011130064279033 0.459913277063866 0.5862642283879904
Ni 4.5707685026712275 0.35576483286812494 1.4980186316363273 -0.08817726846788039 -0.16761510018023393 -0.25023518627531094
Ni 5.936440312339211 5.733486857325085 0.48756712141909636 -0.520045209358756 -1.3946771692277204 -1.1486639914535572
Ni 7.792363208138037 8.6280734946925 11.376377754882988 0.49264316319671936 -0.06798382423914098 0.06127761586355899
Ni 0.14685931258277468 4.807645039504869 5.8820922770643955 -0.034264063389192606 -0.3787859734642315 -0.48679236084289706
Ni 7.801300756624845 8.777653674251672 2.499710804303345 0.7679620319135355 0.5033790615569848 -0.020382677421410058
P 8.458224071233742 1.6814921911922476 3.5824169487022424 0.25893759914531533 -0.8317266758650063 -0.9523237554244889
P 1.837678776178727 3.2334124307066667 1.7017164323300693 -0.009109418500435923 0.06938224724856439 -2.055471764724118
P 4.732274414098496 1.1069509322729294 8.185521735813102 -0.4369708093350797 -0.6041393088961983 -0.06128070118735252
P 8.500238649618854 1.4685211214089204 12.302942317057171 0.3410717467429094 0.9770541682916334 -0.17630388620348347
P 6.344705367084021 7.777503296202771 1.261730730926591 -0.4221586840229117 0.006982601965420232 0.49358547250533064
P 1.8312163795890715 3.1910828329891876 5.9907577457360235 0.04317653538747403 -0.6506821896527438 -0.34550741391675976
P 6.811501013782217 3.8969421507428708 6.02915770229606 0.47098341883509853 -0.24671560315782676 -0.46021152503057516
P 2.412688063820416 8.363781275390767 10.130178377097218 -0.2738240293388445 0.7199641638780182 -0.13947643296248882
