# total energy = -340885.8188121036 ev
CRYSTAL
PRIMVEC
9.13734189451704 0.00000000000000 0.00000000000000

0.00000000000000 9.13734189451704 0.00000000000000

0.00000000000000 0.00000000000000 13.37342347930151

PRIMCOORD
 96 1
Ni 6.581435569765287 2.188356863405024 11.669114914010738 -0.3253401949402655 -0.7766374482003464 -0.8742208404734751
Ni 4.532980549963473 0.6343480908991022 6.2993100839526655 0.5172457922367479 0.6549098545808463 -0.5542187699166714
Ni 2.4687544778424675 1.7689254528558673 4.695730317277076 0.9889005261072583 1.134163740954853 0.646219783006016
Ni 3.5556413106164078 4.6702051523560675 5.2109274682907465 0.24464072290666902 -0.3128348633844032 -0.15125234255149433
Ni 3.855894369254085 3.0648198468981653 2.754015899434897 -0.9285065984002331 -1.0536103075808179 0.524550039207645
Ni 4.959612186021044 5.016638337541365 2.4731467981494406 1.731375726603599 0.13035595871845934 -0.4340711191897815
Ni 5.505696294250567 2.993594265885363 0.6008844032348062 -1.3980342586254115 0.7755462720186965 -0.3185879638180965
Ni 6.061146178046238 8.192467752588925 12.708871336667418 -1.4931501631946544 0.1684514800386002 -0.7845348486705521
Ni 2.764484552182346 5.5396506571811095 11.447757321273887 -0.20901757438642066 0.27318613864452945 0.9737983803584972
Ni 0.8575569091283445 -0.02760482396379446 13.267131866867134 0.10971565676028847 0.9429700821237308 0.6657105447407761
Ni 8.27401853007953 0.1197183688246107 6.901314725318603 -0.6528748264286884 -0.7472132294019583 -0.18584525003501542
Ni 8.702605557328472 2.7325678165213176 1.3769407902536326 -0.05214274344182633 0.81603446194073 1.8414233127820094
Ni 0.4946582336306579 0.4409516784646605 4.736251687914341 0.1983133005950391 -0.513713096493141 -0.4057910412981657
Ni 2.013285390383177 6.513188762249621 0.12130278393014246 0.7906576737388383 1.4739543069924939 0.6338926288992308
Ni 7.94730372896423 4.143510483883974 3.763588940210938 -0.09722703737497448 0.2939668228353066 -1.2057568798118072
Ni 7.665763946774816 3.9445814108589934 12.693986606523756 1.1355588215301669 1.3129289442146357 1.029517271187356
Ni 8.162789665721757 7.530796267860114 9.09386106003785 0.8796204142224915 0.27716749188978074 0.5138570782701731
Ni 6.95719048547914 1.0258493881087034 0.4497966255359104 0.25969196081283663 0.3013469173494616 0.1351811480212446
Ni 2.4641127080984644 6.7512622084700915 9.257685378772505 -3.680686384687906 0.41487577720825325 -0.29945638519496814
Ni 0.3387294921318156 5.142916404199085 1.3793082755699146 -0.6312942720444353 -0.5527239305386997 0.8141511288750882
Ni 6.416369486250692 2.6770310517495646 6.901354929623472 1.0076343550713358 -1.2114179347523264 0.572773135880091
Ni 3.6427019053425123 4.676601291767096 0.349301396844043 0.08550794916583337 -0.11415029549287438 -0.025502258036162535
Ni 6.2058542635497345 6.361362687315852 4.8997954902491125 -0.6071439000504769 -1.2333630715648503 -0.1294200771677513
Ni 5.655174072286287 3.5466227540468585 8.90648615599179 0.9436509102408395 -0.7375273695727621 1.4167927701798375
P 0.08316443209058676 5.821245263422616 12.774481107277339 0.6566844299827658 -1.8308136555869632 -2.1727333521524645
P 4.4292717180846655 6.7355916669130735 12.906463616555495 -1.4068053199498223 -0.8289036045939143 -0.3068318517234328
P 2.6344693126401824 8.63009161109145 1.369104605740922 -0.21379159873629633 0.6287195693387236 -0.8572942399214656
P 6.3149358525338055 8.348040137749154 5.940648393947684 0.21452204914441764 -0.16963650148563686 0.29791500884977723
P 4.7582708547039045 1.4854028674490358 12.706196836659407 0.17969594260416796 -1.3069377596282072 -0.5069500667376946
P 4.233403654634962 6.3260742724510095 8.169490078621909 0.7819089810119308 1.7044668180278968 -0.8603150290256603
P 5.021353206021494 1.446806734774491 4.160418221549926 -1.7638870689677428 0.06406392035944451 -0.7519707986916018
P 0.3981030268159836 6.159948257262585 3.4369161708689098 -1.1050686233611096 -0.7585217124362421 0.31166166901190845
Ni 0.7954092774081934 7.818960623010948 2.1797741580496264 0.024009732651036068 0.0818613535521816 -0.17690963810828242
Ni 1.9722039006803471 6.792023891202371 4.766702793916043 1.0102188279690603 -0.9835071230058288 -2.1671936532811578
Ni 6.349895323086081 6.139964890274133 9.334970845010156 -1.6380536807099852 -2.3986279047998824 -0.3752602196991602
Ni 8.750777624435528 2.74302093578734 10.491357214890122 -1.2089247360168276 0.7027213176371704 -0.7774586585500611
Ni 2.3929054017696934 5.303943782542719 7.3023170307561855 1.1245969232020245 0.7249161085666548 0.08463634519415746
Ni 0.12719271459349749 0.299416078109034 9.467688910320579 1.5333804714696109 1.0074968010522067 0.17703793615603058
Ni 1.3961858600072137 1.6319201466716518 11.347657739491302 0.9200877782089186 -1.1147519120871447 0.33517286475997116
Ni 4.431117461171848 7.439358886308463 1.9644088342067074 -0.031338662212281515 -0.46224758162399743 -1.4656519577743854
Ni 5.7578777965433625 8.122192455145761 8.250466117299721 -1.0896965117804138 0.9223503489908501 -1.1310866446914263
Ni 7.076332288022557 0.9995155684193004 4.844268776553576 -0.09652409777067893 0.03041769305990891 0.4811557313824101
Ni 0.9500094493779452 7.4256802853108805 6.5338802732442955 -1.7057276870181914 0.9306971782936487 2.3200357089172754
Ni 5.390693707640287 5.014902242558372 6.95973066655952 0.8109444490123324 0.4266018073959298 -0.7727391415872047
Ni 0.8033660748355121 7.408328472822963 11.393448615269051 0.9709115457290054 1.2463862232973952 -0.5948835946258852
Ni 4.547207391482003 0.507613157140594 10.74787255850099 0.8232376645573888 0.15085767821623697 -1.4158676872624067
Ni 8.314560916603432 7.674325636243578 4.534379477026086 -0.23613397098723848 0.14392084188708762 0.6050798184325966
Ni 7.489267048398512 6.904806103702823 7.010415502720907 0.46677529429102194 -1.7382719395028 -1.0502113092015979
Ni 2.512769054332355 5.527753837876598 2.355153559497404 -0.47290377578626297 -0.11115830274408599 0.8446696091789195
Ni 4.030965842275932 4.883050397271042 9.674642397103796 -0.4791664688665232 -0.36496063754536495 -0.5500378990661043
Ni 1.2050874890897343 4.373570481156629 4.317301815289414 0.6509321008800208 -1.161554217152664 0.017705387699563056
Ni 1.6415965918663353 1.4103213281055853 2.235608800171093 -0.20437416207713835 -0.13232979461537855 0.4296837887553632
Ni 1.0456500082568425 3.5226646432815514 8.385364352415106 -0.19865628575675462 -1.099914847074312 0.1403333816461454
Ni 5.686304996533961 3.396962229170824 4.842356330869679 -0.8576122853825165 0.6775347910692138 -0.9840203151968214
Ni 3.9499450306222412 7.307050173920346 6.108913460901996 0.7691599088763785 -0.29693850386912085 0.18878993448563616
Ni 8.333036622159286 7.418845553483097 0.23421931535822585 -0.4865244518934911 1.9614758326919317 1.007251003589988
P 0.41153400584494043 6.090604968705029 8.200998375094834 0.47636910862704407 0.4526637945903043 2.4450589425689118
P 8.426484218954402 1.8631771357483702 8.125478243334626 0.38325635053075935 1.4876739705714315 0.30137854191834546
P 2.126743766192795 3.7403892288329383 10.279963893621451 0.3309480280453462 -1.0052815385684428 1.0624898694586347
P 3.978764207339929 6.265466282860514 3.833505140112883 0.4906140485818325 1.4972641853630277 1.2013605505163245
P 6.849022630696644 4.3077450692751365 10.633730709508594 1.011194047398136 -0.5610381068313499 -1.1113009774240667
P 6.3872213652204355 8.018529309977032 10.402142948650905 0.19434891663065237 1.62494619679375 0.7564928549316714
P 2.347474537267365 8.866401550302879 5.732344408014539 1.1424020697042454 0.16842576900698739 0.2658345833754648
P 6.852485683320615 4.169186414948243 1.6463891277535982 1.7212499510235064 1.6343371510903464 0.6605433987175399
Ni 2.7884883496577317 2.1844917677323603 13.336499826248135 1.3908032880946113 -1.2370963133550372 0.3449245448300963
Ni 1.374822754374381 1.0445443898729363 7.111866497387623 0.2728398110487043 1.224321530187872 0.585925871211965
Ni 6.876708777004379 0.9510602437097568 9.380026164755636 -0.6579710100046733 0.27469254798672693 0.40435019508658104
Ni 2.817864904238381 1.7751205707425486 9.271607033067708 -0.32265570612956684 1.3684382901358496 0.16831906822579398
Ni 6.501840183466054 2.237515763449781 2.7575328623767605 0.7818727284573567 0.36237102244131786 -0.28174636950971477
Ni 4.277738038095401 7.229419316154499 10.346509328053784 1.7079774022843164 0.9040106701413978 1.9860833468279666
Ni 7.71245576447532 6.403522383376541 11.250098338789094 -0.9965217900979417 -0.313672271684034 1.5177543348965796
Ni 7.8881303020702065 4.4421005462747845 8.445998840297447 -0.24792479297457948 -0.24109131499251382 0.14600035012393567
Ni 3.139873974215569 8.969598691028805 12.525347822280999 0.20702522654674022 -0.9465071487427119 0.43508413383532807
Ni 0.44089411320996125 5.19011991305247 10.458806347693201 0.1827709819850659 -0.5888551290436181 -0.7892790482237568
Ni 8.789903722946987 2.5074237092531386 5.838796269966477 0.26313286817358555 1.132503836753927 0.6078818066577659
Ni 4.335074859244257 3.042131826673048 11.079119481256106 -1.157805034522877 -0.8004687462919892 0.3410501494763546
Ni 1.3338783248017871 3.759047681229108 12.629781245381656 -1.5381809781820477 1.4103974081764548 -0.24873031959501035
Ni 3.310139205337129 8.907062722272984 8.17994776655894 0.43006714023671094 -1.0918395262653453 -0.6230963096146752
Ni 5.5586563285738775 8.389121627451983 3.8465039228644944 -0.06446218423912768 0.6483239738332125 -0.3744788614484454
Ni 2.9161918416699106 8.81266484190823 3.5567825646341755 0.6863719297448695 -0.15521724073651333 0.009159297901764871
Ni 3.845413837962015 3.290384271899069 7.358766615995312 -0.411966059760626 -1.1822991630094994 -0.16483470922161933
Ni 5.364186278452585 4.921856688811949 12.037592850543243 -0.16099270976770982 0.4377560242405364 -0.36720032550916115
Ni 8.240027617780925 0.34430144329302237 2.613648051388884 -0.42000512801501855 -0.33735547423358675 -0.4642993219467036
Ni 4.705785962165413 0.9073663879246228 1.7751214844767502 -0.6609570892161907 -1.0721435904983148 -0.12761362008663182
Ni 6.423898656071673 6.072385108725616 0.5021654738308013 -0.8005363663051309 -0.6022163808418726 0.2824431384664232
Ni 8.027365119706268 9.089087712568821 11.698375424347786 0.5517998760625336 0.7073780996828913 -0.7582656305613779
Ni 0.2387386447192178 4.9428451634221355 6.556013656809057 -1.6363948049503234 -0.7899727318566717 -3.0376622258010526
Ni 7.456591913350176 6.475890132141314 2.656443706453869 -0.27482213158605573 0.10026119621560797 -0.570783616253888
P 8.857538328547598 2.183413561374501 3.647774957629659 0.31793387517386534 -0.7565427343330002 -0.45777566189557295
P 1.9843748402453314 3.4534675521962463 1.4951487564430392 -0.02025129404986835 1.0429998790548232 0.37382220170105296
P 4.885197672644744 1.5477286773384942 8.485691454013883 -0.06502756982429446 -0.8105582693175072 -0.4898823126221305
P 8.789117911533632 1.9175351834000907 12.87181298816335 0.2390344324634851 -1.0984824855031599 -2.7950544741640124
P 6.519813335211043 8.37918933668086 1.5253595503497268 0.055204670196601704 -1.0689273975538625 1.3333177922836326
P 1.9147208820592387 3.3448245556289313 6.30090180893181 -0.05275466599421238 -0.27327561303454223 -0.7922476439337776
P 7.2911968855230125 4.57772611381462 5.750478376979005 0.18580565504633162 0.4726975733127278 2.0106499804237368
P 2.2425687135844927 8.921773842918348 10.05797765175392 -0.09276514494887896 -0.38070118820907334 1.4914041270378249
