# total energy = -340891.2616005868 ev
CRYSTAL
PRIMVEC
9.05176758383313 0.00000000000000 0.00000000000000
0.00000000000000 9.05176758383313 0.00000000000000
0.00000000000000 0.00000000000000 13.24817682563331
PRIMCOORD
 96 1
Ni 6.248091283755648 1.7731869839858327 11.547322870610929 0.5959207776411479 0.8818305344999329 -1.3079775137466312
Ni 4.781333792091543 0.4424015261698366 5.874241509991805 -0.7194972515439286 -1.1331252723880099 0.9153350940152817
Ni 2.8784078215034197 1.4490431822536067 4.609014384999765 -0.008987291100274845 0.46384912178316245 1.2129991631965171
Ni 3.7760806771746447 4.117078870384821 4.841188606080772 -0.24124121030681678 0.20625286715708996 0.08653587620971548
Ni 5.441433952418897 4.4375838614972105 2.6148058629296917 -0.7388340041993275 0.5589915087149664 -0.7683456405051993
Ni 7.406554618949552 6.202660461613954 2.545835918855447 0.8149042049910288 -0.5615636403175167 -0.15468887903686906
Ni 4.893901575345995 4.543498595484051 11.526523718764508 0.9220248473306314 0.44611185240439943 0.49927635224252076
Ni 5.646230196881103 8.286250663946658 12.415184634502625 -0.36901063924502253 -1.197074264436145 -0.053813703386346036
Ni 1.7928383716864933 6.555471211687033 0.11779789463789003 0.10244174880669454 0.5499031732604529 1.6660226551190855
Ni 2.502859030940216 1.4851506836529322 0.21793941117863178 0.2169409429985554 1.3014803360580618 0.312050676920211
Ni 0.8238819401140827 0.02533408746964965 4.625097565868734 -0.6534139867616101 -0.2436181951794256 0.5056498598690324
Ni 8.90431441502396 2.0891027288687263 1.4527019067624076 -0.9863029405834111 1.1711583159013312 -0.32048543795112544
Ni 6.925941960564346 0.7113105361525452 4.930587484702055 0.37183088230263706 -1.4270123910253165 -1.2186013398746434
Ni 0.5356202507651775 7.633500539000665 2.808255716566114 1.5757885041221764 -1.848772296947913 -0.3793513590493983
Ni 7.568644623351087 3.760710775601304 3.6710702147821364 2.177741089779701 0.47909833463274915 0.05530314344767895
Ni 7.563276925098443 3.4589519954184724 12.696549782032491 0.1294696994587641 1.1265188228150855 -0.8025906777309985
Ni 7.764841688487809 8.811895866694273 6.905758328922276 0.5832719785288859 -0.06812729179554072 1.155110261299533
Ni 6.640241016300893 1.0448364951172608 0.42277548341876675 0.8437846354708048 -1.0579762978589973 0.40134097594661206
Ni 1.8348023667948596 6.557091478107309 9.193970076600364 0.5496409207380019 -0.20973774038189685 -0.38724053198948793
Ni 9.403066815902084 4.71784469336633 1.2551416454084041 -0.39798080122512747 -1.0082534767125733 2.1134581114309148
Ni 6.376445349898149 1.9566210566499922 7.188673139084272 -0.07894366568475436 0.052248158671439046 -0.47796422102830594
Ni 3.179243321379726 4.636605078159776 0.46948894104511407 0.5400229380322635 -1.393334539156897 0.49724749473795005
Ni 6.107788884234577 5.547765067720445 4.568037937748672 0.28543513121521163 1.6044768731958046 1.3189309274343415
Ni 5.238547630943719 2.779535362795765 9.472684866544439 -0.13499088638730947 -0.16581661351891444 -0.31252478834315206
P 0.09302682711986686 5.411526911901631 12.616318533748947 0.39866034379065535 0.6143519877631419 -2.5848590774194062
P 4.011589569480399 6.35384308592369 12.621723344249206 0.6921155170968661 -0.14661021579379266 -0.4780632085000154
P 2.250722041349287 8.370911847347985 1.4632209660194035 0.2932574554731079 -1.039540716861629 0.12153913175777777
P 6.3277196843096375 7.587807215595353 5.812134616196069 -0.08179270509777527 1.3821985771447358 -1.492009878942624
P 4.530636033566668 1.1789293819885591 12.728398426723775 -0.13416967603759475 -0.13709893386924776 0.03285869840123373
P 3.9240499239469626 6.258781421422382 8.00820479963643 0.38558885531867787 -0.46689819302213137 2.5646180677821833
P 4.7722639208450826 0.9860724191372102 3.6650951429160807 0.05468890690244775 -1.04026191129837 -0.5664304814915149
P 0.3633325248603884 5.451580984022969 3.5970783499818086 -1.370208494662395 0.7596411707526659 -0.11446911228487383
Ni 1.7636554725861109 1.1600292910079144 2.4746138949746967 -0.13976799606097864 -0.4801234334631537 1.2098117666074713
Ni 1.8539921143422577 6.279736263673432 4.937780924502016 1.0783204087329883 1.1397947139883855 -0.0197373305279273
Ni 6.07017878939522 5.693833443273445 9.44209532274176 -0.36426129748549524 0.34003919171333696 0.13301087984280316
Ni 8.637794166540193 2.620387182900317 9.992967802100035 0.4299241869009434 -0.7475078778242417 1.6331693560344904
Ni 2.4457876355221293 5.0861158626898595 6.941568027163908 -0.7016165146087658 0.07959492611550807 0.5258229923827976
Ni 0.4905795598118297 0.005132352292157836 9.252367555988119 0.43635657278984846 0.86241767719096 -0.2706142641522952
Ni 1.2449891827437052 0.955721842002104 11.454056171646718 0.5396161895121481 0.10597033078524329 -0.6267513898687593
Ni 4.224450938973139 6.744562639170591 1.4930691700465473 0.20341719748050777 0.5499239991960593 0.7619353661034812
Ni 5.5851307648316055 7.9735211412980505 8.128272877616247 -0.4638406371427302 0.12720558601493576 -0.14893937814760155
Ni 5.70234210492182 2.6465286880497914 4.608934729443907 -0.7310484467166377 1.2613425874969115 1.3201522014359524
Ni 0.8882164739435052 7.754097240214809 7.170310723105662 -0.331231620724036 -1.1760328703848133 -0.3881771848711444
Ni 4.873888116936892 4.314226371131202 7.476581809492446 1.1008589561551363 0.1338652574232985 -0.9103679798179933
Ni 8.21195375457447 7.273946221982865 9.161604575972781 -0.9708192431255152 -0.6933280493477285 0.2263727778354166
Ni 4.482444422273108 0.5093339173323268 10.437721882697971 -0.19237096696867514 -1.4100153422466877 -0.21384842011616073
Ni 8.54713166114645 6.99547764012053 5.175294783355765 -1.2683933236961058 0.5090169765690524 -0.43792366016665224
Ni 6.990037527726197 6.136836006819295 7.173185564530687 0.21799715217721166 -1.5713178699453325 -0.32025969509356456
Ni 2.233161611989876 5.635503852143525 2.552248191101946 0.8352292897016261 -0.3081536558586499 0.17687132867117927
Ni 2.5084077645470813 5.238393750892631 11.445034274769128 -1.559209773827889 -0.025652924681413884 -0.22226492631463013
Ni 1.3318680492342359 3.278776559130286 3.8127321898134037 -0.9127801888039119 0.3809464714506601 -0.8232878010690338
Ni 3.899465322843787 2.7360687742473666 2.5448818625387037 -0.5443169374219271 -0.5449766824931132 0.06830289814145656
Ni 0.8319407289072186 3.3966577300311176 7.994810898954409 0.13196109842205014 0.3653023371554999 -0.23364385757553308
Ni 3.451285148167224 2.2872730793664537 7.214506884131571 0.25389592295634983 0.6976233342889727 -0.5739566146652308
Ni 4.119550002969934 6.780136086274966 5.985830797156695 0.48353271625501887 1.0270508119247346 -1.1123726132216907
Ni 0.7784366351440515 7.421861158148915 11.43022286726356 1.1629888927166616 -1.3275222686477783 -0.8195288482472338
P -0.01939250714412513 5.755557447295005 7.862302976609313 1.2833077789140932 -0.8899331090024093 -0.02612369367024533
P 8.468761456304293 1.580936489571123 8.041206639534098 0.14471197032981528 0.5102251379445407 -0.7700343410615319
P 1.7631033147557378 3.509370341568947 10.18696076179912 -0.056777928220992535 -0.288718944172806 -0.45659989641991683
P 4.187800331511151 5.989989179243146 3.7957221079308234 -1.714968231779853 0.6868236725703075 -1.1483544306329383
P 6.77712184762719 3.8641815323061657 10.608173004934189 0.23954711043384547 0.7242872167334042 -0.41690154938903035
P 6.307787691809934 7.817541080101464 10.268158738874204 0.05657506818156707 -0.5109062231719653 0.5271609944679309
P 2.5179392759468033 8.598464235835738 5.983526217097466 0.1853459418010937 -0.31899702633105703 -2.485692142709242
P 7.220685620771124 3.9493043558607552 1.444541738170908 -0.8682700222066789 0.42457732076673327 1.2566811774655002
Ni 5.0892930331564346 3.134600003028893 0.2912786435269937 0.37815528185876807 -0.19669864780975158 0.35099003429788583
Ni 1.2911622498377038 1.16409353471017 6.821897321786605 -0.3620915435276861 0.7408759743300208 0.5211849793901541
Ni 7.1028587604765585 0.7203070880805447 9.543032489664302 -1.1628600804482812 -0.3345761117162367 -1.1916165837556834
Ni 2.3978856807953224 1.5531113556273963 9.354431667990683 0.27342782234169044 0.3738137170606207 -0.7702533990508734
Ni 6.405646352533953 2.014842026567381 2.437028239908159 0.09083167537159197 -0.06789357851817984 0.46305387957537675
Ni 4.122736225204219 6.907449199130697 10.466827841772808 0.09827553324414688 0.9611902046761831 -0.4289445965964935
Ni 8.309043015043049 7.165315957682712 0.42563584201545435 -1.363126133894317 -0.9204114800969245 0.3982481959539012
Ni 7.2653108355865355 3.860606084060306 8.398376720936813 0.7146617778284983 0.3387911782388488 -0.8734641648131086
Ni 2.9861057537293347 8.431902658184951 12.452451667345734 1.0118836172659929 -0.4484410147582084 -0.48987074265790476
Ni 0.09150522496764157 5.016860787932718 10.124547918254748 0.07134348473999326 -0.09941478905491266 -0.11278452549359931
Ni 8.383738202194525 2.461383831288246 5.725690234555668 0.3070624796770002 -0.3380594422791468 0.7876435695028629
Ni 3.4860801432484494 2.5562192015967775 11.31491058803912 -0.36748546084974776 0.6330973866914452 0.674204184034084
Ni 0.9802973913375688 3.3063572953458147 12.266288486716697 0.3417152938641792 0.6122431689502552 0.5273970217381369
Ni 3.084887694759879 8.464099795933109 7.986411763695338 0.9867315434803974 0.07289720238035834 1.3665642130415885
Ni 5.748678103834617 7.878043095482035 3.5283736227014977 -0.8203999379982775 0.23364257202395247 0.36429909270196614
Ni 3.043041372631756 8.186373459023079 3.531195963873799 0.47668818252935974 -0.7047635448781798 0.6802300785131898
Ni 3.6329088672891765 4.511591114302647 9.518881468234484 -0.8127879299789744 0.4409750453984663 -1.3293963457420395
Ni 7.543308725527895 6.249186547648683 11.47867064358334 -1.249667208041512 -0.5340001288769514 0.01394926309124049
Ni 0.5438790836247274 8.947934883623445 0.3881262217976892 0.049677569730785416 1.0628845337938921 -0.4453058115633363
Ni 4.247904069112435 0.20005764406547868 1.5712601498880248 1.175216288020789 0.6376245851378373 -0.10570884959374052
Ni 6.1099522567175155 5.588697161309754 0.33629127400043723 -0.07793193659078836 0.5066785582438629 -0.1392622600691537
Ni 8.086450995260945 8.694250041753929 11.490197164586576 -1.8763049551505429 1.3403178777505498 0.35030689218793215
Ni 0.08529028125724376 4.714739937041444 5.688475701965283 0.15759371138848988 -0.014109699928504731 1.0157713823561731
Ni 7.900238029909497 -0.09124543923433483 2.409605004450802 -0.7855401500066149 0.898346529877085 -0.10727053765390558
P 8.570584791285745 1.5512738467820557 3.7409543873951954 0.20114871316130517 0.5286997997099604 -1.0330977894497628
P 1.9985035858489595 3.1827916143224524 1.6194173644642824 -0.3268594597982693 0.17662913075338613 -0.5427979296742393
P 4.762297924595232 1.0228044925085973 8.319219012303797 0.29988036010626423 -0.5938633808914869 -0.38126605957360793
P 8.547439421248624 1.5908481752147083 12.407725977908731 -0.8204878697263934 -0.825663500390062 0.5186033347059069
P 6.317473083260744 7.909896266057173 1.3312697273885366 0.06498154707770744 -0.6031728312178709 -0.32005400684066165
P 1.9692482726068885 3.2725398911773818 5.860013036326826 -0.6380362187539592 -0.6736336562425946 0.7046177633289349
P 6.822670342749127 4.120228885548262 5.914529117720088 0.11118761332012465 -1.2403662423555606 1.909457016422479
P 2.370630808217391 8.472364059853286 10.237595445197888 0.27104569526275896 -0.04975084617088207 0.17180034190617507
