# total energy = -381170.3054141306 ev
CRYSTAL
PRIMVEC
9.22076635462563 0.00000000000000 0.00000000000000

0.00000000000000 9.22076635462563 0.00000000000000

0.00000000000000 0.00000000000000 13.49552360933851

PRIMCOORD
 96 1
Ni 4.058040795423248 2.687724277989768 2.778161553599998 0.9041042582964687 -0.6880025233697571 -0.2904906913612481
Ni 4.712632213943422 2.0529114031261946 5.326926117618635 0.3155350359243856 0.43537826803697927 -0.4689617604193794
Ni 4.6604334560692875 6.722731599261879 3.842728526324617 -0.11073689893595123 1.020211677515714 0.8033573806936939
Ni 0.035780261447587516 5.066359249726423 8.033601836530273 -0.7422232323865346 -0.18588510213401535 0.1361478828098881
Ni 8.220350015866936 8.306038596846328 5.721535264828335 0.3503950810263643 -0.0110040644199875 -0.3450237894121219
Ni 8.383649786570157 2.6226902134629575 8.105951657018458 -0.5188424472999065 -0.2753857173990096 -0.864923217221633
Ni 3.3859944663473875 7.460457446503692 12.273489974015835 0.08503563751510516 0.05416800140197122 -2.103970483655454
Ni 6.8774099534994 0.08070752303846099 13.407775160534186 -0.16003625939171146 0.1715972247564335 -1.8545958456082254
Ni 7.4775435264084384 1.9608789349506528 4.6568733182111 0.11646120301423812 0.3804631040563383 0.8310908420532203
Ni 1.6271886242799116 3.261495680122945 8.730375494521708 -0.3139638347825238 0.02170242467409811 -0.05918936587596258
Ni 4.535888566013478 6.774155812769041 7.813705924517098 -0.268466364571357 -0.3419829457032691 0.7373903297742656
Ni 8.020213283901189 8.411810006769345 11.132538173481757 -0.9392165286185695 0.2922416126140838 0.024707787159325187
Ni 9.162850640510056 0.963487088681545 9.99854989563741 0.9394972930837819 0.6563635563082374 0.5762487531335172
Ni 3.654466297165849 3.910785158035872 10.65030316229861 -0.6042236410798884 -0.33219912684362785 2.107703468335325
Ni 5.964720066218422 6.478648695236755 11.716232964278449 -1.7688091888597086 2.5229718529963066 -1.7913670195555664
Ni 6.2710892464208605 0.2495932339501514 3.759083267151427 -0.6705848421139419 0.4146536338951181 -0.018681892680219442
Ni 6.62959263913352 3.5198984341707735 6.490213380296946 0.5402036865845019 -1.7265266260414136 0.039161500690809974
Ni 7.844981841640094 5.559347518537696 5.704193769697813 0.593515510633765 -0.8689871028783613 1.6633854746065546
Ni 1.5487291240589236 1.3781633895322063 0.27724262369778974 0.19800811064979448 -2.101615353159716 -0.048495119386910035
Ni 4.86721836051821 1.9861346137736977 7.63379678752547 0.8010829828372203 1.1866607824123048 -0.511569567787577
Ni 6.016826616429823 2.720817608145265 9.644522262873895 -0.20946597477774895 0.5754915632525186 -0.9450125664750564
Ni 2.2360358213173828 5.901815998700784 8.154076680352972 -0.34240872038677805 -0.42959174326218924 -0.7616551158589012
Ni 0.07956875840368698 0.5729304682490364 7.349148966433455 -1.3278842799728874 0.8283721575704766 -1.7921486349165976
Ni 2.344527357291075 8.272723968300268 7.376261707583976 0.06897292762528767 -1.300217153074922 -0.1763311398969931
P 0.40184283835124046 6.791822800949017 6.657854287761717 0.496967501603686 0.7348865895158053 0.2089376130781047
Ni 9.139310024213877 7.836950554215899 8.570561173469862 -0.26035453409750003 -0.8856532506801328 -0.16246595187912666
P 8.403806381643971 8.996093082454284 3.4565407049524803 0.02369837205820435 -0.5867936185288991 0.25980483224161705
Ni 2.547301228411036 1.3754985880791724 6.94497143006177 0.749923943464902 1.360775117163637 -1.8463976260681492
P 0.9283375276470631 4.0687276635342045 2.687188551469279 2.6636340787367807 1.2722960011846216 -0.3127050226747582
P 0.09904670507977292 5.473575950661843 12.005051337955956 -2.3027789787193567 0.8164620363964519 0.04365501768578933
P 3.073032438259415 1.0872205513052893 1.7206927267526995 0.38739017019347477 -0.27356871879492883 0.6681240392782752
Ni 3.2900062894405258 1.6972941102571324 9.346513551451615 0.8831168574115243 0.2768193645217426 1.2240140262497825
Ni 8.263060605245668 5.106543349146221 2.726339002989821 -0.5872222214258854 1.2153368101907585 1.4937150345591887
Ni 3.0534936345259243 6.444568743089995 5.828702698765157 0.10531701347196054 -2.3589141311500277 0.46990586950020363
Ni 3.1421697437779215 2.770167149240897 12.68917963707995 1.7049206177358638 0.7187806850928783 0.7558050848360274
Ni 9.047886126612385 7.7041161952802355 1.6514198759699734 -0.12757942441458672 0.8339864184334604 0.9011585454045835
Ni 6.765137903353584 7.597634786354161 7.731571948936131 1.5714435968899194 -0.9934986870009018 -0.15954543579822203
Ni 6.7308366528162615 4.556165031048846 12.489148943926347 1.0562449169901875 -1.247269397233297 -0.37593564849962996
Ni 2.143238029541143 0.43742485332394826 11.623370627138295 -0.8711108340895836 0.038290925160398566 -1.4807607883913658
Ni 7.734636931645434 6.977990072010452 13.068039715494555 -0.44843741521378255 0.2841814613137686 0.3302980531661731
Ni 0.9486877588126197 4.933063852477086 5.589994579400841 1.751108686256152 -0.614909917149141 1.0028801282158017
Ni 5.120060992503133 9.077235825660852 8.098906991585524 -1.5734973940951547 0.23819033929563493 -0.3384528210628236
Ni 1.0652105822105074 0.7600788288419689 2.8282164833155505 -0.5545797528005159 -0.6279711212084732 -1.475404409175459
Ni 1.0245746652433085 7.715135010977037 10.605700471680564 1.088127367521081 -0.733760189220846 -0.19551928278966973
Ni 5.479790747130165 8.425807129972478 5.731157134434705 2.0942648263319157 -0.46594714196277176 0.6208105989042921
Ni 4.344871171892196 4.0664224719658355 8.647472507033534 -0.06900095264974569 1.667180679982929 -2.942429078927655
Ni 6.718969526622302 4.07107895893394 3.9176693821356476 -1.5273772026983243 0.8920786945905024 1.2548078717021873
Ni 6.981807469247671 0.4741788276900147 9.30699887966327 0.2832535501828605 0.1840357076301024 -0.391695482437048
Ni 0.5653805048243161 1.4516990005631594 4.961899032767493 -0.1606767211891878 0.4025761339052938 1.2096662421685425
Ni 3.8030866079616987 0.561674678859007 13.138499278896678 0.6358446104192792 -1.5477776207315472 0.42752766164430883
Ni 0.07149136714812399 6.451373668599819 4.19525870664532 1.205677946944756 1.6541462153964739 -1.5771488748048128
Ni 1.7691331002937665 5.068452363670501 13.097500063738305 0.6684806512867455 0.7553217174417055 -2.406718138007184
Ni 5.3503219678843195 1.4713207911931117 1.0657712047999346 0.24949368012359613 0.009238487879132477 0.3258176487973163
Ni 1.4603573000939511 8.149322453262368 4.907782355508475 -1.0057785328095192 1.124504106377902 1.8801186724696783
Ni 2.3475148855636805 7.804032418619598 0.6557200403120477 0.58611150486021 2.5730829107200845 -0.3687054492997779
Ni 7.882547243438227 5.932714786483195 10.379757581145244 1.6772177525039567 0.6821972295418897 -0.18474044700661085
P 3.680745481045249 3.9857592086054874 6.512588491736158 0.2725104527337436 -0.2304911708791643 -0.8196118948793434
Ni 1.3042497270840405 4.994132987506303 10.38340162797652 0.5170668434567224 0.5337440470020872 -0.6968810568063095
P 5.981667834629067 4.86172278381922 10.32157915634276 -1.1791284785910017 -1.8402681161316439 0.13164073896815393
Ni 2.293545740565039 7.7592471568293355 2.8826033290263804 0.19295435027597094 0.21436212652778566 0.6819156937457288
P 8.846790434954196 1.126574781760475 12.47356123854104 0.09302971146417527 -0.07188367351417943 -0.5964038879251534
P 6.404255552942369 2.4616679720292853 2.61890047852456 -0.04813670760622678 -0.8748872704128803 -0.13301602204912574
P 1.596520355654338 0.6152879022794927 8.624544149617913 1.1038419500428602 -0.30321456668581975 3.089889815647201
Ni 5.657779198507028 5.455558573363475 6.1250240099593904 -2.380426808410823 1.556954659245125 -0.3668349717499424
Ni 0.5269059354716196 8.075547102308306 12.874810259544269 -0.17638641861496074 0.8238223334162651 -0.5144219496347077
Ni 5.280548429492944 9.119457714427089 11.305443216412057 0.6714901275370306 -1.1540813058143868 0.49811987004057434
Ni 6.718213423787876 8.134154292742505 1.9050278315555953 0.6922877810086723 -0.8893461261506876 -0.05332622222696623
Ni 8.49307261993747 5.214251119986669 0.6738351577329144 -0.001817512824712999 -0.727751778243237 -2.584182620177672
Ni 7.039612453016077 7.016597420397487 4.108428594801272 -1.2362177674048258 -0.21684786906411688 -1.1776701488779202
Ni 3.7011694783409936 6.313338797485918 1.6946062568884148 1.4089848440996444 -1.020054068891927 -0.37906108150248913
Ni 3.4087144344452267 6.232380469604818 10.022032421106065 1.1741132847645972 -0.26310972824513396 1.1312712498984066
Ni 0.4265563361174048 3.206171082482103 0.4920588155709076 0.6967882399821871 1.4015415004477216 0.6529033656737788
Ni 8.544321638885437 3.4850623791895896 10.148417776110062 -0.2694451835448585 0.674054288719781 0.9942461066898877
Ni 2.8612775407890902 0.8368979547429061 4.143759804931342 1.7345286704102838 -0.3566703725121148 0.546982142958916
Ni 1.207542330407848 2.931650428988242 11.710268050576138 -1.6799580342532552 -0.4624339866031907 -1.1127317963333223
Ni 3.4428404904233534 8.52593543093613 9.707276031901275 -0.6687670721789127 -0.1678110182411239 0.27722354193869675
Ni 4.277126202080984 5.33479419747979 12.89354224622883 -0.42573148897583457 -0.7301195071444652 -0.2606394123277705
Ni 8.545778519956645 0.8897716727082592 1.2258492397672027 0.9717978049887005 -1.6139560163308335 0.8074402925138158
Ni 5.2925354256484605 7.488857406625992 0.20416989513376504 -0.5211533548212702 0.011052915380051933 0.3420695918798044
Ni 2.411672977294511 3.1742119065782424 4.401416598987646 -1.3844421217632736 -0.7315642100107917 0.8848140426082891
Ni 1.3205336003229955 6.063124083888934 1.5280580102270502 -0.37914104281080513 -2.0516369643590604 1.8271549757884535
Ni 7.4825872855600295 2.6450505716761312 0.43338707977279417 -1.5427806817375882 0.6993590860331569 -0.8527449299878863
Ni 2.396845985126765 5.376296866476696 3.753415262123123 -1.675628553639966 1.5708854103936043 -1.4568996655030522
Ni 8.67177107031739 2.7253081213204466 2.738498427474651 -0.9902387853027074 -1.4015008770177735 0.11627145560093526
Ni 6.971941249335053 1.9651297082027244 11.46026357045019 0.7461295094194763 -0.9916168965971567 1.6871751208269847
Ni 2.9963709874617543 4.140068732192071 1.0940808014127537 0.48288145582426506 -1.5984826032855823 2.4980799748506337
Ni 4.486299284994736 8.69921207074725 2.259164269361137 -1.1192603414804596 -0.0662131054919634 -0.29500323451962096
Ni 5.618129903531091 3.994002573653973 0.9677682904623189 -0.706715526398228 0.6895546983482254 1.0778002745634598
P 4.56387359165347 1.8554579141460277 11.294443764324429 -0.2629181810596182 0.9848055301022781 -0.3307739643613271
Ni 4.289915404902293 4.456949585946269 4.180548818209248 2.2621694327281103 -0.18899228030442936 1.7312242886273992
P 5.88030395098477 5.887781992432557 2.1946281262130944 0.41325983887138507 0.6963166996624073 0.23440541833190598
Ni 6.826373012175724 5.1031962109889495 8.387535417477798 -0.36085304313489464 -0.3873058380097846 -0.8929752382628428
P 5.903420412032369 7.681469993312584 9.778505529287232 -0.08525418128381446 0.23411565500562903 -0.6697723735149755
P 3.5579248742825786 8.362884620922294 5.362837313947305 -1.6925376706904784 1.593864387787281 -0.7645995431992059
P 8.891492709847997 3.3595032048436977 6.11173135329955 -1.0091716176514685 -1.3349468432466236 0.19057839384462663
Ni 7.004693411138432 0.8969269873364748 6.704899559365607 -0.9675164040045272 0.2935719013897331 0.8111431952866998
