# total energy = -381175.0618589944 ev
CRYSTAL
PRIMVEC
9.16039127561756 0.00000000000000 0.00000000000000
0.00000000000000 9.16039127561756 0.00000000000000
0.00000000000000 0.00000000000000 13.40715857840199
PRIMCOORD
 96 1
Ni 9.057007210219869 6.6790886911341225 5.983977123756633 -0.6371903258138961 -0.18008520762278665 0.6690920596184993
Ni 2.1381361141286863 4.765079873081398 2.1282795329958244 0.7595871775862789 0.6002055210594308 0.6600985978706373
Ni 3.431052075331676 2.221110939315921 10.397505908445664 -0.632461295769343 0.6843207036427957 0.15734739970563869
Ni 2.4126638836182246 4.925542449014805 9.135866271556738 -0.18820423718549523 -1.0792601469384382 1.017694310410499
Ni 1.0376158532356425 1.3887886174637094 0.9291064370559794 1.6093010340573253 -1.8572695357856464 -1.8801397555156008
Ni 5.074407969451739 0.9178803774106983 11.546808001594128 0.4979162386702005 0.18788619172444415 2.6155274530375405
Ni 8.038417489895895 4.77394713194442 11.57339420551783 -0.08745324581766228 -0.5535173729742725 1.3436703391625504
Ni 2.957716331560999 3.1486097276834086 4.510342213145239 0.5826669979550352 0.9189395235370883 -0.051141812981137735
Ni 7.755819415594042 7.196082860257235 10.332750185688868 0.2624947203689544 -1.0853672882774403 -0.684847265570227
Ni 2.293835286540635 0.3766862863203042 8.856581510819712 -0.39062924595606274 0.309749282480544 -0.4850820630200097
Ni 6.552876818598274 6.59248635095747 6.255029440753785 -0.1868505513710782 -0.10706947738669302 -0.5551312544286118
Ni 4.306519840618628 6.132872873485145 10.37472767922171 -1.516825138214091 -0.08530508912640793 1.4354996025607212
Ni 0.6112610087736177 5.987506622558206 10.590274436685078 1.89277081401605 1.3173437854528796 -0.5532970294333504
Ni 5.153911006303142 1.216527457423309 9.330336800515934 1.1441789590990101 0.04984443432595286 0.12670910599449145
Ni 6.372765203138856 1.9237096725319993 5.510221834060412 -0.3911606929795005 0.6752249119891145 0.4421616095073998
Ni 0.000667792532142792 1.4293691513099724 8.228670574660324 1.4323186337295786 -0.8956908374217929 1.6509721885438664
Ni 7.437908032493691 0.2903917352942692 10.20585128379896 0.29514773051728527 0.7666937067240732 -0.3961113521165565
Ni 7.904584171725714 1.7615799053660834 1.377652329654025 -0.5631309848046366 1.1158973385454976 0.2545734086393487
Ni 6.474482189104748 5.271072412148222 9.71366070643556 -1.27709110858042 -1.0074623482698455 1.4680027173947492
Ni 1.8278278558798924 8.334408056406154 13.026569381965427 -0.8281811246055931 1.727101010487645 0.7381464912139998
Ni 6.766332258707894 0.5011356995532139 3.542185027604696 -0.6209026443974662 1.26780196996901 -1.1356724642898959
Ni 6.831975623390133 3.977973243117484 0.673540677738397 -1.3589234086668789 -1.3583145714382865 -0.8085389248946333
Ni 4.695021199750424 6.069354719604787 8.196238208953169 -0.3413417125748444 0.16540395146152803 -1.2154106008514873
Ni 0.8916743297295722 7.960499200754516 4.338703959719183 0.09559515819850632 0.10308760992080956 -0.26360672248621053
P 0.32638199701629683 5.744371514353349 3.597623716281351 -0.18349654729718076 -0.0937547625556579 0.7050774765741729
Ni 6.24285253248249 6.068740973381831 12.355943540766505 -0.9605345733700553 0.2719844050269445 -0.6302223791364953
P 8.37018854516541 2.1943717568560475 3.6920233816069743 0.16184888712041803 0.40480836566992223 1.0372897160439234
Ni 5.97634926584833 4.397464206312916 7.360825171046843 1.3004899471203344 -0.5929514106001788 -1.8274984751708008
P 4.542656409803496 2.8126523735498434 6.388739093640236 -0.4428686628767534 0.4856633894447765 -0.6852157046532393
P 5.607295417632023 2.955682724672992 10.887175546099247 -0.20075713414984137 0.7817572859254149 -0.4885427678751006
P 8.908224133305422 0.6571325846852535 12.740380434239706 -0.26771046024193895 -0.6576272535120093 -0.7256961812657889
Ni 6.882064643496537 0.993847503186558 7.759259142560016 -0.45757434451804424 -2.495735128767541 -2.694580904827282
Ni 6.050301105518957 0.632098151062578 0.6889896778132779 -0.8177010510098756 -0.24489320523710725 -0.01706698278461577
Ni 0.798201696012356 6.730276958207016 1.6368804134482973 0.35467519645895695 0.7623176891435646 -0.25267413473410677
Ni 2.622326921693454 6.26037636120662 12.668277161551057 -0.3552596082075172 -1.9775262012865746 -1.4359297481196043
Ni -0.4710438138455449 4.267798866224011 9.468752146458103 1.6583700236698342 -1.095491521195636 -0.137707256877208
Ni 6.846256673563119 8.449654940451264 12.374633487314256 0.7016129150643401 0.3000163714634962 0.8781795680109069
Ni -0.08223924575882502 3.1990285218797587 13.124334575086786 0.8353683863826515 -0.38780077536833213 -0.33058884493371454
Ni 0.03907822965872635 2.3774604995163764 10.911536690954946 0.0012035333897979273 -0.7939337733869489 -1.112617382242645
Ni 0.5961335384364351 8.912227224341724 10.496866841746714 0.20356555013291394 -0.004191412373528265 2.2204165171610404
Ni 4.016914066905399 6.562595993860325 5.741870727504584 2.0920752748797646 0.4842765363995788 1.5186292813023652
Ni 1.881406985104902 2.2796000383245865 6.811506728834948 0.6714659591673146 0.1420269672984844 0.5336311755733067
Ni 6.522510121148982 5.623655876649951 3.086381356910399 0.08472222003974442 -0.14883987645525978 -0.6264971077661081
Ni 8.753844057253263 4.3622516618196805 1.6583716076823194 1.8325794892381344 0.1530706267071557 2.598216986783551
Ni 4.202036416453735 4.460506019841128 11.975797374619175 0.944030147957129 -1.2455009924789644 0.09902680958787462
Ni 3.4640386447177693 0.9899818180210676 0.2429601447293561 0.840453771325359 -0.9365667497005482 0.42336093186112894
Ni 1.9970477659796702 1.5285578692529374 11.957174298928551 -1.4656954094178112 0.17837079603484118 0.9394916366568272
Ni 4.557771055592736 3.6735184749652503 8.867441154809498 -0.24486363755075247 -0.4226433369688141 1.2684691712393639
Ni 5.593939566989167 8.676374627289865 6.378255025697335 -1.0737644139311895 -0.19562752623275986 0.24049224795593419
Ni 1.5637520929633983 1.2851113077409093 4.661293554701088 -0.39038576248668894 -1.039081003616391 0.1430842049184052
Ni 1.8998834945333245 4.039421148544286 11.404705598118523 -0.7370326893245307 -0.1326558104962296 0.3602601467459022
Ni 0.45237035600229275 3.739885510567096 4.846580791294398 0.7210129168575066 0.5028830957571726 -0.42666942740907166
Ni 7.87330143513768 5.793095636143028 8.069835800276461 0.3737648661005563 2.4444166809992227 -1.1373274833948153
Ni 8.917870025436374 7.18009797728619 12.43276624709795 0.4110301782099179 0.09127339089470088 0.25481457811587727
Ni 4.706874746205743 9.06619508278145 2.50228548879617 -0.596520873118992 -0.07081075216497483 -0.155302601361468
Ni 2.625707106115411 3.2747941190450955 0.35748427389399806 0.2185234569943269 -0.12714696486285845 -0.36908520123669986
P 2.4677178358566088 7.260049873315577 9.639076799759202 -0.6513514478056266 -0.2715360046356162 0.14775847046562296
Ni 0.025844212221323173 0.45259295351300705 2.864225377061008 1.0118972441127476 -0.9661375213791298 0.627050666276733
P 6.585854227592979 8.0350647866481 8.404411767388805 0.36009199659915403 -0.7963531814617189 0.03182717181292583
Ni 2.0382328856575027 5.907160829699159 5.200650071279166 -1.5251439424924316 -1.2865103450117907 -0.9704824286113868
P 4.5791788902651325 7.661733035653868 12.599833465221685 0.600116046669418 0.3809102188960859 -1.2868438170918095
P 5.523111420781649 7.685916468916652 4.296779596456386 0.6678165353401854 0.1364978099501391 -0.027723691167513546
P 0.6685070426710107 0.003271175764447065 6.504134376025821 -0.0004807962911604623 -0.3899988114609154 -0.28964942640687535
Ni 5.114796135078866 4.468704570132869 5.068362111136043 -0.7710771805037494 0.04687223907150637 -0.3574381039160748
Ni 7.695516559090667 8.871619209321299 5.481985843647835 1.797470304239827 -0.5466067618973682 0.7051625800888114
Ni 4.480777965981486 0.8384194783596772 4.7089294219939415 -0.7225481225551105 1.2933476796485983 0.35339118754021076
Ni 7.430964455822027 4.719360359666794 5.061818843568011 1.406062785356843 0.024570233140196393 1.0204685307215264
Ni 8.04737635267279 8.428705125348237 1.2181744957947667 -0.005138092557513733 0.3180002096354265 -1.4469165861484115
Ni 7.772931026705739 6.057950032327452 0.7323677951892584 -1.0390599205704685 1.6222838194702383 -0.14023053751969397
Ni 8.604209063939784 1.9227203502621582 6.106839957201242 0.5158239721885568 0.6044555545850364 -1.39224850518157
Ni 3.2227356147903974 4.460771671191364 6.974121996744397 0.2177377278682379 0.10819793456418142 -1.1734124020428307
Ni 2.8599383138916967 8.561338432246666 6.585341245675284 -1.3364583947951434 -0.1765982775154507 -1.4309916873880386
Ni 4.328266609772359 8.302804706119561 8.542210618990598 -0.552358576779481 -1.1985071402279295 0.37744411472435646
Ni 4.112136335377612 1.0502663537416672 7.390387586132318 0.01889863667671584 1.971605722037082 -1.2509350190103425
Ni 1.037780740280616 2.7632137412319473 2.5945663555938827 -0.22987821988551377 0.5732423622070256 1.783808233371702
Ni 3.006550378047326 1.5068935436216933 2.6449237751679373 -0.8484912969178549 -0.6984478870727971 0.25559156549121786
Ni 2.0327091696508894 6.592504671740245 7.590690536287885 0.15757957032110279 0.7020975680102425 -0.31087593988581946
Ni 5.564360663199193 8.023953231895161 10.516736646705162 -0.38767479131342913 -0.1499181971211031 -0.34907610510462456
Ni 5.802576641229005 7.350691946094081 1.551530298774305 2.4292127195652746 0.06491804082962367 -0.5693042034948841
Ni 3.215214933461327 8.15879419311796 4.196882780259173 -1.0729414038092617 0.3022699433843633 -0.8625243779721532
Ni 3.1389088732041324 8.8755490172265 11.0158442356052 0.4116662691320201 -1.350176001491552 0.0782137294972653
Ni 4.798203848338304 2.449424534255934 1.5487409595968362 0.8519460882356746 0.8960135108685343 -0.24082803402879818
Ni 0.21448964829726008 8.032847971932345 8.443239002323516 -0.6127355352056416 -0.5732924987186707 -1.1904413325006595
Ni 6.561148652021112 3.2618504860146733 3.4180076779959925 -0.07670320639000984 -0.7860134900986077 -0.8894101466194038
Ni 0.689291054689924 4.609435663017775 7.203384608232145 1.4589817448430615 0.06174478530796462 -0.42299583521222633
Ni 7.08422532102547 2.0565628288237265 12.342992579422974 0.10819047836501368 -0.0003956927765218992 -0.31292202378157075
Ni 4.159165784760617 6.1477951510552495 3.3641509889119443 -0.36690053488055524 0.005330411073977916 -0.7750428500197167
Ni 7.794760239381956 7.595851500795556 3.380909924955226 0.25867997460855446 -1.3992992413807643 0.5253851335144307
P 2.3187332303316377 8.5366328566748 1.949964270287479 -0.8842028913868515 1.4136781358102557 0.7204868691507076
Ni 7.347366724020448 2.3478541145522405 9.22384358648064 -1.3235321736517787 4.25435786401255 2.594297854234803
P 1.7229688556681155 2.504047948099109 9.131535238508766 -0.4543571231323271 1.4714806486410206 0.24155874154723558
Ni 4.894241391643996 5.252183685107366 0.8478134597274747 -0.7056099520388751 -1.2630035201391023 0.6292551301272196
P 4.590501134019982 4.102911821250482 2.909326564056962 -1.1059505117454307 -0.11912126634490453 -0.32852064955077614
P 0.7912397985579182 5.169666879489502 13.233214071078502 -0.10153723471455417 0.3046739248401656 -0.299166107648059
P 8.013510385713504 3.6978118329246836 7.3493490327166855 -0.8146470946749003 -1.2774978571005355 0.005183601083468492
Ni 3.655609909802848 7.172302484215497 1.0235830496692564 -1.4476532072041197 0.6726196131557834 1.503362584951282
