# total energy = -381177.4136706013 ev
CRYSTAL
PRIMVEC
9.15533002476500 0.00000000000000 0.00000000000000
0.00000000000000 9.15533002476500 0.00000000000000
0.00000000000000 0.00000000000000 13.39975092619092
PRIMCOORD
 96 1
Ni 4.345055439293055 1.6812023678664096 6.84141724509083 -0.19656700732789373 -0.30384628673254765 -0.3634388015841999
Ni 3.4703826954815353 6.585382953828434 9.6976274579033 0.7679406917572968 -0.4153761138834394 0.41051132959197045
Ni 8.487201304064254 3.8117940993300485 2.7801266755138645 0.08612732791738716 0.3368947325470843 0.13415527785989154
Ni 6.6565564877513195 5.105433045788739 1.6668623747890472 -0.9316929665480147 -0.7706205525823051 0.7725743338745663
Ni 6.1045908089917535 2.7458115838626727 8.17073908947394 0.42303440175964563 0.9734294270548526 -0.46939396286079155
Ni 7.898971363937494 4.303224737402951 9.066378454077434 0.4451078366199173 0.9060454411832397 -0.6530254930739399
Ni 3.766621702060236 8.653178278142976 5.8490582298028055 1.157249162019407 0.6156079716574302 0.022104030987890964
Ni 1.302290733126703 7.210939173580046 3.361233769050451 -3.443997826748778 -1.0650946540713333 0.3648192268714943
Ni 7.878976123638088 1.9959442959859073 1.4586033410607138 0.44083183495238265 0.40482456361983826 -0.44295428061202424
Ni 5.569947014227826 7.7531086494456725 12.267524872714274 -0.3806309970927703 -0.01996333049580433 -0.004220980059883053
Ni 6.499560892213676 5.540997861376763 12.892128022632932 1.2923187241634517 -1.0329579214377886 -2.6369298299727166
Ni 5.113654531955802 1.2312545291509283 12.127966518327842 -0.5272556110642662 -0.2192549358437127 -1.4505755230572375
Ni 7.900912293856667 1.8674950187877994 11.933804861436975 0.8577956050379163 -0.05388003784790721 -0.1554167583418291
Ni 6.050922265660655 2.949151458885479 2.630518515597828 -0.201672189764943 -0.37928528169815323 0.9298322591901922
Ni 7.6481794145228275 7.238908706141714 0.5308992648726923 0.8536617853752008 -0.18325306382780696 -0.06015841465745124
Ni 6.77591452245066 0.21690990486336487 10.600261494479662 0.5439053038058053 0.42790484247806954 2.2866067398348684
Ni 3.4277005479193416 8.47230558246758 13.311419239488268 0.7357013721076169 1.3250367832217633 1.2206574510727235
Ni 1.8109974785462084 7.461694501675483 5.919875621396183 -1.1139391863778623 -0.8950017817745682 -0.2946751617562409
Ni 0.06022284394023045 3.3800104349524887 5.072676191270769 -0.15566281291436418 1.5722192987136794 -1.913671311614143
Ni 5.658726247370382 5.531723512281846 8.586774671049756 -0.6940019354863015 -1.727071699911606 -0.03855780566854005
Ni 6.6606489201752375 0.18543937418333808 2.8041520919944976 0.2676821781071648 0.1911574062765482 0.28898659601189586
Ni 2.08295655047563 0.09335323591434254 4.340085010740606 -0.2524265374996749 0.6826769973917856 -0.8301763006587509
Ni 1.126471779505002 2.9436307950116043 10.022986822000462 0.24575761011993158 0.8666569120832881 -1.8535254953621818
Ni 7.2057755675686606 4.362798468459836 6.794692103885678 0.3797213407943073 1.1092968025098444 0.7774010658392483
P 2.236793557229715 0.30976509083618375 1.7678960168788347 -0.5664821606650566 0.11607605176067752 -0.26812157963742855
Ni 1.8737023323972304 4.973431500625352 8.41460136975737 -0.17596707168935502 0.1808791642789917 0.08943170970027178
P 7.838573653197942 1.487155152598135 4.226589133716958 -0.9252099299268324 2.235278007653905 -0.9583671334050914
Ni 2.7348801200726123 6.814476771599514 1.655445678519194 0.7833536838782573 -0.3837104073490424 -0.5619914718835547
P 4.027392960964991 4.047461443902856 6.879552855870658 0.601519611885164 0.47424254920234454 -0.22646867998333256
P 8.68496558323434 8.43922737587337 12.132697077239337 -0.9526603128283013 0.49892951042606326 -0.10907390941123152
P 9.210719552755263 6.339891940372264 9.149376096446604 -0.7738876533693512 -1.2515469415627285 1.1298877392873186
Ni 3.6508983332944425 6.317388139705626 7.1257598161177675 -0.18720330672480662 0.2662385036821028 0.8289218594263594
Ni 8.458590898416064 1.590216700240266 9.50921351706553 -0.6925065818876976 1.80312775963592 -0.4320818566738946
Ni 0.09358028809356655 5.858010311288501 6.867559373822937 0.38082742937429254 0.13217578553601753 0.6844919391133373
Ni 4.5162051747129714 1.493975873304663 9.361990320564326 -1.2522385683131143 0.867948377201202 1.9510957750091882
Ni 5.445516926815176 7.690238999658117 4.302740420456138 1.9724289892693256 1.0759377674334245 -1.1003812451877695
Ni 1.217988456259976 7.793859022418501 10.804848325422238 -0.7211782387907774 -0.9949328483442672 -0.06226414814654438
Ni 7.320729888630631 6.838463735694956 5.639298637519036 1.0812941466493313 0.25008220563721445 -0.6373384213559863
Ni 5.474109021803749 7.603446473083771 1.547389898467115 -0.07928202286077958 -0.5425518751017043 -0.2000894186588554
Ni 7.622764218977429 6.422299063968856 11.037749844860226 0.5788070007789966 1.0465906817298751 -1.4499898257570962
Ni 4.13496808620218 3.8212790210105356 12.169854898795734 -0.2865458477808871 0.24565579443474467 -0.5768287940067034
Ni 5.281618212602737 5.81180336175045 5.483473093130779 -0.3940336436519214 -1.5873931782406403 0.692697357742265
Ni 8.709172275245159 8.561396096823588 9.235080969839828 -0.1825454962378211 -1.1001701576182277 0.05283848395727029
Ni 2.338051504899784 4.9296964901353055 5.596753819903953 -0.9620893194516849 0.18635741378474358 0.8627519206019272
Ni 5.242579886303896 1.1601542378665017 1.0402349814499676 -1.303962479049967 0.6185277164073864 0.993397128426031
Ni 8.97531771274687 8.535889347980113 6.78255213656104 -0.4215650163029708 -0.8814194151044433 0.6026197869278783
Ni 3.29965410523276 8.861974729731005 10.908776882797133 1.1261305862377315 0.6701762938216136 -0.2672844284481139
Ni 1.136991253453728 7.708348242017195 13.395784688130664 -0.33687262105989724 0.0005671853573796683 0.2883775016729872
Ni 0.8019894960033902 1.8937341940158663 3.0473982185818875 -0.3677268874365925 -1.5069158495201789 1.2877475598530015
Ni 6.133860398386076 2.630399496310331 5.656906167804666 0.43291695098068017 -1.1239706024719351 -1.0328918440865438
Ni 4.532172069897112 5.703102130946948 0.25367313170506134 -1.0761830506750112 2.5434026100468325 0.471982035302942
Ni 4.108884551580839 9.082242809567733 2.8378528610156115 -0.15784953615303782 -0.4682981586934516 -0.09102990742532709
Ni 1.7032850233619075 5.150458957781632 10.867505571558263 -1.0542212016919392 0.04274124762226833 -1.5452448270073647
Ni 0.23518852082387962 1.3638053941027606 5.801864335711515 1.1207685505948697 -0.9434321093618139 0.3098996920154792
Ni 3.852095861142313 4.017724932688354 9.78861129446348 -0.5107984939495074 -0.056681254742128186 -0.580265330492078
Ni 4.195759476123452 3.745198230310873 1.2033811275522368 -0.3604344675402373 -1.0793313664960058 0.8733857461666894
P 4.648865903622493 1.2905444449837826 4.516640968411805 -0.19953226060380472 -0.00453131221145026 0.5439459272357535
Ni 6.303664300324303 0.4012112715516406 8.394528309154602 0.626484766470934 -0.860476237193873 -0.8427471953452259
P 2.443200467738007 5.073838002623331 0.2935564949451267 -0.8444641780363327 -0.7226908187805618 0.18729843754177422
Ni 2.2388718170959994 4.399602894285666 3.267100499036516 -0.7605374573146902 0.7865516219902647 -0.2939318558323131
P 2.0859411879928493 0.8929220627166508 6.973042506199131 0.6657712227753825 -0.8271249154269368 -1.121300768949256
P 5.197022965182172 5.6555951245762435 10.951924121113544 0.023751593893642967 -0.05936548644251067 -0.34216729379993327
P 4.889175000407662 5.580777769390005 3.0761001775281507 0.3793575296969854 0.27367516246580614 0.15045812878497314
Ni 7.0660286133881955 4.430721860301087 4.579029963384471 -0.13952245570907587 1.4270216469966972 -2.046803804636475
Ni 3.8272757620343962 8.743834353896052 8.277173460617126 0.1357604175634823 -0.90505453802488 0.24252521922556297
Ni 0.0494497673558389 5.620383726136905 12.653705839321074 0.5161096217497757 0.8477569898549916 -0.06468124222846926
Ni 0.39399961826233554 3.3722284046161817 7.331485570088388 -1.129792608470351 -0.5574485897078787 0.8001694698840155
Ni 1.7381576745983718 7.289208088103682 8.376076657460727 -0.3445309089361034 1.845049596680687 -0.6088516267702031
Ni 8.434530691682163 4.036960280613745 11.203960279849037 -0.4786666464119691 -0.5672138966247586 0.24989502932707283
Ni 6.221302953376749 3.1204843009015435 13.019680077509914 0.8872177669537753 0.1725063668342642 1.4956662447482887
Ni 0.8174336218555277 1.1397286970661469 0.28563164146382364 -1.0528382053014835 -0.34685904284864777 0.8409867610106935
Ni 1.4314724367094043 3.3492119054803267 12.343046272762702 -0.8926471654994625 0.9066095412168257 1.1272587863049037
Ni 7.342089273071342 7.014246067997426 7.957039958774038 0.7478225808511831 -0.10058284122108485 0.42296549619492313
Ni 2.9825684126825633 1.9313717548541713 13.303433045297254 1.7666947136198672 -1.0127624203265202 0.696244194553259
Ni 2.5647100049420906 2.8284567460342562 7.915902315350356 0.31307757552282856 -0.6787511799748182 0.6614389139486156
Ni 1.82259728141221 0.5673805075563203 9.054854640448834 -0.7339635634809037 0.414309363181822 0.5408822007087652
Ni 7.483429254638298 6.63153497138764 3.0877311085154973 1.0884865506327124 1.1899255692065054 0.8273216048187753
Ni 3.4598082895539646 2.229844661905883 2.89015176700752 -0.590392648734067 -0.5233971565501243 -0.6044792087341203
Ni 0.31444071776883337 5.565644009218339 1.52348441680696 0.6048437911623905 0.5428146418447878 0.8129295977631613
Ni 1.0426364244584538 1.018988207565887 11.400963751112128 -0.2806299965170844 -1.0451202678319356 -0.46533316252785667
Ni 5.745793433838949 7.626682700135005 9.730845741043563 -1.2133233793051557 -0.5713441167430482 0.0953835564083325
Ni 3.3311301291106714 7.051187823770368 4.01559723404111 1.051527199799544 -1.4900363001560208 0.487542094524728
Ni 6.059354324413289 3.224040236353275 10.456844168579403 0.5610062251521499 0.13334203792997681 1.1779740532715843
Ni 8.775273756454734 8.844936660959396 4.142103750254083 -0.0431690791883063 -2.050301019156456 0.7549188255763322
Ni 7.081629295380041 0.35783423445706364 0.08989984551098358 0.284076303194472 -1.6403393914203686 -0.9093151130734468
Ni 2.880724523904819 6.572492249459587 12.052499134725275 1.091434577517443 0.3039033652227282 1.0555617748802335
Ni 1.433944375757408 3.204017530064447 1.4247954546808528 0.3214832830880205 1.636357009733853 -1.9218381636956516
Ni 2.4212368315300052 2.427499077118281 5.106859446172735 -0.2817723376516438 -0.277046135820568 0.9387023079863125
P 7.880834655588994 1.5669804731890333 7.3289001049507725 -0.31437341151611664 0.4390940263256696 0.6132667251187631
Ni 4.18731826204101 3.89323991329686 4.458941333366499 1.5803869221261362 0.2571761363695184 0.005880112929860841
P 0.18347555593964643 5.473642099983571 4.7725754665792985 -0.1991630501898441 1.43331802152837 -1.5985149991854146
Ni 8.965585597161581 8.72379333694761 1.81734120656977 0.24189812716452533 0.020984829781783215 0.2645135505711961
P 2.8581474805997207 2.2423874637420487 11.075175002046999 2.0706376738312793 -0.9327558605948905 -0.7595491252594919
P 8.577582719923107 3.6717541745957463 0.03883324691115424 -0.7056608598814685 -0.5216356937743275 0.8550239558300502
P 5.424075144406197 7.656153706785091 7.238666089901819 0.07387627846417599 -0.25210900625925614 -0.44182813742738103
Ni 6.421227890381387 0.18781792886730592 6.013968607958964 0.23768460330380997 -0.3641756797502244 -0.888152877173535
