# total energy = -340861.0904608932 ev
CRYSTAL
PRIMVEC
9.36298458915037 0.00000000000000 0.00000000000000
0.00000000000000 9.36298458915037 0.00000000000000
0.00000000000000 0.00000000000000 13.70367437120362
PRIMCOORD
 96 1
Ni 3.9738941718391585 5.213787429334695 8.481245336958542 0.8276941576668455 0.3779315958837362 -0.41226919282334157
Ni 8.922484420692044 9.360372492178177 8.887435959821492 0.5198899147278143 -0.8104741942441331 -0.36761273045623144
Ni 7.367395644069985 6.540269569936282 10.284470999522235 -0.4987603318380507 1.1413564020485505 1.1491064783076146
Ni 1.1068452439859153 6.506207031361475 13.579751952673544 -0.3312061668027393 0.568024308341196 -1.436356808354694
Ni 6.264754380243522 5.691018762803053 1.6417965696346237 -1.873604268389928 -2.534310417937577 1.3450903594385286
Ni -0.04808454455876214 3.292634037358262 7.505132640349882 0.5389243056514461 -1.3089681597946747 0.9811769322107554
Ni 0.8526458254089901 5.628230586969449 10.556283128740468 1.2659610601055293 -0.17100201437459583 -0.5955497674549742
Ni 3.369007904085776 3.4763077094918464 0.01820538757692521 -2.3081405001415862 -0.06516049585773294 0.022323860308180912
Ni 2.029651659432414 4.119132791512715 8.09330785289482 -0.6027622260430135 0.022747320998844696 2.1809950779406244
Ni 4.566786456108668 6.947746666905931 10.001462613122106 0.9435048715812783 -0.48525586959371264 -0.9008163315738164
Ni 6.387091139182066 5.766587412840785 8.398858561414992 -2.5005358925902934 -1.5034291765231593 -1.0559973197557555
Ni 3.638137538168855 3.467366059041341 4.4791826254541 -0.03466232726887579 -0.38870271835731124 -0.44695260313813995
Ni 2.511948367658599 6.1033552488657 5.034880452744935 -0.003969269060393164 0.9779134309681351 1.196010856168637
Ni 6.201835122623209 2.8780691609215627 1.1744141598404918 -1.2490671125636683 2.1878493818582965 0.8063627431789209
Ni 2.0364491863717515 7.7573077816206295 2.0020383447636894 -0.9551537686741164 0.9281057634173888 -1.151822334576881
Ni 6.222555407907994 3.1038388125582617 5.389244146038578 -0.16494269555439334 -0.8015642933490131 -0.34648649000057746
Ni 2.3483114829219596 8.610088434010235 5.446196373468204 -2.387727198726978 -1.4516055069836484 1.5620878667066322
Ni 4.94219533025844 7.696083224242767 5.5290353811759 -1.0306500992402186 -1.6787498728777668 0.8967784140590168
Ni 3.368380584106526 6.4170339644603045 0.6151087745197301 1.2759310268340478 -1.1287559396757207 -0.266822915430663
Ni 1.197900270824836 2.219467449571791 12.838575269786446 -3.2480139456178643 0.5467929097662453 0.9621438268387041
Ni 8.139242656151556 1.2940393983911127 4.0616459376530125 1.0418367119846572 0.6931555283256062 -1.2337819042698235
Ni 4.77924194340964 7.9786112895244585 12.511235959419812 -2.8857815056369396 0.5112525507677905 -0.6409878451831155
Ni 6.9879981384103536 1.165204728025709 9.119863629924529 -1.6301881619189795 0.1009538514072584 -0.047064300477654426
Ni 3.1018257708338024 4.485113140004205 10.734430767265792 0.20141019435280796 -1.0158300035082506 -1.2077564267403393
P 6.015577266694504 -0.15892543080292798 13.542560304590298 0.5491367274080735 1.37917187450327 2.09000219440082
P 2.839250226086173 9.12755251301349 3.5000007424394957 0.8523744340223449 -0.011095338582213149 -1.6853432098245684
P 5.070215420949295 2.4145077852099974 3.154024410898274 0.9776360089370325 1.2460090424636348 0.6387391583582548
P 2.381213011385915 4.340932537609085 6.1112772702753055 -0.2201715341207111 0.11936834935870409 -0.74935624388689
P 2.232603717196984 6.813799806858876 9.16871781183097 1.1879082816661606 -2.497393747416886 1.5931359942616885
P 6.887065162644435 6.672156573335052 3.5833050904900094 0.42200750315702806 0.7463835344118113 -0.6100420475338784
P 5.02756702534505 4.615764229414005 0.12811746573241023 1.689587072702587 1.6633001139816 0.9541739212593502
P 7.883642535053798 7.414772346980518 7.801090970978384 0.35590572643194834 0.1886104714849784 0.4790355997156137
Ni 0.9453992976842689 2.739759149974052 10.579318880157617 -0.15362469943841287 0.02146434052136303 -1.374313260859388
Ni 0.7091992810194405 7.282707446871215 7.735271996976373 -2.6397708989659376 -1.9909103359029645 -2.030451074310064
Ni 6.84886418480353 7.843587686229437 1.571948703288264 -1.351423500745408 1.6629810400792842 2.046069497573612
Ni 0.6691631581646101 9.054436964984168 3.5232696321772936 -1.0765265500573589 0.021916083346800966 -0.20433353864719003
Ni 9.531612120543938 6.6346390933819865 4.432303097034584 0.2494263172207704 0.2365602598913797 -0.42325011731487755
Ni 3.736664226850188 6.780505033034793 3.3571805817307196 0.5773859520617539 0.619868289595681 -1.2563122241618556
Ni 5.781615003388493 0.7851527497310097 1.9690122886023604 3.0631331163786473 -0.44792165191962857 1.1381360953390398
Ni 1.6862548301939295 1.7463932813390595 4.328867395440999 -1.4688547809823993 0.4271121713734451 0.5369664105941269
Ni 4.34863827407062 3.4194556659992057 6.717678468963654 0.1577376931655219 0.8453632928118344 1.5250750369277088
Ni 3.735035067501091 0.8817675169233445 5.086310391760206 2.937341894212735 1.9966225557963937 0.5923037497138509
Ni 6.905425975768457 8.541776097165323 11.732907889283958 2.2404335837129157 0.3212439133837048 -1.049048656352064
Ni 5.586153333435865 7.807858536366473 7.7786853484359115 0.23447406678631233 1.4097767438733204 0.18815667177701142
Ni 7.327097357641737 2.1267926263685375 11.420779683966426 1.8069185941369204 -0.5234719756521178 -0.8974499862047447
Ni 6.677409207788176 9.516912234463001 5.299759291744736 -1.0922331621593382 -1.6647227053607396 0.47281738672004375
Ni 5.266398040728823 1.0057999124028167 11.453174674954598 -0.24172714880429982 -2.6063581278334467 -1.1100542495011594
Ni 7.425240163947708 6.8863535758023 5.66331743607754 -0.7263772664932134 0.6463138853817192 0.4406266609201121
Ni 3.081826435375917 1.893719846615195 2.488587720670105 0.5844094345674387 -0.6782408159973028 -0.3860801931327996
Ni 0.3842728118267288 7.825404769815948 11.086244919807946 -1.446547889955083 0.36077796692258507 -0.5488821881951064
Ni 6.96786772116576 3.7455216104378093 3.430838246577929 1.7253256637547771 -0.40223237741262985 -2.2764493396858922
Ni 1.938727714380202 8.751254155311047 8.588956177395794 1.058138020247842 5.617267253910371 1.5117880900108158
Ni 8.715159849042253 7.814524981519102 0.39420412976688746 0.4677505137200976 0.5075650746138743 -1.1701069918186817
Ni 8.450458906752985 5.65340765300234 2.3878925647172147 0.9679267520690683 -0.49830036148249673 -0.48414438169708884
Ni 3.2634683398155127 8.62565907767431 10.753328079416843 -0.5244209698289484 1.7875520166848504 -0.852120666140326
Ni 5.361432336092838 5.249703838892957 4.055560933854286 -0.540145836763373 0.168900908871193 1.5310219985397633
P 2.68704554574751 1.5148653940719299 9.686757714397263 0.6577141567988609 -0.36422170249681146 0.32201935809714866
P 5.340150271722158 5.698387431813052 6.441549067470314 -0.3626674706358141 -0.4532088684604969 -0.07381842864304707
P -0.16688771304702238 0.6921043434356358 11.599503146054792 -0.20892835710672406 0.3620167244256926 -0.4031289210849703
P 8.420834422956753 -0.08617129398553461 2.0365577969950244 0.196809462356003 0.9720034932416034 0.46250854859486795
P 8.318150569039792 3.390617672923229 1.5788960379838402 0.40813820137410356 0.9015596374977441 0.144663376480067
P 8.642755887855067 3.19650427277675 5.040238888925903 0.6459562449319843 -1.0860838547284908 -0.8805115585781932
P 2.694283132970799 7.238570336689347 12.34037834083246 0.659967985830044 -0.9471558380703045 -0.09321560222273624
P 5.818196184865065 8.755411320546676 9.766581841010655 -0.3001762940801282 0.12540247136792596 1.0742220702938985
Ni 8.454222826628484 5.355271492117516 8.68415526129167 3.5404509620722053 -1.5302036164035258 -0.31923099671873406
Ni 3.1635746553584996 7.423695271461495 7.256740144924165 1.600454639410289 -1.3824387181799997 -0.6139987181887813
Ni 2.382654911039714 2.2624716385971033 6.621286540808724 -1.4876423460025476 -1.0547799024088866 0.07727476262276368
Ni 9.050776037941082 8.794651589696487 5.6527110469358295 -0.326628831844702 -0.2234365780252281 0.6065826282303682
Ni 7.87618023619615 1.9134757444691923 13.739852438064469 1.2744251317124824 -1.2852769868253218 -0.599174251581439
Ni 7.740988099175361 4.623048631561118 13.379404677270575 -0.4597718663899953 -0.8326291330746176 2.2276570007735375
Ni 4.828350798501685 2.6410171126431257 9.729869577747374 -0.6280472258620474 0.2611574896147696 -0.2885752195060901
Ni 1.384364112418369 4.376062456447093 3.9219642494374405 -0.855109830675637 -1.4703120822542162 0.19902421061913464
Ni 6.5591921621462 3.196672806502519 7.730448187225481 -0.3296074548570517 0.7475395023931254 1.1400669938131656
Ni 5.138658839580915 8.79359357241805 3.701321768258016 0.295911091045871 0.13311912328589331 -1.354557161278383
Ni 5.547708917991073 2.843763184742868 12.603378965088417 -0.47400163683613206 1.9730067161496665 0.3236759198639651
Ni 6.306550744234159 6.636174622883435 13.36937317539343 1.5983707602980666 -0.19117746088120624 -1.4483967702383638
Ni 7.988021089213211 4.621578642953025 6.309322187724577 -1.3994272823181964 2.2827796527792947 0.08424476618269362
Ni 4.608667086962189 5.7297721567450886 12.005351083675345 -0.2919708754512004 -0.9092428650746147 0.394554806262714
Ni 7.910973087582621 1.5192098190028565 6.751731644553695 1.125689642045571 -0.34885293335022505 -0.48586624948420193
Ni 0.8610397412507478 2.4455367167209676 2.0782305695867644 -0.7079617401005033 -0.8139747511982239 -0.4864087522512333
Ni 3.5420733144806977 4.458952960570997 2.2881028093910927 0.06484707838237219 0.40687733238380897 -0.2778963996360053
Ni 3.2025433979501283 1.8477663173889305 12.057589048275828 0.7901241698328716 -0.7579627546089784 -2.1593687579201006
Ni 4.312244352289347 1.2968014788967661 14.167955254172776 -0.2920636922753228 -0.2694832358716455 -1.8031105332447397
Ni 1.0140674279502477 4.49610528411823 0.7974716287862249 -0.06620282107931823 -2.0297157388059364 -0.06012473320603839
Ni 4.30339633168649 8.451310938366593 1.5657681970449353 -0.578311806310133 -0.7823681800365364 -0.9489903201758818
Ni 8.45825827306217 4.363281982242967 11.26743552838187 -0.3495877546337205 -1.200621615467771 -1.5612278326991822
Ni 1.647267361632771 9.041656490780042 12.486472737313532 -0.1288868303721006 2.2345131044634226 2.2448535671574823
Ni 3.8969491630409836 0.6871578785843244 7.604251069668359 -0.0859748614999229 -0.49015999176354946 0.944317854400877
P 1.7157763211577461 4.339378282138107 12.312985056305711 -0.9611701500715253 -0.34085474563609686 0.14491303059702787
P 1.307053947214362 5.8571930164109896 2.3900994202263077 0.4395038601695786 0.32557827909300063 0.6491546972646239
P 8.293516556123269 6.346399607393691 12.198476688929123 0.632259207060866 1.4484944721584925 0.6997987446737367
P 0.8680741517046379 0.7137880798527315 6.896072353988295 -0.35792404241355774 -0.07166564396610238 0.8799865393126586
P 5.493469147247847 4.678327693613251 10.231424073038061 -0.7676663550499876 0.6043894772337913 -0.19945589883991455
P 2.1925956832964486 1.0453678860194007 0.5317117329200436 0.28078246293454867 -0.11496842051879556 0.8996523931727022
P 7.90012138824007 3.1163196712499106 9.40317350443409 1.6225787250028376 0.6633901241377156 0.41329789119817206
P 5.64041183014862 1.4071723433057328 6.663014555010576 0.05262585372583194 0.12321214858482651 0.5024791754505347
