# total energy = -340897.84606159193 ev
CRYSTAL
PRIMVEC
9.01982887678702 0.00000000000000 0.00000000000000
0.00000000000000 9.01982887678702 0.00000000000000
0.00000000000000 0.00000000000000 13.20143129945915
PRIMCOORD
 96 1
Ni 6.305230068299454 1.9724200589313807 11.430194806716766 0.9441587031151932 0.5756126622114152 0.3337944963552058
Ni 4.597370604716974 0.19672156177764144 6.043905787485045 -0.07750076259064072 0.29218659100643224 -0.5911495815047497
Ni 2.819823944664357 1.49614604453678 4.802218130162742 -0.44086037419747304 0.9335313053083342 0.40849789870636743
Ni 3.5607938518382305 4.283922537860417 5.039765240563622 -0.4131767922392755 0.2833450814554023 -0.8582062102127735
Ni 4.93589379533576 4.537370704261454 2.428323692209212 0.10351415593526687 -0.3371359020236129 0.5101878569487021
Ni 7.269855647706505 6.0716255250196065 2.605394655199662 -0.14977113002027753 -0.573794892276386 -0.8547681310655021
Ni 5.115442505267751 4.58042234660574 11.546486556052756 -0.28842352441957425 -0.2513057936316704 -0.38655430455574075
Ni 5.754488348228247 7.906881049040117 12.350176744015492 -1.6381583246086497 0.8124966239908007 0.5415699708044093
Ni 1.9804837857815363 6.316360536904702 0.4844315474631475 -0.801569949775968 1.4107406504484865 -1.5394457038270843
Ni 2.767977969345906 1.6635089659066231 0.43792080081568885 -0.43972497504144914 -0.5761883322092269 -0.033407886036484404
Ni 0.628379895532857 8.99454611162723 4.6451080480664695 -0.47082195355656986 -0.05653675874446392 -0.0922637798324282
Ni 8.48753252105217 2.3690850652952498 1.379074080018982 0.35508117364812397 0.25119729307826416 0.38178850773598116
Ni 6.934940388564299 0.5604118784113095 4.776475539077346 -0.7731967979499135 0.4971186824695696 -0.07323118868100938
Ni 0.8448648039563331 7.335520000580257 2.4996245360322504 -0.3109427885680129 0.3074417173932899 -0.008269696207959951
Ni 7.645666810135744 3.7448975752594036 3.937643196549854 -0.8996608778131344 0.051225630944195646 -1.0613644976049397
Ni 7.640137655147885 4.058562118004555 12.558151444068585 0.06785989706676701 -0.9777985026568258 -0.15993881458189874
Ni 7.795693620760621 8.642258662425292 7.004058433844007 0.8966550011072753 0.2576834150232401 0.20841516491573137
Ni 6.877249564253789 0.7513643577578999 0.32051239668769993 -0.22801442720389767 -0.11046616177306783 -0.2720844209399185
Ni 1.7814702855333977 6.487647083755326 9.338335980218952 0.9022785179416397 -0.2781470821942306 -0.6650749680393062
Ni 9.15142799205761 4.827718989839208 1.195658569526967 -0.7744239854887953 0.4415825970754782 1.2155592106142097
Ni 6.418248521803314 1.9843172129754023 6.948190516912039 0.35851462480970514 -1.0534979503726696 0.9374455527610758
Ni 3.2936265259975004 4.3092772763120815 0.3644227267234137 0.7394407845453911 -0.33332912668301307 0.2827419006537647
Ni 6.075269535810952 5.59244712578636 4.750627415996259 -0.503031962630211 -0.5161427889805562 0.4454953018663231
Ni 5.401885205022109 2.8961948341948585 9.47017881620187 -0.5688753434875815 -0.2373539594372686 -0.9291982251506191
P 0.17718551481483125 5.704347120532479 12.360830063682961 0.5633004205029654 0.2595443794913788 0.06899272511962956
P 3.9540493629567313 6.238447256667962 12.514520728722307 0.8254809520656106 0.24454199254527562 0.8264273751392799
P 2.4379965564979225 8.528906475259848 1.447814194476518 0.17399195024085518 -0.2193032725831449 0.41319376152014
P 6.279803171218258 7.712494720910692 5.800616654139188 -0.5653585885835748 -0.6628455644881552 0.1759120500817035
P 4.60095147670748 1.0975688344903243 12.518890835723314 0.8130144441674837 -0.9399436365925812 0.7507009308402426
P 3.8561210828536656 6.128603782863492 8.119473901383232 0.4231105064132197 -0.048489205849639075 1.286982656662519
P 4.684628427478056 1.0970907835696775 3.738565655518006 0.7477282213651639 -0.7807452997211328 0.707221519500369
P 0.1339137886504721 5.472095551556351 3.5206502022640658 0.5756260319478539 0.28041736628564606 0.2666496230775924
Ni 1.4563325206927225 1.1962006612313227 2.64745501837076 -0.4604179846144264 -0.37838076760601286 -0.5551842191537342
Ni 1.8343896204661312 6.450449310231789 4.648659154622294 0.17084466286112512 -0.03553084591675816 0.4076507202147237
Ni 5.992819281742413 5.632801839351904 9.08316502653785 -0.17833402925963482 0.20826578382206065 0.6069047874564774
Ni 8.530196310762726 2.319034035886397 10.013694751508353 0.43060450079741974 0.2074648851873201 0.8938956931945831
Ni 2.2571219317482885 5.23797687804109 6.86634188541722 -0.5791692692144219 -0.3133215732128346 0.9651700152595378
Ni 0.5112014970365 -0.04688146160667721 9.015824789493227 0.6632299444107674 0.2500336117874662 0.40421521217061357
Ni 1.4208394947918692 1.0640601709015898 11.347804985500462 0.25792972670609127 0.9368084333977091 -0.2742672875238502
Ni 4.069214535689157 6.755418738118382 1.6922389242546276 0.46452686457647735 1.0846144692718158 -0.35479860941069863
Ni 5.541097241045938 7.922819086337908 8.044397357269954 -0.19051565892749125 -0.5590277612695405 -0.19481402919252902
Ni 5.283698389678047 2.781246137351028 5.079435349131486 0.059080351101924056 -0.32611486832276093 -1.1263303609533633
Ni 0.8941924431041314 7.322684784352324 7.051187940739698 -0.4155946576521488 0.6750202521774762 -0.6103094422626522
Ni 5.058509346567323 4.549186679847251 7.111742560659744 -0.01149823044758665 -0.6027665969183876 -0.3248971938655759
Ni 8.287788414680023 7.021530744002213 9.333134245012594 -0.9503440059902988 0.16898421261361865 -0.21876154114706195
Ni 4.558711618945423 0.46640181189180935 10.395664652968115 0.03484050471795291 -0.8875700080868714 -0.0075937531868578885
Ni 8.092770698542196 7.203126955047163 4.636752078766711 0.3828976816397599 -0.16230705770375917 0.2863113631725779
Ni 7.173163084134169 6.079644152726305 6.984428580662805 0.42551963007534466 -0.19411546046360764 0.4292063348983124
Ni 2.3442173975929235 5.234711700054786 2.4851432010681282 -0.2597240996023527 -0.8132394156940962 1.560971750824318
Ni 2.509767333395785 5.222949843441136 11.354101727909962 -1.2392167021321496 -0.3349301526215458 -0.28376288571911135
Ni 1.0420608087231447 3.3029800883505334 3.8386857539930936 0.17806354920706752 0.5385826060413111 -0.43115163155014136
Ni 3.5674955845559775 2.5251010421712485 2.5737774496875248 0.4181791305498734 0.9525523264955273 0.09623176334124073
Ni 1.055635650903776 3.301067884667946 8.047341429354843 -0.4192751918275295 0.09157780950899712 0.22118274899404486
Ni 3.454738706084169 2.6499444910895997 7.112482186612443 0.45769904302136655 0.6253827916560069 -0.5682215119536665
Ni 4.055441257277313 6.690259495651353 5.99342361026474 0.4897604423322855 0.9608852718412548 -0.54711404055109
Ni 0.7310156242299902 7.625083561061857 11.368979935336508 0.07752441673972454 -1.361500939586068 0.5749991969971323
P 0.15774688200188877 5.546770713292859 8.026285541257524 0.13373593093428582 -1.0280460859584681 -0.2152686975024551
P 8.521510215732858 1.5302770763052245 7.937914671635918 -0.20354575263857205 0.5549283943891863 -0.4583287061855655
P 1.8027931605599838 3.2207192506845153 10.261776119837977 -0.7622711521763452 -0.5624247027662314 0.6083888282011715
P 4.062909675433834 6.0091181121878625 3.7899858949222205 -0.41314439633944333 0.473569691505036 0.05547643580074962
P 6.933731731519645 4.174493976175754 10.434081005347865 0.3131631932580994 -0.5746919501693586 0.02157206974382091
P 6.386507744638104 7.917262871863976 10.212283417825127 -0.5108476020198879 -0.7017075316606755 -0.6525688651524955
P 2.3713129629820373 8.36525070348219 5.717975179702392 0.7751737191706263 0.07551869916360543 0.886693519019189
P 6.819739136517108 3.949070417519051 1.5851618319098246 1.0147262289211105 0.073706328545215 0.07048165096033022
Ni 5.289741674901319 2.926330081852991 0.38912533156068607 -0.1616051465407281 -0.04274844671111992 -0.06781336009954773
Ni 1.4920871216256277 1.0189880869304173 6.871490403634299 -0.42068569902181097 0.12169674038156458 0.46395453701277517
Ni 6.764023654690025 0.679130863648166 9.102518872961094 0.35270187478266996 1.0197517071601598 0.09088978230303701
Ni 2.8004132733203577 1.5220690321960055 9.125449983443366 -1.0516575547298208 -0.031374143435907255 0.5946935901022661
Ni 6.2574881150356125 1.8139957877947643 2.447875072880798 0.8924731018154437 1.0194755706806378 0.9308252192310807
Ni 4.358065529704131 6.861762518390571 10.347730577353145 -0.9019087933070468 0.5122092582541049 -0.004680693305120971
Ni 8.190284066525455 7.380393648320218 0.3454540269852957 -1.1746979536234736 -1.6108303262176582 -0.3749635143943478
Ni 7.487242538999127 3.775177140176599 8.314194865157111 0.8650725983153036 0.3904042744294502 -0.4812809441063647
Ni 2.9318682566695404 8.347337323700971 12.415549756422509 1.1631781259093321 -0.031792719030564597 0.1107546395477641
Ni 0.16239119179511602 4.799820659696555 10.286026831257809 -0.30829506653252065 -0.32024118315080335 0.144673403782396
Ni 8.642141404652303 2.303077958931223 5.712127624761724 0.33289229625591055 0.08935483371574934 1.053151108556212
Ni 3.5550933201052346 2.663501293612848 11.531212378146654 -0.2472380513202 0.8273619711384075 -0.8744131589899392
Ni 1.1661826713461794 3.3827965524411687 12.64689212666654 -0.4479494198337705 -0.0795113652627663 -0.8888697007349016
Ni 3.1299887938772257 8.26984797541273 8.012199274790087 -0.40870075874579287 0.1327419424521327 -0.023826670105952512
Ni 5.675745243751894 7.754148289807805 3.599660293669686 -0.7684453993078572 0.5244608219279484 -0.025603559500717195
Ni 3.2030674459353485 8.412397348052396 3.662855919430587 0.013529144834686377 -0.8431205195242447 -0.5732665305767417
Ni 3.417135040269516 4.193119922423596 9.260988243241167 0.29694133208259826 0.8191722362387633 -0.8690583224359292
Ni 7.120866117381144 6.261492918974616 11.405217999087276 0.966130065179962 -1.075503250999167 -0.17736318070593327
Ni 0.614850152495683 0.016813862663730757 0.42849958974746993 0.6239612287181318 1.3594101184953105 -0.34536703168415356
Ni 4.595395262233546 0.2819526290317539 1.5484484231870184 -0.5637457355705 -0.1758428874066649 -0.41684369956790146
Ni 5.979848768084109 5.679939464093418 0.39547168302798985 -0.1838374755763673 0.5910814472709756 0.12372354100360627
Ni 7.9581046561788575 9.063123869168319 11.26423988060566 -0.2946977874640602 -0.22504403172166404 -0.22431743796828463
Ni -0.017432622911964183 4.947439176060815 5.745909589159809 0.24330709169691 -0.5214192068881471 0.13435582390647186
Ni 7.911769796190882 8.806230128207151 2.3379864999328706 0.30600189962296975 0.3587210843935564 1.1155648949067434
P 8.446158566844492 1.6041043741447374 3.6390011784903114 0.1813465908337135 -0.1400618731523136 -1.0830856913321154
P 1.6890441009321162 3.298262717944905 1.6817831388354993 0.36611711974731137 -0.9268955451593714 -0.9368963651258252
P 4.70463440751569 1.1647124392694732 8.11654335904138 0.5114330422097128 -0.8195180496139564 0.19217144936335934
P 8.615108978064029 1.731996525160798 12.401305642952973 -0.7011300618906505 0.3581199604744478 0.43100070779457383
P 6.179502676169341 7.782551730357179 1.4210280092115206 0.9468349643957757 -0.7643195500649418 -0.5137912580292441
P 1.7704029557289895 3.2859416319523858 5.870293928797765 -0.10206353953166938 -0.5721527286872727 0.46259905142614527
P 6.94403237588528 3.8989742889667416 6.129094461544307 -0.08730103651051416 1.1431083517426506 -1.139792142885224
P 2.3987422620327346 8.399760568055676 10.194237446562145 0.4621951311195072 0.9254431289835611 -0.32972315449930956
