# total energy = -340860.2979501548 ev
CRYSTAL
PRIMVEC
9.36224387263793 0.00000000000000 0.00000000000000

0.00000000000000 9.36224387263793 0.00000000000000

0.00000000000000 0.00000000000000 13.70259025771881

PRIMCOORD
 96 1
Ni 8.161264629428105 1.3220986369598982 0.33658764840051747 0.9617514764962919 0.8619016567864898 1.1676495314171245
Ni 5.45386284682575 0.990693926791741 3.4642062594149183 -0.6067314951034067 -0.7002096069589102 -0.5855466334956754
Ni 2.1699621705563907 5.889600403203126 0.9825178791791682 -1.00618759532248 0.568548299165466 -0.16338306437675734
Ni 6.251572839759753 4.584896815440709 12.372781114099524 1.0718227168237864 1.2286024169514131 0.6403746370791488
Ni 1.483896936330656 2.0889881229196767 7.534835016503832 0.2223214905841784 0.40937387355341753 -2.8944839185069444
Ni 5.551202096829092 0.21701681399225609 8.141640429954025 -3.274149980583284 1.1187283802363894 1.6906880190762497
Ni 5.052110235866488 7.202889168637282 7.903284253402125 2.1585917705447595 1.0807732411488546 -1.071112321020323
Ni 6.827285304937742 8.839353231836697 1.6239486155313876 -2.8805783641694456 0.8094277552574898 -1.1463425424092322
Ni 6.933659120320832 3.323615314964577 9.108660050553263 -1.2565315392615133 -1.1932294367687577 1.670610531600084
Ni 1.7264165027523732 8.281691172930365 1.6064505816508212 -1.6152749922525729 -0.9578750242600215 1.8131658605982126
Ni 5.598415892901697 6.355418849285296 10.159661807759694 0.9770006893458787 -0.6517625672011161 0.3476337162311432
Ni 4.4544994821670185 5.85775004939805 5.526803152957427 3.0921960951828744 0.33632394764527884 -0.18146948956482295
Ni 4.199481320116326 2.488512519826732 5.220399378944788 -0.9397374341190461 -1.7036324950520596 0.1186641242028279
Ni 6.586759896470311 1.4958057105928713 5.548959839411011 0.34654459693202255 -0.5264842801158803 -0.4206404476061723
Ni 7.088314027583045 2.5214488939261606 11.549255669789238 1.164745470396452 -0.08730566449620449 -1.4588326208597069
Ni 3.4186795396961287 4.0005242746396465 6.675806070812121 -0.3010486693827525 -0.08811144822695148 2.499593840391998
Ni 8.993240435097727 2.967550454319474 8.552033455824136 2.8784608036058104 -0.47993137205700576 2.653162489781495
Ni 1.8599314632503698 3.633009389684253 12.842492381202312 0.4703136464615835 1.9019095430925246 0.09983336464957
Ni 0.716845483551116 1.7400853788709536 12.773198669076244 -0.5388248039591043 -0.6925914282920201 -1.0508844240092223
Ni 2.329560342606692 5.3379957161109886 5.270111957918795 -1.9826013018166373 -1.0095865937017 -1.8806354642050966
Ni 3.9719975174250473 2.7383252742596644 13.254296297230692 0.08326183344413403 0.7406255488821116 1.5701475037863153
Ni 3.9195876759786 5.349913852617121 12.935409843403734 0.032962056748317425 0.08489371262060218 -0.09386891953601899
Ni 3.89210012783877 0.7616447569175674 12.200032734243633 0.35720567619029453 -0.5472454239226318 -1.262472844446613
Ni 5.465809070063633 8.420514525729208 12.874090890646027 -0.27041397521603106 0.17288534744023773 0.2778539764338441
P 3.544236592864815 1.4198123767199144 7.3627307590294215 0.45485874535909404 -0.6305159991175142 -0.18771701313643155
P 4.190240785370409 0.8077088694371833 1.413874841627857 1.5914964017757367 -1.9513937658655813 -0.644412040373316
P 7.65149044815639 3.3817642119320452 4.1187797137775926 0.35813435865215093 -0.05514424927231148 0.781969401936221
P 7.394609199566247 1.0658072097365154 8.285915417385642 0.3262002289477156 1.1129012320316511 1.3299203365663097
P 6.739973018169331 6.368685148915453 6.104846816870709 -1.0875529830748496 -0.4720709954723225 -0.12246190068236328
P 3.980620144072453 5.615689232928259 8.462815952418648 -2.9597662846545223 -1.2885155483672777 1.0857858638720979
P 8.17095455188203 0.48911919874239124 12.116570202173826 -1.3549860212856857 -0.8043259152545502 -0.31697871034944763
P 2.7340935400092548 3.896631453894518 1.2080618249308783 1.182048480451274 -0.05227952613000674 -0.559588518869017
Ni 8.353012747088822 5.620960176253437 4.807361519168172 -1.4521061007691507 -0.08345389485028208 0.7670526327253886
Ni 6.092068290148619 1.5089783877838594 13.177480022117445 -1.467280494516744 -2.034546584535677 -1.2946892812781574
Ni 5.676656165314693 2.4914054531970344 1.3755617308469894 0.3603606768795084 0.35156030497905905 1.2577854662732726
Ni 3.1050724552138766 8.24528140633779 7.809613130565399 -1.6447436911356512 0.9141256470882128 -1.525115403247341
Ni 7.731256766327833 1.4859940789680273 2.5626174891016635 0.17403565899459705 0.9270850354623582 2.3737537672660216
Ni 1.4798149979829156 4.7370613658210425 8.977197293921837 0.6073855837476378 -2.015446373371116 0.882266593596087
Ni 3.2904261602793943 4.153531426972496 3.4121372036470436 -0.797851106163484 -0.01687312160625481 -0.8295080709471327
Ni 0.5618825584640399 0.11733419433652925 3.982315646445792 -1.8556188875561008 1.411854966558588 -1.202925323900283
Ni 2.175654414857827 7.364107008885196 12.519755236452363 0.006012524742667064 0.4611098684751284 0.3466957777979061
Ni 8.800247138996072 1.079120320586256 6.810886398493013 0.6194630837374622 -2.288648709965562 -0.3968754839760907
Ni 5.171478845806146 1.7748661150219989 10.19652189828467 -0.2232774267395445 0.8500082477830135 0.09896150356757796
Ni 5.411779560419572 7.944041846069679 3.718376202166746 0.009254171608416321 0.1198242059492001 0.8946356566844011
Ni 5.904682978153149 4.950539251612736 7.984335071438957 1.0585943910589704 0.7732734168241199 -1.128962656369888
Ni 4.5408006465924124 -0.004825300514737221 5.783438174532557 -0.6774239765229624 -0.3071642953621871 0.09517529705226833
Ni 0.4966361443832188 3.7741826657062214 1.2579110926660713 -0.5021673006370706 0.09727511700409053 -0.2659932204405161
Ni 9.402595188117461 6.211090497063354 10.195152201999635 -0.8815862796996107 -1.41705759380545 0.9583779320383686
Ni 3.824467277783547 7.7419578111247755 0.731249295817168 0.7977631744353681 0.33945220886161537 0.6122015170790425
Ni 5.434351930503064 3.3496610775412146 3.590353133950366 1.5345454383119894 0.9015722359032343 -1.710671661287028
Ni 3.0779313100989696 9.334316343231976 3.3940081545264826 0.6980534798478558 -0.027975402167003435 0.6878063481985509
Ni 0.9390237026147237 7.227436972187226 4.274674182134394 1.165910951459463 -1.330576996313702 -1.43308559380259
Ni 7.961408808535409 6.427077464224759 7.824480373905334 -0.42075460458653346 -1.0669265650737496 0.2880095768106072
Ni 1.8132794018127765 0.1090186492895956 5.766543069160235 1.627971613883635 -0.07687624163276437 1.4206301416480565
Ni 2.5239673375397893 1.8826442669926136 2.062911464938114 -1.3528232093064123 1.1007571404699492 -1.1106042084673582
Ni 7.7362093933598395 3.1917949206155276 6.842072969204384 0.3129729316241642 0.884534049474025 -1.4972389885520472
P 4.092012122194967 7.359145019609273 11.284672103128713 -0.11048184550235167 0.8504561339537096 0.8796137293542722
P 2.9579541543047174 7.29130620018788 5.6548393283152905 -1.6139331335126978 3.262041113134891 0.025918776748290847
P 1.8531251119228302 0.4386744922940878 11.304691389296083 0.32501675016257575 -0.617925049826381 0.0075937531868578885
P 0.46919166256540606 0.8955267173771041 1.8893401438419346 -0.34153428820162474 -0.856105618930003 -1.22172625865687
P 6.110034436225027 7.004035107843687 0.6231884040802647 0.06491598394709465 -0.32442462510453157 0.07806254863138169
P 0.7327088696438027 4.043599958901008 6.923658371368868 -0.17530218441184647 -0.4132071312565787 -0.5867036299182541
P 7.572885048230637 4.8804909426269685 10.411091421717064 -0.29247429745018017 0.4683956035032643 0.5712626127728355
P 5.040042303457686 5.731069526959344 3.358504653145058 -0.023522251491656265 0.17114882436510526 0.029338601063117215
Ni 4.098106942984827 3.5895779401540513 9.175830405758994 -0.9896623439739473 0.5908143096525179 1.0478111844005373
Ni 5.71699807435234 9.034612190966225 10.716700341221165 2.2010717940858413 -1.228648182587684 -0.0452213337316447
Ni 1.5058420360717195 6.029069750832231 7.2120978717538815 -0.020593507880635502 2.279745751048977 -0.2652244605952916
Ni 1.8744429413214656 7.495824418551161 9.903821640693103 -0.8212448024970759 3.6794687102307213 -1.7104253496041766
Ni 3.085720697037777 6.912631520483618 3.07519004508012 1.003813695773665 -0.775514904560129 0.5710132157661908
Ni 5.408390428121678 2.694126120728282 7.480545236478884 -0.42126831099815837 -2.0027579792701697 -0.5944138540783181
Ni 2.2134966047696776 0.20386005261592663 13.655096767983611 0.3056203479138349 1.1406709459457518 -0.440114497170384
Ni 7.727727200371185 7.739598525657733 9.802353641122437 -0.7288653230223899 1.0497474821913018 -0.5252105556097795
Ni 3.687291679914068 9.137521976100086 9.861809507340695 -0.6847014840209821 -0.27397315332219907 0.4241446041046889
Ni 7.4767067164729815 7.3462251230040385 12.150552338918764 0.19048583413082032 -0.2009427677980862 -0.2523671450166492
Ni 8.700792021867525 8.094212238495727 2.265024522839159 3.759546746630235 0.9174588252265039 1.1531536517937948
Ni 0.6904533179495556 4.7555424353128775 3.743725413795971 0.5457791237897504 -1.473729078355565 -1.2511957288708968
Ni 8.814580734432747 3.922152930811813 12.545448042433335 0.18285171462433022 0.8436673931666503 -0.7130499532566881
Ni 2.6376624276658447 5.7605231463217095 10.76876939698904 1.6851354646891366 -3.2488917202371277 0.8280014044946191
Ni 9.08525256831239 8.407912945417147 13.622334531621036 0.8265325332585766 -0.05666865633663789 -0.4132387558254625
Ni 6.089671555705909 4.0790360521262325 5.640890521103597 0.043968692271466214 1.351325027494331 -0.21495065204140398
Ni 5.407603999632664 5.02491291728808 1.3461305808700241 0.13338754645593157 -0.2426018380997693 -0.4941840253212779
Ni 6.84779798135953 8.506122884104755 6.822724955925852 1.7305334332079614 -0.7331572655295244 -2.234299188680404
Ni 9.214198753778971 7.933677842053742 6.057462627958819 -1.0003403925130836 0.6420311988459652 1.061352927640714
Ni 7.21200799421228 6.675822922851171 2.7949312734296377 -1.7199497441548441 -2.189862041412951 -0.09416999571620556
Ni 2.3345597808582825 1.5946990930864091 9.42338124206162 0.41162436015049103 0.4786856725753627 2.2713603551987593
Ni 7.944669116412106 5.7639871765709385 0.3635284414956044 0.4638851172274205 0.16343474355029916 0.4193227572360133
Ni 9.534134715149003 2.49041305534185 5.219028746435363 -0.8675012623614544 1.510385296126018 -0.026295443361419226
Ni -0.17898176185571857 0.34831666757952945 10.314542345100303 0.6488027132418439 0.1364150204283457 -1.3081004124777407
P 0.13713721266942056 6.047298039738311 2.061239368174567 0.23214593287376795 0.24679402180424592 0.7648777365612569
P 1.3617383777037813 3.4353724205998475 10.765494484066927 -0.024797004439021813 -0.05547309336663995 -0.7927227837979832
P 9.600887514276044 6.382073157716528 12.496816802631724 -0.8242424516728192 -0.05780122727918433 -0.2833623078465829
P 0.30120023884366115 7.601917366616745 8.18962754737416 0.7984797408864184 1.0039607628744902 1.5818825328350563
P 7.5194172732215865 9.038656680338297 4.4079728747979114 -0.32481748966757606 0.06131129731497183 -0.17832837283268
P 7.531747348460059 3.596693245530847 0.6023012379018038 -0.837716574899854 -0.9213784719958841 0.007606865812980449
P 1.729609027928014 2.3132887626792313 3.933301490867981 1.700211899406285 0.1581164166611793 0.8986113535026976
P 4.676721703777035 3.5912818685469152 11.437935780944883 -0.7830814040534771 -0.3345809968122431 -0.9695280351179173
