# total energy = -340891.5737399221 ev
CRYSTAL
PRIMVEC
9.05904827906281 0.00000000000000 0.00000000000000

0.00000000000000 9.05904827906281 0.00000000000000

0.00000000000000 0.00000000000000 13.25883285904420

PRIMCOORD
 96 1
Ni 6.645926067059435 2.1664170062564305 11.681973220270615 -1.0802222537413912 -0.82772706778731 -2.071938394920574
Ni 4.501595020146551 0.21673319701176688 5.932492508259644 0.6133137763066147 0.4432602418882173 0.3756165745973144
Ni 2.84223105588233 1.6217507964240219 4.743745188499659 0.016198207026417263 0.05606958930005827 0.49477872148248336
Ni 3.156353549827157 4.038578011119469 4.584068594331806 -0.22153319035492816 1.5913326225043627 -0.5808672257421351
Ni 4.784056140873291 4.577808792073236 2.6797162619350123 1.0101689485677312 -0.02032971269628757 -0.6532558639171911
Ni 7.164493159226233 6.402609093307045 2.6840781936101226 0.6610329367594486 -0.8056425771834448 -0.2199619892130663
Ni 5.101285888327075 4.481320870429218 11.570081293184526 0.16859031960930965 0.17379397529743618 -0.551790620091153
Ni 5.509794604749513 7.749399660856852 12.392526907669538 0.44438381396969917 0.9092544350388405 0.0009294537928048507
Ni 1.8535718380980843 6.476050796505624 0.2958114399574968 1.2649490739012474 -0.22232457590797194 -0.0016730168270487316
Ni 2.5045278596523293 1.493655855850702 0.46411768337500664 0.477666487282229 1.0174860510544346 0.0862823654380127
Ni 0.5491866748498127 8.592652097089305 4.142841313774385 0.5058938575590385 0.5354636007963551 1.2430090792950463
Ni 8.553344887248596 2.442355612328801 1.398342892749283 0.4802812991972567 -0.28490368419177386 0.3047544003691139
Ni 6.891707101903476 0.44458546969960816 4.7656889207875475 -0.1702311976468423 0.3714760700663796 -0.7691794492604044
Ni 0.6360430165208787 7.2102322932400025 2.238939216069706 -0.5047957393988532 -0.17085314750155736 0.011104851663909907
Ni 7.691503284251189 3.683372733900243 3.698485037992493 -0.8739943262849657 0.7270526952936833 -0.22487999533997396
Ni 7.899834214121388 3.8341877671862843 12.50379557224421 -0.2210806761985418 1.36127699650072 1.6774545511051109
Ni 8.014612353942036 8.833595600231353 6.784902736247795 -0.15331565283842627 0.6838813021125318 0.840793671163281
Ni 6.680749048075265 0.7430946941905374 0.20311563586114356 0.7666371424545249 -1.0154813619195802 0.7740810003270797
Ni 2.0024391760359457 6.502068382738055 9.374842925299099 -1.3746536749179423 -0.36442636230844977 -2.015564644116535
Ni 0.05029221160444419 4.864509547325317 1.4833321646005355 -0.3872217629364106 -0.3426964268305259 0.19046320842300102
Ni 6.435991685670036 1.5408263194691798 6.993371363649588 0.16232814074968174 1.2306212471536546 0.27001159757128984
Ni 3.259952824254065 4.332752481079682 0.6533512338800996 1.7605250944740456 0.679496542781275 -1.7441001161488026
Ni 5.972847849969119 5.539472046426895 4.58227943232592 -0.1698830702788042 0.194418079305691 1.4878837725893923
Ni 5.315849443311451 2.7876412318445065 9.56193854044526 -0.34733366849222114 0.49189240107362386 -0.2181719871921791
P 0.1320256615573905 5.5966527582302055 12.60363443579191 -0.2012258462561438 -0.2513867833812509 -0.12722255529580023
P 4.106412163524916 6.1534762106545084 12.669027174726034 -1.5453062763729193 -0.665634440087202 -0.2915864955285882
P 2.376713749571073 8.408273290477652 1.5939902493311728 1.5616291819026589 0.26611714761289007 0.3973524236125092
P 6.323759138374219 7.662831396916354 5.84170906922376 -0.7874227117413084 -0.3446345243935033 0.5550883170058183
P 4.7240037108124335 1.124871065483003 12.285806791161475 -0.5797428823297048 -0.6286738037024528 0.2622772050415096
P 3.9947775134057495 6.177210916757911 8.120557921834891 0.0812561158680149 2.3120220945841794 1.0997988903217382
P 4.92722533753671 1.2691545250665432 3.982847652921944 -0.7893135010061181 -1.159480622453087 -0.24093344925841084
P -0.015643164312730422 5.640715968339726 3.658059035707596 0.9353943266590018 -0.6379935384414819 0.06806558531966987
Ni 1.606504418419432 1.124744238809168 2.7730978359748875 -0.2761884158059631 0.06792803130054108 -1.3283267668269445
Ni 1.8591975069874784 6.316176715088513 5.007794699804814 -0.8425962715896586 0.49637486232500966 -1.3830102744127537
Ni 6.040147518534833 5.709682501761557 9.358800256963788 0.16663628120673235 -0.7186418455221688 -0.009985907568118287
Ni 8.723736523545877 2.6587309769393905 10.455331902178367 0.1860401396546409 -1.0893884936216915 -0.7404666547067441
Ni 2.5678596651366346 5.0984141700695265 6.930869366974088 -1.526600986653932 0.14508220918504044 0.06296734486115607
Ni 0.8896574102838548 0.1564506671283795 8.953491196341242 -1.1473205900517853 0.04275590291028765 0.7911302424998826
Ni 1.524501914736993 1.1683726146083977 11.541124045833563 0.1634267731304992 -0.4682642201317226 -1.3089902712818617
Ni 4.411774557926999 6.803716567406399 1.5961381496430496 -1.247195092351936 0.3606396415725079 0.0610924964359464
Ni 5.712644810500415 7.834754012347787 8.17615239431045 -0.56057453693137 0.7031092971042084 -1.09802354358887
Ni 5.075395128768479 3.0249701747822595 5.243417823979486 0.8850225590746692 -0.3094235237100091 0.41491485797630473
Ni 0.8691268895044125 7.641433925230769 6.986476522117031 0.18366572588519336 -1.1330424828662162 0.9114627555440689
Ni 5.070032172274885 4.659023158568273 7.2569036033064585 1.476288097331993 -1.3377956255493282 -0.9591171241972385
Ni 8.115946866336177 7.511862359812085 8.96339545366294 1.1600403516112991 0.1939293125947305 0.5862354320325839
Ni 4.558503960505928 -0.014778931121026417 10.244317682251742 0.6891394651876775 0.782989358560303 0.9608965846951645
Ni 8.256235285693915 7.037385654899201 5.079339438324746 -0.5278688191682328 -0.6885835926842077 0.32868057216740815
Ni 7.200258281247695 6.075840168171245 7.30106918065986 0.24681819017396203 -0.6341196573083724 -2.046007533987425
Ni 2.294865249706862 5.576632261860542 2.5359636625719526 -0.3104987590520588 -1.1185548307730027 0.6223311493138767
Ni 2.173872602868301 5.207385460038158 11.399334542200505 0.8719389864178337 0.07667620980681635 0.7452527632414778
Ni 0.9818830497822055 3.186447707718569 3.7736225950012074 -0.3859647506008579 0.9460548916966415 -0.033625401363929185
Ni 3.85558523887187 2.4409333417722228 2.4460426449181463 -0.30567228419769293 -0.11832448147522202 0.1150003021979955
Ni 1.1321273630359894 3.3839621341202726 8.187753411347098 -0.6164852320560608 0.34143915738465713 -0.2321791001045485
Ni 3.421711187682438 2.9213256051146956 7.2537746080819865 0.8785184394075645 -0.8072592868512612 -0.09220335890813798
Ni 3.9482683603008395 6.958291105666834 6.0520601668271885 0.9224151407905146 -0.07216263820717894 -0.4300180321663304
Ni 0.6621031802795256 7.26096296277399 11.392095456838968 0.18030143739865076 0.9331307274358058 -0.4504007095877404
P 0.24786189819974713 5.826091270245797 8.040965124955317 0.1458100884900005 -1.1558646229670546 -0.3872451599751783
P 8.514554043151357 1.7841432932215695 8.103506981442592 -0.10729342047204102 -1.1622407016967276 -0.1701772044804553
P 1.6996495513030865 3.308953215595019 10.307800773839839 0.7715338084251938 0.17228319507986456 0.2857480344699401
P 3.8541720273634232 6.201978354348254 3.8636631920903444 0.3758847406570365 -0.3711721656727156 0.5404525693705143
P 7.013931779287862 4.056505867370856 10.494976108609553 -0.7102032278365124 0.4249280192379327 -0.47077927324409247
P 6.500528344555773 7.92399469548695 10.271922413716737 -0.5464257562348137 -0.38582231148572266 1.1071175354703384
P 2.2346316386833824 8.538198158773447 5.725163509112741 1.07759638608277 0.5068996731157334 -0.7555191781644924
P 6.744216739281537 3.8523873948816023 1.5702700377047811 0.5169560289104709 0.2065806828101539 0.47070059748735704
Ni 5.310015416315042 2.8884865556395694 0.25244305883962886 -0.9000848527244305 0.22578682342495954 0.6814318121307748
Ni 1.8705666123919704 1.124218814017566 7.121345818882764 -0.7036206895229883 0.5829930138358862 -1.2921197207787682
Ni 6.898764100397578 0.9047552198990949 9.4612109842759 -0.6069050445667935 0.37782206688906544 -1.5866730122451642
Ni 3.001008992475581 1.615799001801909 9.47547807917752 -0.7333950925719434 0.375995555203288 -0.6885887348905303
Ni 6.328478902450505 1.788790584912808 2.486243076904579 0.6865871310794692 0.25042416235766546 -0.0761481052174882
Ni 4.1081967960067365 6.648553191017445 10.373419083072424 0.36060981677583703 0.6142895099563227 1.035981538755461
Ni 7.979544778626667 7.470743340345161 0.13633505075334015 -0.3624067607752597 -0.8616481460147869 -0.08797646531098396
Ni 7.714929982718134 3.8987425441682837 8.399404482357335 -0.5531422490230409 -0.243441046171613 -1.028951628491873
Ni 3.04742755509918 8.459819274343436 12.549856302466631 0.8887930818606952 -0.45769158682219885 -1.0582151533426807
Ni 0.04239272163415178 5.099655259663482 10.11882268849204 -0.10083249533804568 -0.20694320835589522 0.07595424403912726
Ni 8.3767387439334 2.1389318542267666 5.748631879201088 1.036353320272583 1.1958033681435212 0.41824829322491197
Ni 3.394072031834546 2.8852071802161228 11.548562430253984 0.6779621084146195 -0.44753392956290666 0.905332474276615
Ni 1.172730016759442 3.400793845547799 12.706920267153485 -0.12003786462190297 -0.2214231471396251 0.5316506548081682
Ni 3.2897117973646277 8.45307934253392 8.163065693380307 -0.0913240416269782 -0.48012060524967637 -0.509349934428439
Ni 5.4130167935652995 7.847835277849051 3.703642354093511 1.1589118944338108 -0.09194316326821585 0.01771181545746627
Ni 3.2512380199519764 8.49534886111349 3.708892978390278 -1.5540405709221234 -0.13135586073788344 -0.33091486081456556
Ni 3.43477433508744 4.506423492800411 9.299241545026073 0.19068303774329096 -1.6505502705150994 0.6200369539630611
Ni 7.235661041343914 6.1613032282397535 11.447662752170134 0.2553483391321602 -0.058125443387822474 -0.04209615783910169
Ni 0.8143794380291084 -0.3360073424198643 0.2828361653193663 -0.9022849456995429 1.6933251995887806 -1.0526201757534066
Ni 4.439431831871154 0.29502239686528064 1.3194485484806138 0.44636176363167646 -0.5642309027370347 0.37786706119438795
Ni 6.1003992476545745 5.533384366082817 0.33415839069631303 0.3311004944628104 -0.03549536469313242 0.5857883171928364
Ni 8.341390338125967 9.208069472825365 11.004764983137344 0.08375754213362994 -0.863531479080429 1.0046986694817794
Ni 0.05286135765441543 4.704698879245124 5.907499500370838 -0.23392976424706807 0.09840460262284342 0.29328470916661753
Ni 8.217589386366773 9.068378950644277 2.117289788241642 -0.9265710719404171 -0.17481058948740863 -0.04177939792963127
P 8.527689662941407 1.483564076232691 3.65845672792055 0.22076288784780687 0.10461818763272304 -0.638049845600714
P 1.902689997064742 3.3105657261623493 1.7491980150559696 -1.5318645490457168 -1.1018647717118315 0.4781472835733894
P 4.68246797513148 1.2256710940374107 8.054011966073682 -0.6802110523497963 -0.6463802198432804 0.8295777478428036
P 8.732723099291897 1.5665177799688923 12.589553051376976 -0.6740103228557232 0.3575170367831262 0.7482624966020791
P 6.287124347732174 7.869314280967816 1.4172898919154144 -0.04400623037762098 1.178561550343938 -0.18534645602172595
P 1.6378668430491938 3.139911377469266 5.873702909508258 0.45588590107202775 -0.35936694550767145 1.1129598531837284
P 6.92165631502479 3.984930328087277 5.932718078558108 0.052012131401233 0.15681132469651057 0.6231204779843914
P 2.36677597377129 8.37056047310801 10.229918325247409 0.5834205882916081 1.2512376378524257 1.742247636321096
