# total energy = -340894.6923592105 ev
CRYSTAL
PRIMVEC
9.02741491863237 0.00000000000000 0.00000000000000

0.00000000000000 9.02741491863237 0.00000000000000

0.00000000000000 0.00000000000000 13.21253423850604

PRIMCOORD
 96 1
Ni 6.239559655633335 2.2885128882975896 11.622154932277173 1.305715714295648 -0.6535492267878938 0.4113855046668076
Ni 4.546738799351007 0.26429562824966785 5.874371832129921 0.814308994609191 -0.20132971882385975 0.02607998491650347
Ni 2.870609633359134 1.6223799372253151 4.800920111861668 -0.8135291790203731 -0.12353070826650983 0.12107299075463664
Ni 3.469632781500507 4.357650565265632 5.155187471468726 0.841843452584034 -0.5395580825807029 -0.4660240179472942
Ni 5.010016708499646 4.3309926088417745 2.8525331376113754 0.03848530055939178 0.005254563530719983 -0.7239483453367467
Ni 7.15892965160979 6.046824345897693 2.464850801470993 0.5533042285222018 -0.5868003033971184 0.6303355076755918
Ni 5.199610477823674 4.547424882889177 11.402826663505499 -0.802247949679599 0.489633429836118 0.18018728041828969
Ni 5.60676494806709 7.859872314829167 12.401655063358401 -0.4307469399125549 -0.222478584987333 0.24555834962493192
Ni 1.973528324958197 6.728845547327566 -0.020277379518885263 -1.0157212458445282 -0.645887853587894 0.9006211848438747
Ni 2.6752022087906226 1.4869777400016664 0.40422958779122264 0.41709463923644297 -0.542769133318833 -0.37724871088409867
Ni 0.5242301123244744 0.14341131979027472 4.819694426787064 1.1975910561715633 0.3469264057514735 -0.08589335752971014
Ni 8.712484577058781 2.537299417618647 1.3932217162863754 -1.3699410999336212 -0.27136168384128107 0.2302204337162809
Ni 7.02913347908618 0.6900384486699775 4.829075716430028 -1.2836042271085892 -0.9171099265275172 -1.4086775972718706
Ni 0.5477943736360879 7.284176006985542 2.407271240530157 0.35896559630419467 0.39997160640291113 -0.413497665913804
Ni 7.769200958811145 3.9360161214008578 3.7418427444595532 -0.3355834699348285 -0.7939168041060845 0.0328026483523177
Ni 7.719839053722878 4.0614791347360315 12.575056358440142 0.555391964289166 -0.46049357504736815 -0.33308178655889736
Ni 7.91480413495757 8.659990158973873 6.78005175329541 1.0512770314619506 0.26449375307685413 0.5191756622696092
Ni 6.951037312129598 0.7086466591598174 0.5054115630656959 -1.3382586812286759 1.1353752447644512 -0.42687408722071
Ni 1.976092110811355 6.483236668078029 9.323701957349611 0.13480242452558722 0.686089108397128 -0.4072766247047566
Ni 0.27684644329067315 4.944820717543637 1.2071802347553688 -0.3973794201957027 0.7645692041819027 0.2361697093211804
Ni 6.459007086282691 1.7109479055539518 6.986233397637669 -0.7314945331151209 0.489791295570221 -0.12374231005668367
Ni 3.2939683134843065 4.3269392995175915 0.5236117343986246 -0.38425753810176405 0.7967797274761762 -0.0002018315981609427
Ni 6.006372499390648 5.534166476830835 4.744251417091901 0.14362465080290748 -0.24119981554592004 0.629653908227535
Ni 5.272922114843024 2.806514987030185 9.535010270656686 -0.43336740825453746 0.4931149606268153 -0.8721359329199884
P 0.16034584754358114 5.843337384925743 12.304846870639755 0.35098566342251164 -0.9388426902189185 0.9440985393012192
P 4.007675741479618 6.138226922528764 12.589061490033766 0.07181039707408278 -0.35349403166666216 -0.7266734575773937
P 2.215733868761817 8.336131646713163 1.3905667535419606 0.6360775523656916 0.4311187214296769 0.014936309594858149
P 6.375684046055057 7.597490498554392 5.6411178730164115 -0.4891888860995316 0.29518141196869807 0.012446967514101143
P 4.715172307971505 1.1798289728613618 12.767589454080325 -0.025149502682434106 -0.8072708568154872 -0.12281671291862076
P 3.984845409005546 6.3261596474972235 8.202063701422952 0.4050433644988637 -1.1067532101523843 0.23230971214514187
P 4.577522284418855 0.8860759868038075 3.692005094602056 2.092530360139312 -0.35648859551861184 0.19364109193035037
P 0.15751485020713626 5.565771456661491 3.6946735984689347 0.46947212439689473 -0.040144433429369575 -0.27767939852919277
Ni 1.4631182822203406 1.1251318655223332 2.4276975723961445 -0.13083341257551015 -0.797365167666001 1.0657418007370292
Ni 1.8617237904815724 6.487723293321055 4.7415296514766645 -0.060823559045275886 0.3139288677795303 0.9603368555369527
Ni 5.961641658185022 5.575187050481363 9.00620506442242 0.075407884617354 1.2453714088796357 0.8516313852087332
Ni 8.665677430408696 2.4427282183310317 10.230676409822644 0.2505146651889428 0.41434767261892513 0.08798957793710653
Ni 2.3570761050396136 5.111593181808567 7.2746493759614665 0.17635042317070274 0.34071333496222617 -1.2270193887350094
Ni 0.4236972081867689 9.11579336852246 9.238865019630516 0.07300107494807427 0.9686975687968221 -0.28693074192413165
Ni 1.400377748137778 1.1380049592779786 11.49881606968583 0.4355579881479531 -0.022376825033303394 -1.0912859677547206
Ni 3.915550971650474 6.638905411922591 1.5696887214939337 0.5134858109736834 0.1301379291703823 0.2620347500134003
Ni 5.819523064219297 7.958135726841929 7.741567138828391 -1.0675315456476002 0.31505783917765096 1.0860010652066974
Ni 5.517312293070814 2.6460797680783426 4.645064500527104 -0.6911516105217 0.7467375753171204 0.8415562603609185
Ni 0.8933854847098004 7.4541170939070165 7.112056604830382 0.523780250921156 -0.3297866607473933 -0.5933800134971653
Ni 4.944567949924311 4.437127926713528 7.203923190591215 0.979520884664571 0.3278871297318353 -0.7899768456217298
Ni 8.26697262058273 7.176172014213775 8.877475029607467 -0.6829942715218883 -0.29801733875559644 0.601935359266344
Ni 4.8175161115533776 0.45770077217652283 10.659489454076262 0.1831093391610911 -0.20938832746227812 -1.0472470843669512
Ni 8.195385219823777 7.418061598493238 4.447946380820658 -0.5201632229938591 -1.3456248917857598 0.3789713500021602
Ni 7.328672135401794 6.049731173519936 6.886755798310648 -0.039239662226913066 -0.5304486640802671 0.13607023549441727
Ni 2.2848477578173716 5.1787842314742525 2.717897367919181 -0.16848593282096144 -0.009193493573809974 -0.5363382900918247
Ni 2.290191987483109 5.098079141589633 11.317843481663795 0.14505984058753726 0.20773767923273256 0.9340540105810236
Ni 1.2719898523504098 3.351238234091469 3.8808513939660774 -1.163192009866403 -0.17835845473966705 -0.5107380730252172
Ni 3.6469582938722733 2.3285223914708153 2.481881922564541 0.3178300026061494 1.2719023652906287 -0.009112246713913339
Ni 1.0674286289963273 3.2140124990426866 8.087656563208773 -0.6798156166835906 0.2823660053715847 0.24384522358856717
Ni 3.5640956518084113 2.6005815965997647 7.173283241421484 0.11162110131311744 -0.29235885491823843 -0.10329715482845436
Ni 4.161999400492771 6.788318157188851 6.001754073888973 -0.1480191803261773 0.13105041368232268 -0.1995050069102951
Ni 0.5812996243191715 7.601706301348141 11.120514120446913 0.8297813792131774 -0.18514848107830695 0.1040610295776724
P 0.3655209351160254 5.508140439455291 8.108148795204086 -0.4127080801329731 -0.6549437931425752 -0.7639143442067232
P 8.497677237707043 1.522572837251673 7.83562738642837 0.038328977487185605 0.4559378373558858 0.5021942972202641
P 1.7856317096496412 3.1947389680691223 10.261395800244163 -0.6632813664739932 0.318267090143568 0.8576156278166263
P 3.9642177657855955 5.988732930527723 3.867916913788596 -0.14552058227403972 0.9008968071027644 -0.6472446247261047
P 6.964289557314231 4.076861849854979 10.28776849035478 0.5134076494375803 0.0049442313791527755 0.5437201843781926
P 6.510851530489331 7.860296603333035 9.926762165468208 -0.6664060281459039 0.3974398411199929 1.2939824850191197
P 2.414246724082041 8.488252616472193 5.822142820045306 -0.10913407322520559 -0.299202103092317 -0.5075259938458226
P 6.891158468594398 3.981721923423882 1.655107927478973 0.24182510783474484 0.09711159484303276 -0.8484622434521322
Ni 5.160341222678472 3.0154996437224626 0.5934207344073237 0.5748878682302486 -0.0023286481331766347 -0.4065340901117773
Ni 1.4809654816277114 1.0901416050757127 6.993976211462505 -0.12895265061302952 -0.11539368098167224 -0.14318987725833404
Ni 6.960931358943193 1.0426935119623384 9.398405621758247 -0.562752004198663 -1.4661417529266105 -0.3327115477036722
Ni 2.8489799470768578 1.5498988223837473 9.327798598265677 -0.18103625868214626 -0.2542803028789621 -0.22371528560791148
Ni 6.38525310592952 1.9583351855537434 2.45458482516039 0.011781308905644227 -0.01661472573854558 0.9056181238378339
Ni 4.189830920863496 6.820293261033517 10.495165224752798 0.42884432357320335 0.35573860472646474 -0.7971929037541948
Ni 7.973563579035757 7.3303692894172645 0.4057976497725379 -0.049318643729469896 -1.8659058713044057 0.08998629665216115
Ni 7.483131205639586 3.699714506991482 8.13771899569917 0.7497136272263089 0.1537897642613674 -0.005068672772159013
Ni 3.2326631383829136 8.463914705697146 12.142450897155147 -0.464130143358691 0.23762623926204882 0.3311781417782812
Ni 0.06921499610328426 4.892687396057767 10.287503987095986 -0.012451081279159202 -0.5037405586614615 -0.7781595412718275
Ni 8.539826238229558 2.3006908711000906 5.549713490902345 0.7356358089770041 0.6559218407851284 0.7527236176972263
Ni 3.461751848226539 2.8305820753559567 11.681558031043142 0.5600531172102613 -0.24205110780262187 -0.37664604430309323
Ni 1.168282909107175 3.223924600686234 12.818444493605606 -0.17941183570484584 0.6342140167943917 -1.4345578074727423
Ni 3.2377184907694216 8.382297846899958 7.873296080898343 0.08012071671199104 0.2105710349164696 1.0811403946802862
Ni 5.559235608218932 7.625502567224636 3.5775844152654135 -1.2334507461826498 1.057939531083791 0.07129643355214173
Ni 2.968412647208125 8.394078623443518 3.615860654763265 -0.0581436982202676 -0.6528570858168756 -0.07456327722887159
Ni 3.4161363203532735 4.281657785998436 9.299774793955965 0.5603675631268865 0.23213899089523246 -0.09855166972366898
Ni 7.325214635466021 6.2750373964886546 11.223717333934491 -0.92074649483884 -0.10968403219140464 -0.02878349989059559
Ni 0.40928494017773137 -0.03405772847960931 0.24825030087148836 1.2849409436421417 0.9110786327317728 0.7154840166194775
Ni 4.345030239129312 0.019090274449553322 1.6058913637718186 0.7543652670657073 0.644765824168309 -0.5662376487544184
Ni 6.062062622377026 5.555471176173978 0.2691713350781559 -0.8569623105033434 0.4179731851866544 0.4170756130730494
Ni 7.723892363047061 8.788468328911001 11.819484293494053 -0.1753633766670851 0.7888815556750219 -3.1758816464279884
Ni 0.14400622643718708 4.800643872963405 5.899647691320967 0.24713083631837438 -0.49145788463936646 -0.09807832963167624
Ni 7.47681201515645 8.763345033033048 2.5132747581432624 1.2423894434331766 -0.1110685712437571 0.8505983159585288
P 8.619827189746058 1.5398242272706337 3.371640191937022 -1.4887096109247975 0.07523664914681236 1.005715540782068
P 1.762620828876051 3.197031931473003 1.6845057043480187 0.8126478048566843 0.6099957676769753 -0.15021207421243807
P 4.753629095768874 1.0926963635138947 8.326340512430292 0.7407736444242017 -0.7311538619462504 -0.9151959973342562
P 8.51694174126563 1.77727232338195 12.40733601560274 -1.0070748830234397 -0.008206961290824575 0.2389912379303755
P 6.0603113038717 7.599539721753924 1.349012659666357 -0.2920274397207487 -0.26040107106471927 -0.04184933193561825
P 1.8658402917105867 3.1955424080019785 5.914524871201263 -1.081175618793596 -0.1478284044716099 1.6053266227906096
P 6.8744758057189195 3.890969320671075 5.969092886506137 -0.03474691656288209 0.1362674391068879 0.021808868344975342
P 2.3693443619918733 8.58626326086563 10.041565607199828 0.29566375092175534 -0.65666488959874 1.1754985951478982
