# total energy = -340894.47732124955 ev
CRYSTAL
PRIMVEC
9.07507145779944 0.00000000000000 0.00000000000000
0.00000000000000 9.07507145779944 0.00000000000000
0.00000000000000 0.00000000000000 13.28228440077316
PRIMCOORD
 96 1
Ni 6.358231126688958 2.121189089599906 11.574461593652542 -0.662961007020097 -0.8278455956430453 -1.917739825256562
Ni 4.787889809165585 0.2914350348920306 5.914574470523052 -0.2964111706107411 0.3020840526258023 0.8147427397125
Ni 2.7715359468845495 1.4898454322811308 4.8260786180368225 0.46632072325210655 0.3889567433496463 0.6845654726637501
Ni 3.46344663217477 4.161301489374086 4.683440272390435 -0.25119652174731577 0.7228281156893744 0.6354967401615571
Ni 5.04526791529357 4.686294382413961 2.530407663993854 1.1808043236315278 -0.08759568493279753 -0.11018308331501024
Ni 7.430559739089611 6.243567596808943 2.417548258351287 -0.8157081889495629 -0.38323989547052706 0.18583445140173802
Ni 4.984782562966677 4.827021517977823 11.458972232255386 -0.24489166257521053 -1.1792166674294335 -0.6421859792562746
Ni 5.401101473393718 7.948147373690066 12.254554720683185 0.6878585415927251 -0.6976750134625147 2.2153221333572684
Ni 1.7129106926254722 6.571395483899219 0.42873451590617406 0.8675801952285059 -0.07355129102458946 -0.1618018359325665
Ni 2.6968118071906804 1.5321987915173816 0.36297019441970785 0.9800582452252797 -0.07895960652435434 0.7199816473795149
Ni 0.7193745745245609 0.052806934231801814 4.64497467383488 -0.40248357419148745 0.15011102985819952 0.5015836602194588
Ni 8.73371279806709 2.187128559968579 1.2192050164921524 0.19495492564576747 0.2180729997204696 0.5232572885381505
Ni 7.075660913366009 0.8068419297829349 4.946362339769207 -0.150467898976986 -0.0646411330191532 -1.3399517526603826
Ni 0.6952965945105005 7.532990072429993 2.615746914958056 0.8645347235339625 -0.3910120832167782 -0.10083686621341988
Ni 7.621562771411311 3.957057927563274 3.7181766324049326 0.2262452511186168 -0.5217236255024434 -0.3827102482193022
Ni 7.609592751948569 3.749492889540663 12.630907923216393 0.9447192036043537 0.6735230988066594 0.27566596764358975
Ni 7.8854114036021725 8.73472013101657 6.837454803535968 0.2483690796008497 0.5737730378995151 0.9878355751778536
Ni 6.718357193663917 0.9544525071682435 0.3255736393006288 0.8335138496724162 -1.4230564917013622 -0.09440113789040516
Ni 1.5450218677121152 6.623713271770868 9.283320915360749 1.5870527641820862 0.3054015470348095 0.8266888563307827
Ni 9.224810298617701 4.702820087828407 1.4568675295323388 -0.6476207771186008 -0.7785593478134075 0.43613751480050694
Ni 6.401038239506056 2.011099395814828 7.105928999729983 1.0028045377828598 0.3517120000655749 -0.41454564756234413
Ni 3.5313826182991694 4.262189060539588 0.487172532076286 -0.8504520201886515 0.6524030289985926 -0.06472443676157887
Ni 6.303789772058946 5.761826495095395 4.737644767651245 -1.0727472855205846 -0.5990449250924264 0.4078168134789428
Ni 5.1227236515441374 3.1111523520052287 9.323818422451337 1.1812208423436559 -1.2663109872457805 -0.05255411994763207
P 0.1856786878040411 5.242015467948791 12.64231801076037 0.6895770669457284 1.5454949953449577 -1.7250973497940547
P 3.893514276101473 6.135256617060786 12.73805638629042 -0.7090475169655144 1.5929405904214309 -0.06272694671557584
P 2.459716486126552 8.615428314611917 1.447264288747295 -0.029632478154452187 -0.7508469694998037 0.31107494327050295
P 6.301003725072546 7.723176348306168 5.737813855596976 0.6407723867381996 0.04603457366155943 0.38095341342919553
P 4.743694210391096 1.0627725619880182 12.741283481757403 -0.845172516957267 0.3055802387045189 -0.20919832293865906
P 4.008994562427012 6.225009075352304 8.15205515785105 -0.23368370967453306 -0.3096958035347892 0.1798818333627289
P 4.950642143543756 1.1273326214709165 3.9081396615193302 -0.8697671755774956 -1.0810041262127381 -1.377934145441427
P 0.11741055405846162 5.565886623814081 3.5274031993951427 1.3146945207554908 0.20808323549760938 1.2656473855198525
Ni 1.8022729228374628 1.256407365078629 2.658117516830379 -1.1281280762837345 -0.5459030509621243 -0.4871654279115997
Ni 1.8773691404676267 6.355599355920045 4.927527936135413 -0.30120139291053294 0.3088568525732616 -0.5297518951235586
Ni 6.0606686034411705 5.588610603142896 9.16123034686943 -0.7510966236167645 0.5571914793917501 -0.08078637532044797
Ni 8.48349492344487 2.4561046076230113 10.268480742359225 0.41343827343077827 -0.4683282406004386 0.7056572603370428
Ni 2.1980912464818405 5.36461061042201 7.171755939210605 0.3729968775862802 -0.45058942855977885 -0.3889174054712786
Ni 0.36714563487066115 0.056018602077036246 9.168946880265315 0.8094336687947609 -1.4723985324695996 1.5049885505904792
Ni 1.579706791432053 1.225415995506785 11.54631616653977 -0.8159066781136142 -0.5957253738008902 -1.267244040583011
Ni 3.948826837606711 6.7838247603085104 1.7149816239684577 0.15639532020501454 1.181436557898888 -1.0889745460127245
Ni 5.5853889527188825 7.768778583181282 8.07918868531717 0.24387196306144449 0.6705555315379033 -0.2727976449568592
Ni 5.52205402790427 2.885709422897249 4.882554603723352 0.0508448505660092 0.8273588858146139 0.24427202671334058
Ni 0.7673299754699476 7.50087339397765 7.135043644491444 0.0887313411991375 -0.32391451823733247 -0.4786692175151305
Ni 4.958737107426065 4.659196218565785 6.880077692399242 0.7069428119176857 0.16716310024447986 -0.035197116726423255
Ni 8.197847969230121 7.06557850879959 9.409927239488654 -0.3462890292777907 0.4419698052115678 -0.6888278474845299
Ni 4.429433555368142 0.2873394550713064 10.706743175956024 0.39473966858001047 1.0674708676129938 -1.9191043097042564
Ni 8.283353294004913 7.295077994920341 4.667116033565886 -0.14278878516517343 -0.13527859283105734 0.3004686285095664
Ni 7.415522345420346 6.217994044992412 7.113474014272306 0.05022444337319092 -0.7572338468627539 -0.5299850941802872
Ni 2.292807768947825 5.209935089782913 2.603327679450276 -0.3369849782680454 -0.13033333301064004 0.3572689253280621
Ni 2.337711223308435 5.253232256467327 11.427453601022599 -0.6661041806347688 -0.5040231228988867 0.3982808489640495
Ni 0.9325906596430392 3.2278033225693523 3.856085958231734 0.5943305503358925 0.5354278624624134 -0.3914453140994549
Ni 3.746815743413666 2.758830846620836 2.7631932335470983 0.1367865448351515 -0.8337686459956996 -0.34012172412481423
Ni 1.233919337611856 3.282389878345236 8.29979460125332 -0.7231147936918579 0.38704178571512055 -0.31492337048231567
Ni 3.7610091554225575 2.545330711760747 6.919937221955157 0.1651157307971479 -0.03926434481726141 0.5184220719330361
Ni 4.125709058492454 7.027272631504494 5.896112144825553 0.11296630248710221 -0.8330646779501396 0.16974165960493345
Ni 0.6508160384872395 7.6463467919971695 11.507784319961411 1.1694061090969152 -1.434515127160265 -0.4147482504914534
P 0.13173373959147522 5.421974138112676 8.237367183600403 0.31933229818328873 0.736873280928531 -1.39331577010382
P 8.555687118157612 1.6160796784727414 8.20170487466732 -0.29116714860298243 1.5704555219450373 -2.075455149824581
P 1.8361047898254086 3.1400655301767935 10.384953841519657 -0.26816657394275106 0.7507130150251007 0.8904421874283439
P 4.0297220260000985 6.141944944842469 3.7630038561639605 -0.24799009899487615 0.27019980232269597 1.321563737071498
P 6.761908462353603 4.03445921338414 10.449758020429051 1.3621033490567573 -0.4284568583267976 0.15703501067154244
P 6.234410849547452 7.901728382369427 10.254495149490364 -1.321543425356524 -1.9558515445266187 -1.203750905125372
P 2.4094042890822465 8.466996443245275 6.014391183237756 -0.11961697503440046 0.4670426890197956 -0.5376528951381901
P 6.94814708207641 4.076694596689371 1.5287112414949922 0.15171128446578386 0.006013810294247707 0.036540261017879
Ni 5.432510296259941 3.048035228909423 0.3288270524753012 -0.15219748007358305 -0.11558677082908479 0.32082379512715065
Ni 1.4625748420722315 1.0804961768558985 7.292134041687806 0.7413655123719297 -0.5211255869071283 -1.3861614184472255
Ni 6.988295198909745 0.5376607855099601 9.193651947728105 -1.2640317042933005 0.5071297868486685 0.15646371154910474
Ni 2.8536562699462236 1.5105002952812823 9.314029142698145 0.3343084598771468 0.31725844637339556 -0.35024852814617097
Ni 6.4402153236763775 1.9249951163133185 2.4587236732916593 0.09646239129480808 0.9575153269277574 0.9648972212141252
Ni 3.9574481556428025 6.927183666641283 10.437923219533403 0.052113175755471544 -0.13637311144681674 -0.9083188105984485
Ni 8.348875311079208 6.952094738229778 0.3076585404216311 -0.3957064033686539 0.6666009177655294 -0.1912607646236319
Ni 7.7419798966964635 3.810604421809125 8.169734304868008 -0.18764759335107684 -0.11889938014208555 0.17075133181637045
Ni 3.0282334226412644 8.405648959114773 12.418697356033071 -0.3826408284339475 -0.8042567525795117 0.7765628862086691
Ni 0.07712177361506438 4.8019743203150735 10.340869866126058 -0.11697439520523081 -0.3738471414017175 0.6842659391454603
Ni 8.918553856760887 2.3368400164332086 5.9702273472139264 -0.8429819370638514 -0.3864301202730506 0.12464168194250147
Ni 3.601405870895465 2.699407277673125 11.6457081659028 0.6847217957359563 0.5031471480518367 -0.3453919713848181
Ni 1.1727079795556077 3.2570704285339787 12.742200063990715 -0.5290332717899793 0.5872217072052532 -0.34946614145419164
Ni 3.1816928836836893 8.403280365422752 8.177544311501546 0.05591840843417467 -0.28890714892421215 -0.28604653954696546
Ni 5.774549745502343 7.845063635193265 3.5274031993951427 -0.6250200089999494 0.8237161468557039 -0.28841478266882586
Ni 2.97975439006358 8.291874786253219 3.7720362749442997 0.9060073888564525 -0.18689426012482005 -0.5800642702248655
Ni 3.3425394530223027 4.394185977207955 9.236168658253462 -0.8886601558272565 0.9874236844514157 0.03924763264671305
Ni 7.244684122231483 6.143197304725606 11.377100566156017 0.0705641833718075 -0.7502309331823597 0.5590352174687081
Ni 0.6323364701536681 -0.10384150697681559 0.20075147425261378 0.27061272149039844 -0.04901499644612204 1.2357817083086717
Ni 4.718538111868943 0.2490000000112275 1.616321075377752 -0.741400479374923 -0.26248469306662536 0.2822456777436365
Ni 5.9904275491260695 5.812619670935398 0.18597453513875328 0.13843539329248417 -0.09749006122837403 1.337984858741999
Ni 7.681004490502256 8.582567480286983 11.511158431588589 0.7211445573393646 1.5873690098709243 1.1552938380652489
Ni 0.14818865944730758 4.759312408643846 5.806483107508024 -0.3241837127383191 0.6768871301828858 0.09025266293967037
Ni 7.967785828669121 9.003024623371347 2.2459150588887815 0.2062911765941931 -0.8017923501994191 -0.10935107433201813
P 8.565188718140547 1.5425988235903927 3.4398323883203354 0.38606348096225124 1.1389493352689546 1.193843416203673
P 1.9167640263567556 3.2646844136205897 1.5744423423870673 -0.32691216741307566 -0.6177743831811295 0.7158272588915091
P 4.915866469107648 1.1419525618458042 8.318920314686018 -1.267923326038223 -1.0625556896995634 0.403778124633195
P 8.57182259549253 1.3368215746763183 12.41112602378306 -0.5547548449257995 1.551264036618251 -0.8188125389064994
P 6.463937560883054 7.882979284408833 1.1418236958288437 -0.9082501621440422 -0.5644949550316988 0.06141002767636521
P 1.9338251609965993 3.294595849670018 6.021948902880342 -0.5767737723990518 -0.14578617723060056 -0.10530158685299283
P 7.126808016999073 3.9593629957539767 5.975911972074775 -0.8200700654626843 0.40784740960656213 0.308273726376282
P 2.2302533002922695 8.554198806412435 10.25146679809179 0.5730423303810777 0.011474062077870563 0.2757158470449187
