# total energy = -381175.67903984763 ev
CRYSTAL
PRIMVEC
9.16853106223248 0.00000000000000 0.00000000000000

0.00000000000000 9.16853106223248 0.00000000000000

0.00000000000000 0.00000000000000 13.41907197890695

PRIMCOORD
 96 1
Ni 1.6204737083328302 1.6773827814368392 9.060101390810237 0.12897604765179724 1.6506130054322348 0.0640142980684317
Ni 7.3618721200038815 4.4608296601909565 7.8402273989630125 0.9772896813412073 -1.2224142858628302 -1.4537991722008574
Ni 5.8958148139938675 2.2527081136869715 3.710722784136032 1.4407531376501765 -0.7878212327313078 -0.9777992739877741
Ni 6.8102474408830975 6.611070269284661 9.070608527555395 -0.6646949589920682 -1.3659579469161571 0.07630982760633308
Ni 6.480996317274579 9.050807250741679 3.342905150924694 0.6048975272184615 -1.0528945124607156 -0.23547988234300737
Ni 1.1354767453787666 4.998160599184602 0.029898580214624392 0.886025803528203 -0.374686092363245 0.5540069110161814
Ni 0.9931903098219571 0.19897179649975247 10.85824381341998 0.01918145802445729 -0.3244140835815703 -0.06814631795893425
Ni 3.8211779131031043 1.9846019245928144 2.1385168082594697 -0.020701237103093382 -0.473683591375081 -2.0000598636127167
Ni 6.3438901018408185 2.18563113949188 8.61182347842396 0.1662490730706427 0.6206522189495569 -1.9068216356821615
Ni 3.8161168838855413 4.017292795283668 6.32957527409194 -2.4810592719229203 -1.3010784726339528 -0.545864227304389
Ni 4.538762175316473 2.521190212559969 13.160446409036606 -0.12906166538706806 0.2793328749722157 0.34544339344804376
Ni 8.167373427810022 1.0674187383462133 1.7872731288825312 -2.2337651705538044 -1.1123836689652842 -1.7652006455728437
Ni 8.714157122461833 2.8722257662788664 2.9273836499253494 -1.4326821877165843 0.9082190517957907 1.8401323618847276
Ni -0.010933473445550318 5.579381296990698 8.843463668411209 0.21019899628903155 -1.1221217221886546 -0.5323363680212831
Ni 1.56696616030077 3.64306085765094 4.817594629051258 0.5897025646455779 -0.5509781514921865 1.9475839052011876
Ni 6.794734286107524 8.697039474727793 8.157399899580195 -0.13249254544548794 0.6737295583905106 -1.1417770345257368
Ni 5.245454222474651 7.367886676465333 12.488244542513623 1.1898358377061766 -1.3178693189390465 0.08035263021713904
Ni 5.240154811446115 0.3548469121350946 11.987739925902702 3.3669691186985498 1.5683006803855635 -1.3988513552100683
Ni 8.58837404304925 2.3711747052089467 11.433170314563293 -0.9026711253943679 -1.0867266305188124 -0.45775020797427624
Ni 2.408490627157282 5.526689748234659 11.330943942340355 2.6810268202919314 -1.1370909419039772 0.2154921263671708
Ni 7.122206714664942 8.026801507585974 0.668554624815108 0.004637755882327497 -0.9108071242379411 0.7127812729763336
Ni 4.080372289879379 4.510578110434609 1.6976470690757115 -0.14822898234413825 0.5024506362054444 0.06676435000974308
Ni 1.6598158756744288 3.065489235258955 11.420006137478916 0.8579560418751805 -0.26765209620017777 0.9994456486129559
Ni 4.9688304679038335 0.5451626983372 9.538853667169949 -0.6261626072448248 -0.7235282270801926 0.7487049834561363
P 2.372421625450955 2.7355596403422857 0.42999677804407005 -0.5293495174788174 0.3280257121922286 -0.10880111536581906
Ni -0.24483187266520165 3.006269692294754 0.14556876972327246 0.6586551805558913 -0.311320997843038 1.6988674695632484
P 6.528525982969953 7.878207122569593 10.814927087806979 0.49410560667485864 0.5605166871102412 -0.3147549632252514
Ni 5.833954734046591 0.6802270818746721 1.059287168032705 -1.1894913098825644 0.6618528615575827 0.6046517297562426
P 8.697635429255223 7.151445160633797 2.9023443912420803 0.5251709606210956 -0.876012385156259 -0.3038432014087541
P 4.9591760045594615 5.5524624894132275 3.8739657314366522 0.3071897492834838 -0.9293581477672511 0.0027582794714275075
P 6.381838652441349 1.1038178071754248 6.6467211859686675 -0.659967985830044 0.065862407020764 0.06335712410040702
Ni 1.99924406890522 6.497389651044512 1.9527165236690487 0.13725088606607977 -0.5470695604663998 -0.24150526260148084
Ni 1.4964326498465825 3.884541632165744 2.4308242522860164 1.5354399251018007 1.1428455849995671 -1.1300972841949635
Ni 3.2603663657287005 8.264083094815192 11.016682450376392 0.2433952805353421 -2.0382230049459995 0.5265200184498222
Ni 0.09516293579320789 5.210714657791053 4.270566134616641 -1.0266713170981288 0.2735502068521676 -0.8538489616853424
Ni 2.4411672723228515 8.776182235970554 2.365916552570772 0.5443205369663529 0.4763637093104054 0.0734733865988025
Ni 4.105879143653401 7.538274660123284 3.7245040033695807 0.10893378428894143 -0.13161399949527655 -1.1104638262347521
Ni 8.34596724688413 3.4825840562107158 5.737216644594728 0.20795159501575153 0.5849676210637539 -0.10532369834017989
Ni 3.185505308552249 1.2587843213697152 11.594803267786732 -0.4743842169865314 2.32290506004527 -1.5668433791137468
Ni 4.016210908603101 3.721231754587428 11.099397271371256 -0.4866044132018071 -0.9780203888596447 -1.0500891818014366
Ni 8.333782268930976 4.996271881759207 1.6144756552275228 1.269947298446787 0.551566934116121 0.07096861789907778
Ni 9.552050850966616 8.950815249570047 8.599411120897262 -0.727631964835921 -1.5630841691816306 -0.7470795320375715
Ni 4.96310013590931 5.795896161071765 10.676039426762761 0.6139087295781362 0.7196263209226252 -1.249936145432183
Ni 3.611163537636626 -0.14068836057017692 -0.13273282605554043 -1.9336485260670182 0.2659466834732968 2.784970350455133
Ni 3.8514157289718045 2.4297707880521435 8.402861650338235 0.1346658989477229 0.5528856529275447 -0.0784160753160585
Ni 7.624192965916368 7.920804118484082 5.2945214508507945 0.613570115291795 0.547244395481367 -0.21397517550201212
Ni 1.3059105716926744 0.7529427027523741 13.062862981008912 -0.1433171468648177 0.9116964688214299 0.6059375384472017
Ni 1.9962551277368767 6.741831861134085 9.365948921700001 -0.1361692229661268 0.20848895557646027 0.4033194398292215
Ni 4.45047838847605 1.5913361162070785 5.649187742921422 0.1276061638874641 0.1807326113987984 -0.8105050474820685
Ni 2.2128433400674723 7.8625197657013866 7.318601237046837 -1.4040874067980271 -1.0585717653511513 0.5454448803787832
Ni 2.221223377576263 1.6245445361817397 3.8911283049735292 1.7047822923857865 -1.0411875084364326 0.7526585687872457
Ni 2.2919952698414225 1.4338665929975802 6.51082613350527 -0.9103240139539355 1.4468366248400955 1.0695015248897775
Ni 8.325759804138645 -0.45755004797997595 12.242515070644801 -0.4379974508273812 0.6177646129891167 -0.3877403544440419
Ni 3.6428958240894977 6.50456861096725 5.79733470361567 0.60717423906778 0.44971679614683835 -0.29863131819051153
Ni 2.2100377695229536 4.2620834095585085 9.298303498571055 0.9821950890626246 0.37954547733807537 -0.006663013842472395
Ni 7.809012217669326 1.2594811297402493 5.015954884520554 -2.544639310667411 -0.7819519184347242 -0.9299230191317854
P 6.459441100443981 5.429631677044223 0.6395692303071309 -1.3574697069394879 0.7420355418557608 0.49440668285504535
Ni 6.310782535709261 3.3478616588866768 1.4486160091249234 0.19033439615462058 -0.6996385649467887 0.44519525412740096
P 3.195618198456184 6.952139629598683 -0.2568719878255343 -1.4218457592227125 -1.4534795840779098 0.6531681892993912
Ni 3.990722391891462 3.4981522221734367 3.770115612339747 -0.5365537485367405 1.2833278335187512 2.1017503360756837
P 0.22008600698005254 3.3048245734750097 9.689053461997915 -0.46702546262861505 0.7135148087082486 -1.1754260900387499
P 5.332830324727141 4.0834437478284435 9.213789811756468 -0.638053702255456 -0.46074862848096776 0.51931373050937
P 4.4784332400781315 0.5366258789450391 3.626852728211071 -1.1192960798144014 0.015494496091173315 0.17511269410885968
Ni 1.0271597178854908 5.850797325844893 6.677236808332463 -0.16098371090664534 -0.3994905530014346 -0.7175601824222159
Ni 8.71109483304396 7.265116610342756 10.261189062246615 0.15442225563904372 0.9630282863261864 1.3749861185566965
Ni 1.148670261762957 7.067901504419244 12.107773419405259 -1.051999511450272 2.3637457482107163 0.9735955203190716
Ni 1.0291309520916068 3.3701503582125745 7.525549655682966 -0.7858993331182464 0.5909732038278854 -0.9784273944900763
Ni 0.4282272515241613 9.078294507253009 6.118627542150193 -0.07575729753697275 -0.9401662941263486 0.19362257998758914
Ni 0.3724523257285082 8.066675449736664 0.8729560254863111 -0.07532535220587673 -0.10827866720344577 1.017658314966241
Ni 5.860314261221397 3.5242091878189323 5.730574960599796 1.9966919755817483 0.3892727319281683 0.07555957970386987
Ni 2.6459097423543683 5.437562456524643 4.099781153558109 0.5330542200239142 0.08909412385519494 -1.6297125078341417
Ni 1.1064491756273098 1.6146058483704384 1.9784406716323029 1.940050830048936 -0.7268408363931934 -2.1451909237578217
Ni 7.947869622560613 6.0613801502452285 12.661015427428177 0.33635248689036906 1.4881182571977016 -0.07345924553141542
Ni 0.1179714908376486 -0.09302575117253051 3.497278461150912 0.30969477509352467 0.7196191218337735 0.30337834595719365
Ni 7.202137969590147 4.528915172817084 3.644687355084266 -2.4721632549848715 -0.8345374058409241 0.879966998928633
Ni 4.312372803142444 7.5213312144818785 8.82678427646811 0.6693311722124989 -2.0911867016272243 0.1581405850308954
Ni 5.243519662393299 8.233111796451192 5.73957845822959 2.719232641937691 -0.44878554258182063 -1.9930872889496256
Ni 4.576325647606971 5.116342966239649 12.870755663812037 -0.17170135443446558 0.04881599306143851 0.7188269649497814
Ni 5.370925571826731 5.361445310574992 7.495920630285364 -0.5655786750141809 1.3512622925771953 -0.13249563076928147
Ni 6.88222041073431 3.913523359261245 12.570262555137957 -0.5651719264940654 -0.5253625078066113 -1.0742102432193565
Ni 5.9395670448384505 2.3605758831518764 10.799561546383586 -0.21156450917799047 0.05237748516045173 2.1914887783830967
Ni 0.19085214527679284 4.926994460078219 11.255475011545926 -0.7048463343999732 -0.10680902463645477 -0.5401887741861664
Ni 8.36894358604937 1.5998445131525467 7.559232088720214 0.44859528094788553 0.29549945742974915 -0.17294602547484408
Ni 7.161301331664378 5.7404998956143105 5.779487240798808 0.12700041198266515 -0.5617227916032003 0.22147996851948956
Ni 4.029202717301085 -0.10955386235097375 7.180613008912481 0.16156143778698628 2.9101967012565106 2.834675173879428
Ni 7.576984198812688 0.6909139218311781 10.064142657297024 0.1944497038745748 -1.0073538477164392 0.23112083404336323
Ni 7.318743349280302 4.194410480835987 10.085882161604566 0.5333308707240687 0.3239474283577969 1.2390457237719241
Ni 1.1474416785833312 7.115944607861327 4.536934887050059 0.2530091494760224 1.5684508328101827 -0.15954286469506074
P 2.6862787851893857 9.083722277718222 9.180551135628876 0.4832732919460452 -0.7111283107539431 -0.7420445407168252
Ni 6.599673785013953 6.599068661955331 2.5985093529487915 -0.4876657645867859 0.08038271212412608 0.34658933412702886
P 0.553936982687214 1.817697982787533 5.129144986341974 0.9285310238802653 0.4355711007740757 0.9853500897518386
Ni 2.687122290058979 8.68367175625097 5.29786338047 0.735917601883481 0.7185225463354852 -2.3143201465897367
P 8.280834001301582 7.1070236270122535 7.401329810838489 0.24402108704479908 -0.20887384971970477 -0.5402126854455663
P 3.2356480056371253 5.612745581995611 7.56120423977945 -2.278822210793443 0.4711248295089693 3.2005909762492104
P 7.058558771135373 1.729295005041624 13.11725070803533 0.10098856129993576 0.3120542764646368 -0.49549785903669497
Ni 4.742587792228865 7.628309636421234 1.3597683576162396 -0.47627937712671525 -0.705743649403262 0.6881657884204987
