# total energy = -340862.25806382316 ev
CRYSTAL
PRIMVEC
9.32550771959456 0.00000000000000 0.00000000000000
0.00000000000000 9.32550771959456 0.00000000000000
0.00000000000000 0.00000000000000 13.64882318439363
PRIMCOORD
 96 1
Ni 7.707560260712698 1.9548968967964329 12.015932790057331 0.756282024472446 -0.7149829086133428 -1.9728455079814542
Ni 4.184392699388665 7.786976286038956 8.996390215739776 -0.24620883872473726 -0.9153744318936493 0.3561805773598898
Ni 3.0381945226800537 2.05474510994442 2.4757190529320976 -0.7901498808644843 0.5780287278520755 -0.12053280198045048
Ni 3.1634267683477777 3.7244586494719076 7.746075540914668 0.07862767710623234 0.09009196899209 0.9107659865873605
Ni 1.847252559039151 0.9848668899373237 13.055140347112859 -0.403822347607569 -0.4079160580609684 0.1428602618330572
Ni 3.99144794081653 0.5731205370224892 5.33217248223811 -4.481902807779197 1.2765311223118918 -1.9236798448900803
Ni 3.869302438265644 0.5262654551003125 7.709209943061243 -0.2792020058213062 0.37824012826309056 0.20534372507925927
Ni 4.071181033411588 5.0162746321304414 5.780467365737571 -0.5854823559166432 -0.1977574280915691 0.8405566154518104
Ni 7.882460161487003 7.6051195563668825 5.95521339563143 0.08236888931621943 1.2908346834187576 -0.5161417605392917
Ni 6.508971380588994 7.010758309987228 0.3018098053142937 -0.4311914836491412 -0.6264551987845791 -2.2071365122226827
Ni 2.6690069901951685 8.938788418506894 3.530527252163332 -1.2337983593300557 0.0864271185459931 -0.3663369490676014
Ni 3.4747868263084576 0.7270184614420201 10.306130757144155 -1.3642314511433538 0.14164592980998186 -0.04475904938324549
Ni 6.3184046265328515 8.93755745146332 8.401847121955958 -2.5754254428103325 1.0560407713991813 -1.1868145343813497
Ni 2.1659984192612676 5.886475076857375 13.730443271912172 1.4052261483881605 -1.1165593976095287 -0.9357753641475045
Ni 4.078874577433918 4.390812816884761 9.972117175378571 0.6773666409224657 0.6753298129980949 0.6837344921220224
Ni 6.815556778501875 2.3596239399105303 1.3905964251513008 -1.2240091411537757 -2.7650643555598253 0.4957603686694623
Ni 4.6720887863411535 5.782271851517353 0.6011101164511218 -2.225585977177122 -0.5568037570350282 -0.8552489273566625
Ni 6.417432194985123 5.725619390989286 9.748208000355838 -0.10748342499566003 1.1798604716610197 -0.4418379076193939
Ni 7.165384556574207 1.5209437119053861 9.655027525360536 -2.2888839659048195 -0.3296102830705291 -0.5491606386674736
Ni 2.329269411676973 4.252049259245642 4.31957992474589 -0.7590953255515249 -1.472328855573929 1.300215353302709
Ni 6.472965594564489 7.850044696006253 11.40461590520325 0.5381897414782666 -1.927945819255286 1.3220851567926069
Ni 9.007601341344195 6.277446995810337 9.953472687422396 -1.002822792615305 0.23495563440842115 1.1068038608846618
Ni 3.1289503656198323 6.688067759920935 4.266239884625981 0.1458928780117939 -0.22982268405722997 0.7123490705349216
Ni 6.353421908719335 1.6938386284799338 7.407762900004487 0.8255699122349911 0.5346824996559566 -0.7467959393588816
P 7.131803402605223 3.8608535281029392 6.3516715108854065 -0.012143577341069408 0.17239323829516762 0.10213578753050151
P 4.411524769943664 5.646585711487167 8.126250386814231 0.8159455017713497 -0.17047031024084192 -0.6768156535150021
P 7.4723336492954155 7.343333898433727 8.057568953638402 1.5354846622968072 -3.262168125631059 0.33913004963550625
P 1.7997204452430091 0.4194240435737248 6.198612882177403 1.0122592554378567 -0.9044714118279005 0.7127427064289145
P 1.8308396651248464 6.349132175082643 9.510991325551446 -0.2769872575581746 1.1886433600599724 -0.7674804642914266
P 0.4907390001821681 0.5429422608883526 9.872235390402125 -1.1113014916446988 -3.036327051929397 0.2207425761328327
P 2.346493624779087 8.446858550965148 12.12698000564946 -0.10787166157301423 -1.055924557536291 0.6065587169709683
P 4.65754099400802 4.431416078306853 12.26555612057967 0.13947591874185655 -0.37356380583334375 0.28196619883000473
Ni 8.396379576670755 4.6180661190425365 8.04898389106027 -1.356931575047831 -0.4097099167365976 0.501942072000142
Ni 1.116002182109454 5.762585704328094 3.1498478962860625 -1.991948804469808 2.245590188213191 1.0830126720023348
Ni 6.480509930460324 4.722455854540675 1.736403044214627 0.561542043050962 0.4270576639864258 1.420942787792469
Ni 5.718214937712037 6.6086424090867695 6.2677037051503 -0.7987787601840759 1.9239580382521317 2.617990826976369
Ni 5.422661615651781 2.0249128101535905 11.910796081375933 -2.597834920853784 -0.5291176039736694 0.1465582795099347
Ni 4.069101445148583 4.942304703421201 3.0590426281543825 1.5519836883930949 -0.9002072372349077 -1.3847491114807313
Ni 5.708301922808114 6.834133190250339 2.4174113147507406 0.38247370672846387 1.2859632142590691 2.2697022507700457
Ni 8.767087166944295 8.859568228846657 12.033129959186518 0.06495712159767522 1.7881181736009657 0.2553023163855732
Ni 9.005055477685897 3.0513155123035918 1.6428402233951858 1.9061346369174654 0.7261816055426397 0.3337299616658575
Ni 7.0046221257851755 3.793728522196597 13.390847441114145 -0.28254109749686823 1.2917916480153881 -1.6291036706055493
Ni 3.2453420297928064 9.160632926079272 1.006517921642347 -0.17796661861788704 -0.5444809738036172 0.14364419118693325
Ni 3.0472216143329214 3.0164194617198827 11.853839609290134 2.645639699041889 0.2535940754452149 -1.5830410719195316
Ni 8.221414397341107 1.2423907907575038 3.4555818753271397 1.093326395223517 0.8516545251371849 -0.2448294418787074
Ni 1.1662480187061994 2.0842510169585444 11.078599879017728 -1.589674003855017 0.2869266281590736 0.7681124414484707
Ni 0.196714128867682 6.8374064435252935 12.443768441762135 0.35117309684296943 -1.4732295130113273 -0.5915910399175424
Ni 8.788731670793783 0.8812660924080207 0.44754231501145814 0.663184950105445 -1.6638025075393152 1.6207375580290408
Ni 1.0130205983050995 4.212462478185288 9.627197412117093 -1.186875469526272 -1.7272563051185865 -3.6302446830975863
Ni 4.607864013393531 3.37646799645703 0.705583781520413 0.07136148246212226 -0.5571248878198728 -0.5826425724750031
Ni 5.800381987870523 9.265554215528045 6.041801669088083 3.282206532339173 -2.401933057913715 1.20202698045573
Ni 8.77397871728672 5.610803737652402 5.355607483605524 0.27606963083991165 -0.5950334899401881 -0.0201618196598556
Ni 2.8069032755990433 7.582029598791986 6.79164058092652 1.041480357086503 -0.23325690654975959 0.09028145929507678
Ni 1.3849032025747765 1.8678899080348077 4.581964280286601 0.8926466512788305 -0.9523474095735727 0.025398128358130455
Ni 8.874796783256917 2.3153464283735317 6.719793137816652 -2.3358641913090996 -0.6414524435243598 -0.944624072787386
Ni 1.1995587329459128 1.5396320297487192 8.164398242004712 2.005398759327127 1.145270906611608 -0.8683204158286401
P 8.69755617999824 2.750120257960294 10.025743508591189 0.0582020622620288 2.600379541652509 -0.17294139748915377
P 4.738048103759264 8.095501389596256 4.495963513828017 1.343079499656087 -0.6436142270623689 -0.11958946423057468
P 0.9607604520006893 0.8113415690283403 2.5448098759049946 0.6348652772251453 1.0287402838120152 -0.202817873333612
P 7.368037168876336 3.355494929176763 3.199720712566574 -0.005500103882622786 0.017652422974440564 0.5869365718646665
P 2.6485188493260057 2.7550534516424907 9.689449840142627 1.7536255391407347 -0.42519567107702255 -1.3646109459699596
P 8.108081499761255 0.5005596925578237 5.748475278315746 -1.6602705831266569 0.21628376903053073 -2.5247240598007226
P 3.5632392687954897 7.192689643722549 2.2016918007709267 -0.7302326356835618 -0.2428725752626527 -1.6360477060235499
P 5.4391584391372385 9.251575279177167 10.284320259253942 -0.47823701507371824 1.1175068491244624 0.6009393139016618
Ni 1.1485668557166986 7.630531565410338 5.1663798724846615 -1.6360554193330341 0.6833603966120554 -0.12852327638509478
Ni 4.377011065184096 6.494386286224237 11.621740773224477 -0.3224117084395609 -0.018527626490542282 0.10348587380049275
Ni 4.427107693654348 2.5664543797544837 6.202503484075725 0.5269069694755958 1.244030064360393 0.19952557573558544
Ni 0.9884478849731722 3.90143813850922 6.906441313450755 1.0893566119424916 0.5386587106948851 -0.2266165184151065
Ni 9.081860360798517 4.263500982954032 12.184537040444393 0.09002743430274174 2.856630080883964 -1.9350721458874225
Ni 1.7484208262529017 8.47094633788597 8.775743103382508 0.07250922291332028 -0.21884613044106827 0.36707382723362586
Ni 7.094286884299969 9.074726347250538 1.6484774929242751 -1.1555627754559197 0.42138118242693884 -0.9777241977754645
Ni 0.26336726407398847 6.692954326063603 7.6868128707237515 1.0434019995892483 0.3125710682000552 -0.6570636676990554
Ni 4.801508185058606 0.4983290310667433 2.7924403453878535 1.4090234106470636 -0.24155771310597104 1.0406030966878723
Ni 9.08610346689568 3.4613674204319325 4.529498972808262 -0.5460007528822532 0.19108695804992895 -0.2729215721292332
Ni 7.987474706014835 8.682430206174946 9.873968069771031 1.6586741851738143 -0.9760082435256223 0.28026669964039475
Ni 9.250708006941924 5.783036543165633 0.8894827974238694 -1.315779012068921 -0.8507456401696702 0.7922389021830292
Ni 1.6872268433746829 5.213425194768118 11.27994692021304 2.4159049467127747 1.7651096285209344 3.4819714777790742
Ni 4.494717625971795 8.918113767479612 12.357481382210844 -0.9466179632889632 -0.03795642463911528 0.35957237665025815
Ni 2.2663688608519825 3.12771939857626 0.14655874969762323 -1.9717353056364104 0.9688816597831701 2.580962056357845
Ni -0.18276130393894208 8.390187439421268 3.0341882844836987 1.3835882584034107 -0.2780254690147019 -0.5627409484550695
Ni 5.997523225000294 3.6613995650125175 8.38493624591948 -0.69569423558706 1.5404862292764565 -0.020238181423745793
Ni 6.893648581705504 8.685712784957806 3.7782677626394805 -1.10994394917554 -1.0662009997616348 2.560818748640751
Ni 6.560028536373549 3.643447962293747 10.893985596657894 0.4249658144544036 1.5930737735651856 -0.6752177129002629
Ni 6.158322957820948 5.423873931679543 4.5743621262417475 1.693884157416044 -1.9312252613375063 -2.103858640667938
Ni 6.583640722391173 0.38476859109398726 13.01632292045474 -0.2689952404916335 -1.6994840201013246 1.6015692126307064
Ni 6.481946058677826 1.9706570051573273 4.936137745043059 -0.2646495619284281 1.2213997285553868 -0.5333959196340491
Ni 1.3656367032412804 7.78193118626189 0.8950846300229163 -0.9661017830451878 1.4301470799995561 0.3970418343506259
Ni 8.686393547034934 0.011530057974798856 7.6466712219429995 0.704602079599651 -0.48569655667555706 1.1857228439790675
P 1.7062695305184383 5.663949807207868 6.1350101206071015 0.6724609760907321 1.1746156783223125 -1.3560676843856387
P 1.6837204524020812 4.527440833213439 1.6824633739363721 0.4686118332791284 -1.5028218819564634 -0.47765080355294504
P 8.098019276730836 6.624617004129499 3.396427381027931 -0.9986367795584157 -1.549148532937145 1.0333410158088203
P -0.05670841357550294 2.5583132113526723 13.074753755340454 3.381857605774608 -0.9527114777812107 3.125710424890236
P 8.329375802367188 7.7916856675314135 0.4850243289374603 2.9802106685518024 1.57213290964746 -0.4413877074558527
P 7.301387763873192 5.567402823858553 12.133558218926249 0.01843223856325858 1.4262091783977309 -1.1277598943110385
P 4.855251087120047 1.1673950561786195 0.7500142313870676 1.1432934711702631 0.5933980112192943 -1.0674623829725618
P 4.4778011546305745 2.8177581668014584 4.023181711669363 -0.8713129227980606 0.1895895475687961 0.258009173793775
