# total energy = -381172.7485646932 ev
CRYSTAL
PRIMVEC
9.22496134886670 0.00000000000000 0.00000000000000
0.00000000000000 9.22496134886670 0.00000000000000
0.00000000000000 0.00000000000000 13.50166340744571
PRIMCOORD
 96 1
Ni 5.399166759979566 3.1158874227598132 13.36850914618234 -1.3172514828493895 1.395027353478288 -0.6895760385044639
Ni 5.265035826149655 8.827706563025718 9.200357167558023 0.5408737160683329 -0.22821163081636825 -0.1350253391696707
Ni 0.6491079275989021 2.567288213411051 0.43735632640780486 1.5504407693860072 -0.6306463540477913 0.6434437629227757
Ni 2.3639885215442296 8.711711902642133 6.272102685294787 -0.9628205411907547 -1.536475565455167 -1.8254107394038368
Ni 8.92883058617864 8.62771863217987 6.314214632539186 1.0939596579321416 1.5039853061369453 -0.9723115114003256
Ni 5.467007123623663 0.7912765700014407 0.3860221855905209 -0.49388114936887845 0.5602644618901189 -0.8012506187633363
Ni 6.5278130709347355 4.60956544290684 1.6311760647642777 0.15935645971586748 -0.006046463304396038 0.7163952155798372
Ni 8.04085428434923 4.7083186510670325 7.9837084180633875 1.9308246834649778 1.4228811424657621 -0.769388737057733
Ni 5.335782052528031 2.5207851847015204 5.0913962290868175 -1.8136798241201535 -0.09030151389973479 -0.6577689212961962
Ni 1.7229090775568936 1.5577361497560298 6.896730333725571 -0.3262053711540382 0.47382757315211305 1.7619520567285591
Ni 6.635339217064134 0.06846028102740981 11.709505986376941 0.4614073451108892 -0.9240053680957699 -0.047812234387272494
Ni 8.636952818202133 2.3582874956084052 7.267486131255906 0.9448235903927019 -0.5862889109783386 1.1501763143330257
Ni 2.467298860468657 2.8430407494525722 5.11363299772485 0.22958768522828846 -0.022273723796535836 0.3757199329443981
Ni 0.6479741798844799 1.6972267859625008 9.785857143647709 0.48469948286961034 -0.9593834904847477 -0.8787153859097189
Ni 3.5039815346046805 8.50150271494047 12.824892338302734 -0.5067163534603337 0.8506649075304059 -0.16780356204195618
Ni 6.990020519945319 8.342925634298368 7.551128776493075 -2.0675747186352393 0.6682366535967394 -1.2968870602604246
Ni 3.7584151856337584 6.039323707860782 12.414684149801948 -0.18410641296703775 -0.5870877527305502 -0.3694940066393443
Ni 2.1346652145237504 7.094142655443133 1.7077847538970492 -0.35072366801037663 -0.7779330270833182 -0.5120645051461246
Ni 7.114548269310517 3.133839196984917 3.4002726773624095 0.8755511292491243 -0.2340601191773453 0.30604766525924065
Ni 5.129207499484481 6.229357905721591 9.111070614438837 1.8203068425183682 0.27122927202847485 0.23042303664539024
Ni 8.955665997905683 1.0207696163054463 2.7985441497738526 0.05327659993595341 2.9933960568938254 -1.2453806648510164
Ni 6.019028793526132 3.7793927470869373 8.36121504209831 -0.8662419360330565 -0.2651208451378918 0.4049850004571025
Ni 2.0057556086544808 0.38242906325718184 0.9902008628369333 0.5072927947890941 0.8372249799754161 -1.891143305714956
Ni 1.9270390159192237 2.495684065653983 2.559065083121094 -2.208380926152745 0.5976143632934869 1.1023908194186305
P 6.994430051332575 3.998236498341888 11.41687084909731 0.18736348645175474 -1.1445494550645514 -0.0541857420137841
Ni 1.4852833055813306 5.115978905322714 3.7419726150382675 0.5122483390221565 0.8354514330147611 0.3361401137692469
P 0.5783847636231788 8.498144829114192 2.230083599260318 -2.169531814496031 -3.1674635975676226 -1.2509504456293101
Ni 8.286782521279877 5.287526281216871 10.268203605151008 0.688156275338802 0.063946935165606 0.15915179990422912
P 1.8521692319464893 4.761242252675162 1.4956872166661568 -1.6950534951337968 -0.6518183601397162 0.057724865515294134
P 8.868425541149874 9.197092453838462 11.638676735349012 0.5424670286973818 0.10916209824966361 -1.248700987473501
P 3.0234717628486685 6.348682777048269 5.486319579605294 -0.660453667217211 -0.4569485380085872 0.4706021242362798
Ni 1.4890286397721795 1.3328869488502346 12.023784727298368 1.1039962162325374 -0.9878479164730277 0.6929961199296064
Ni 3.928440442952816 2.536320019128588 1.684359810274333 1.5675373198569778 -0.2665205536988958 -1.1389375081944126
Ni 1.554092290136854 8.607469842650525 10.550685750286675 -0.05537744832904012 1.011631906266503 0.5658237011454513
Ni 0.908784123999062 0.9838974469438123 4.790700320831906 -0.19628135776667488 -0.930026120368553 1.04765229022517
Ni 8.06804946955766 3.0576686935025523 9.601221392999916 -1.532623281588612 -0.07450825562122007 0.10409933901477555
Ni 1.2460431654200566 6.755955582939381 9.277708466056222 -0.941167224587037 -1.5849578293262703 -0.16235282334003007
Ni 0.8959226832875308 5.588241561890011 12.415981179327153 0.5966442860707337 -0.9708261851040506 -0.43554024753614023
Ni 9.134888541402761 4.06159353091024 2.2235892266732296 -0.3462892863881068 -0.06509570405806854 0.5897611857976552
Ni 2.2594789376818456 9.212830237408879 3.1832462434365154 1.8386601482145757 0.6552466690949748 0.919976449442035
Ni 3.8285156647378504 6.913600942514303 3.5553931650948787 -2.1762933015895807 -1.449097395849814 0.11770973070935857
Ni 0.8670264152594143 6.491909522484529 6.2684708181249915 0.8771734953438958 -0.9549676208052393 0.7992431014150042
Ni 8.167245475848791 6.250040268420811 3.0043364261194117 -0.6214580026803039 0.7466612135532302 0.5447406552229069
Ni 5.866761586249893 7.762980007263633 3.562278676030962 1.6336308690519414 0.030309449616818765 -0.1632714784995575
Ni 8.657921154694252 4.989523139095725 4.891828033969253 -0.19640579915968112 -1.0463533689080884 0.13694646745178352
Ni 1.3299441862717103 4.0724697600013995 6.615679902546601 -0.7863693307761297 0.7305853910372901 0.3216254650928396
Ni 3.659320653914301 7.474829123555853 10.447924296545391 0.3239733964997259 -0.9041891047007913 0.9117342640379007
Ni 0.6856387734012712 8.94713290892407 8.373110629386733 -0.9886534430934586 0.11067596379102876 -0.1465654785987863
Ni 6.146637679885772 1.5801620300958175 7.251742812708854 2.1550778438542304 0.03772039736890923 0.5227880622112158
Ni 4.763447018368789 1.9784958487186217 9.029818079907857 0.04385530662205351 -1.2793333676473775 0.03314254819023969
Ni 8.498024904620396 4.143096061885981 13.487877374826008 -1.5898712074674877 1.9659485237513041 -0.6039996979945405
Ni 5.79335857108589 5.0449190302682565 4.504546641193877 0.6917609619709247 0.5011902814357819 -0.5453240385302027
Ni 7.61742857163995 7.553268967459275 9.562215490144824 -0.19609392434621714 -0.05676224449170869 1.057819717676475
Ni 3.9701741667937047 0.7231290151540057 10.900310852010215 -0.9769384686493756 -0.970211177227871 0.9082424488345583
Ni 7.0483776236184985 8.765945448720954 1.5347613842331003 0.5331655487907979 -1.5964480893540571 0.8193151895745309
Ni 3.134328119921161 2.9006598562408543 10.545123098766771 -2.3511285736673377 0.260628613694493 -0.11173243008000112
P 2.3462489214235336 5.276253378800079 10.612914570117244 0.26888751126917565 -0.3519693674920196 0.410152660700971
Ni 3.1656284128018273 5.877268816898605 8.098526895911668 -0.9848258418172522 -1.1708004183412803 -0.6410228121861089
P 7.389267609713183 1.7007691710100032 1.540971628019503 -1.2039396240974105 1.479203214096259 -1.0342550429826576
Ni 4.212329394650319 8.561852410202869 1.8157167983131401 -0.07633039643162337 0.16892147769648327 0.3950924239337389
P 6.124036525285821 8.931754898835042 5.485590807681459 0.18427276334157297 0.22460874395645833 0.743607514328571
P 8.60366915869331 6.951755381463443 7.719062735139556 -0.04997273237370103 -0.9089348469158927 0.8534105885963432
P 5.888375670016295 7.288162036482383 11.40890509522096 -0.5283753264910062 -1.072289886268192 -0.9978405089093654
Ni 0.18324093653533893 3.064947187779843 11.529974406684312 -0.4448234726102791 2.117718686479482 0.5512221491821926
Ni 3.838312573384849 5.074983178366722 1.2328533160947466 1.5773185676134578 -0.28090536166565816 -0.5851586540286374
Ni 7.342653881470917 2.1577368421378225 12.74496266318793 1.0790410889490964 -0.16795885667289784 0.37418524146742654
Ni 2.6726095938468215 3.720712769776616 12.84160704524953 -0.1504902675744892 0.14517425467821451 0.43628303923943573
Ni 3.6383799923053672 4.2056043980367015 3.6514028698354695 1.2531587661345385 0.16875127066720613 -0.5687208201875883
Ni 6.506475736000171 5.373567493034724 12.967591415966293 -0.6092100385508863 1.3571750585172047 -1.005048082401398
Ni 7.141079257322541 3.5814343076745527 6.043857776222364 -0.5389435889251556 1.623116856894495 0.2327043764803992
Ni 7.915957536541585 8.784192421700016 4.078866348001238 0.08656287279290899 -0.5811713872461152 -0.09963050461014454
Ni 1.2544471049468138 7.812185949564096 12.831966960940573 -0.5230955661493055 0.5609779430173758 0.26676480849921796
Ni 8.806802801261028 0.5037031688560928 0.17386191862441247 0.412456112023167 -0.934548690829255 0.8561233595418158
Ni 7.474054226826712 0.8234818315622113 9.296056913606957 0.3078932031084117 -0.4367630641996478 0.12476329512203028
Ni 1.0250315483157226 4.047377865914924 9.033787580652492 0.7808437729722101 0.28596657823864946 0.491070933613593
Ni 4.155614334046034 0.803924914112458 7.078894717305068 -1.5101045316608057 -0.9112035883454114 -0.7183587670641112
Ni 7.46301194843645 1.51729392046371 5.377941969569947 1.2787831515708623 -1.5744787841718173 -1.5065584661807603
Ni 6.1575231339379926 5.545585341943001 6.936128297425763 -0.20262735458936068 1.1054956835961993 -0.3311873977496619
Ni 7.486554049064644 6.996939240741223 5.42745233558543 -0.6386764234411194 -1.2972426438276303 0.41701827747255277
Ni 4.59286826338606 7.381712366604057 6.635824450015954 0.2884356086044323 0.6590519017736778 -0.042884715178668084
Ni 5.731274583143985 1.1469301837784769 2.885683131957989 -0.4204550710682436 -0.22433080770472333 0.7818110219814859
Ni 0.9625970118534914 7.681855699691402 4.340932731812357 -0.5165009436509234 -0.708734870821102 -0.8708012732689648
Ni 4.931931707190627 4.18031877976794 10.627010310618763 0.5587405690464249 1.9512760093407941 -0.04466134746311663
Ni 4.079554530096405 9.121087999655199 4.605673431835117 1.1407825318229514 -0.6559519226921154 1.2792492925740033
Ni 5.869252325736418 2.0596109313297917 10.801371299636585 1.917500712662562 0.7741190526538668 1.6281922145348733
Ni 2.92758751757851 8.22536273053438 8.352047275795687 1.0135615191890481 0.6858829059235929 0.8229589569747053
Ni 5.410328962863623 7.5402986722072205 0.06481826640044633 1.3663446408316147 -0.5837576599160527 -0.052604513569593274
Ni 3.4127743445925534 3.0864228971303267 7.827494772445165 -1.9343054429247268 1.2494748895250483 -0.4859338694973438
P 0.15534188679793862 2.892993913598994 4.675248088158721 -0.8563051365353188 1.6597113681890772 -0.0584134069418865
Ni 8.511797771484774 6.652147096117649 0.7775839602982951 0.5224368495193842 0.26018252729601 -0.6404885369491937
P 5.387737033224734 6.381468288659789 1.96161601496883 0.6003425608579274 0.42275543706664614 0.2639129408727197
Ni 4.089028565106261 4.487943556275922 6.177429677411967 -0.014670457527981188 0.7718174011038837 -0.715974840212967
P 2.6143908645895606 1.1564595685547012 9.079638404614997 0.22109995947225147 -0.35511202688605936 -0.4661500020021972
P 3.6063693774229884 1.7397261815714693 3.7569862391653777 0.9734667080506912 0.760589393598548 -1.31457702134102
P 3.4638898538326868 1.6306594669448502 13.033965010801658 0.7126257212350758 0.04410058986364018 0.25197093801949505
Ni 8.35505645809385 7.090904694110651 11.729786140773891 -0.7114417282293037 0.5123308714336339 1.3126011285615717
