# total energy = -381172.72262489726 ev
CRYSTAL
PRIMVEC
9.17853278510008 0.00000000000000 0.00000000000000
0.00000000000000 9.17853278510008 0.00000000000000
0.00000000000000 0.00000000000000 13.43371051130168
PRIMCOORD
 96 1
Ni 7.015501281355415 7.005239681863364 10.760805196714314 -1.5758867202629376 0.8167872809463546 -1.6819899770816196
Ni 8.50023907834394 4.411349643534555 12.539428594611682 0.1423342141262581 -0.43464498941538043 -0.3463335093624809
Ni 1.9578544404744511 7.1041016569339215 1.7062286395488837 0.4746156162710472 -1.211046667455837 0.2651918075851433
Ni 7.537768967131087 2.589989161956608 0.49026306031159816 0.5711502555646873 1.3359120353733702 2.3013216774475396
Ni 3.105345412654001 3.096846091428921 12.248158875505375 4.110226962997186 -1.6536852165996554 0.37712606926330533
Ni 9.008481966244965 0.28819123925869167 7.5468970178420385 -0.8059613939754442 -2.0805338498990684 -0.3208649327777313
Ni 6.917391945961378 2.360222954367596 11.659815851104188 -2.087770991077456 0.3013484600113584 1.273134437925517
Ni 7.747076225464479 1.8077211820742007 3.2070031687668465 -0.3381239769684951 -1.1783954570797188 -0.9408491791259862
Ni 2.246959861584134 1.9328612960944376 10.497490534471101 0.5336463450819584 -0.8487347803872286 -1.9839179637455318
Ni 3.541876425034994 0.4755131583583548 12.224273580015067 -0.20210259243414225 1.2644173697674934 -1.2104761396643475
Ni 1.8557432648491663 8.626609115738 6.683230139090843 -1.6354730644670028 -0.23776970681844856 -2.1735859299607467
Ni 3.5974157260425086 3.4912843531206956 3.5102150766916753 0.4986873125082702 -0.8589698278516755 0.38650005427903755
Ni 3.3858413701469185 5.589955841365315 9.33110922426419 -0.8745201168814488 -2.9357380400607243 1.7698515140812938
Ni 5.63082784721335 4.455994026297826 4.8831803745975515 -0.3663415770532916 -0.3240590142349967 0.5206543036976646
Ni 6.325495911575064 5.718427762734044 8.61569675828174 0.29082030678652493 0.9063848268005293 1.2908639939947961
Ni 1.3127045597081006 3.5195542336533587 6.533015191750093 -0.32521086845125285 -0.09062264468457942 2.8599210929304104
Ni 6.321328857756288 8.972759117208236 3.1359383797979685 -0.9706197255201995 1.0595305297199944 -0.47610685610459297
Ni 8.475851717118198 7.499164058845248 6.445830145904748 -0.019583578558882403 -0.7465421714768626 -0.6279986320122991
Ni 6.582687574693815 8.226929911908515 8.076454294240774 -0.39741464430901235 -0.6769704339253115 -0.7646090562809025
Ni 1.3657381213047655 3.737581097995203 4.430612629987119 -0.3857341226472905 0.889584724524055 -2.473370387919095
Ni 2.0104933251675754 1.4915390896751164 5.140355516357549 -0.424428711004011 -0.511793510872925 -0.20069954143902854
Ni 8.760074158863148 1.79437559561495 5.407256231303395 -0.20857225931888596 1.399930190096544 1.42820692555405
Ni 2.0972855298159074 7.024202530298586 10.75817187569976 -0.2802219624453884 0.03564346023522248 1.9294815391735223
Ni 8.461826919243553 7.175868603649795 8.898798501191289 0.49376647816788505 -0.722889307944613 -1.2730920147233558
P 7.604451006764138 3.4785812639462783 4.541682053469509 -0.2384651902235764 -0.48431690271921113 1.3165698834013326
Ni 5.837519223744208 6.81597833881677 1.7984113964169668 2.470583054981945 0.817539585731347 -0.5440911945643663
P 9.03138240518295 0.7694749410881131 1.6124754357460156 -0.05156655922338216 1.2012782752151634 1.583729099125492
Ni 5.08788092739869 3.7600409673664457 9.791576014065015 -0.03464407243643066 -0.018914063295683552 0.3648444236824749
P 2.9119078372559892 7.379127208973116 4.736954417542351 -1.6755686469363078 -0.02029037481791989 -0.48133647993464845
P 4.64699011201347 1.8940361030252282 10.925327640735038 0.9002979971765012 -0.4205962246317982 0.10871986850592245
P 4.287815772726401 5.095701037208374 11.734709006037408 0.6425801293708997 0.2490979873470742 -0.22076417339938753
Ni 5.964192152715404 3.90890758826231 2.3486965530776875 -0.6742548347663613 -1.4087907258109673 0.06477277350101103
Ni 8.278348051760455 7.651169737904155 2.360114647682438 1.1169023827712443 0.2994730973655165 -0.613406336020421
Ni 8.558229047566462 7.920678991826424 12.050937908952958 -1.4295616398097317 -1.6405327383780974 -0.14820995618074473
Ni 1.1531816624166442 9.08682992086406 11.515537578675296 1.1121923788900845 0.9470614785842851 -0.8053988366037548
Ni 0.5887156728263897 8.468435462744694 0.3402032301724716 2.287885863657608 -0.33153681066928065 1.4196888607807099
Ni 5.413158945644485 0.30276858479829416 9.556714803007276 -1.1913327339666773 -0.6863343916387148 1.1540669076366834
Ni 1.7798367999124376 1.608675523232859 0.11600655618970006 -1.0825239052913744 -0.2245184982354972 -0.18954429615315743
Ni 8.962222161736971 2.3505487809645356 8.142709532106045 -0.6903849075590046 2.1414175727583187 0.47636088109692803
Ni 6.531361220168278 6.816813585287052 13.007565884140151 -0.07315945490280948 -0.3440637394916978 0.6040542053815596
Ni 6.908653982887645 9.217724974849874 0.7473822130224897 1.0268461521130963 -0.784554646164894 1.0477510205865634
Ni 3.3971034296967813 0.8211537512670438 1.5381596105158812 0.689989986113431 0.9730399049259177 -0.4077275961992462
Ni 4.55926169703581 5.684999546857434 3.079919959386621 -2.333683381607697 -1.23381070062523 1.1999909238623077
Ni 3.9972234293289612 7.951720789216511 2.6842031280980283 -0.2679860825008288 -0.25257771836555853 -0.7447408566020658
Ni 1.6234437822513834 2.2236922813405298 2.5902342287781086 -0.5359485108525737 -0.4825428415379238 -0.42933977515238314
Ni 6.542100103357634 8.91509039662813 5.695517227410154 0.536522895298805 -0.4248621989970037 -0.5287504504422377
Ni 0.14880237116738146 6.248956127886142 0.4937279563833775 -1.0312391389744693 -1.4917594534947147 0.08204287343536838
Ni 7.520192077124577 5.285026629983452 3.476550054672941 -0.3880982520040929 3.0837621054829087 0.08295510083699262
Ni 8.758724914564999 5.043300794363902 5.7278926655929014 -2.94435406386451 -1.2873536668486925 -0.9009993941189
Ni 1.2998913281419975 4.044942620526791 9.430062066807888 0.8033571235833779 -0.2182406356465854 0.7649790380258116
Ni 6.369901652489681 6.186074000766248 6.331764849368509 0.25035628523420755 0.7847073696926744 -0.5494156921010732
Ni 8.605709596915638 0.9759441971290712 12.904381738049192 -0.0871269728264951 0.8126267218107618 -2.384356739592848
Ni 0.9858111197175818 6.42821287035462 3.9697153670054575 0.3313182669005713 -0.06319154505682019 -0.3409853576766902
Ni 6.2182080435405505 9.056017586789984 11.911496723225598 -0.05743355952712045 0.6046496728737135 -0.21165681178148066
Ni 4.882447009839577 1.966390475830093 7.9411094876308574 -0.8580827972610318 0.7029779137326667 0.5032314802355269
Ni 0.8791703382342225 3.768870715766582 0.6965166208355051 1.166440341600372 -0.3377642796362312 -0.9626922431430066
P 7.237823698973003 5.080143424382769 1.0816781395875517 1.2345684047268608 0.7680754175629482 -0.9051067314190541
Ni 4.737747442762488 8.580523703350176 0.3146107276110351 0.34956924269095924 -2.0373226046189172 0.9487537786850435
P 4.448265701814545 7.133858459754341 8.777142558161376 3.046427116477876 2.674867742669071 -0.21033783585974097
Ni 6.621081376728921 4.968238754430097 11.45507215919964 -1.0370724578267947 -0.4100269337563842 -1.873771904316044
P 1.0109602991524835 0.4615030461359336 9.344072065912334 -0.6589030349006394 -0.7549751327355642 0.8553391730776237
P 1.942159149659239 4.823851257462784 2.252187953776149 0.33251305853962093 0.21785882682713445 0.9218764946782252
P 5.30911109963206 1.785968059716275 2.4948545889913483 -0.06915059085373253 -0.01911332379068321 1.02651447980529
Ni 3.9189672600362706 0.792252387688716 3.8628634792713674 0.0964780750240919 0.18966179556762822 0.6253527097490197
Ni 6.9102051549038865 2.0154589113260726 9.428892721749492 -0.9481423703532896 0.1220050156506028 -1.557020222375738
Ni 7.807232328390153 9.144516998509445 10.10514589607462 1.2145461959686632 0.5274505006838917 -0.42954314941244087
Ni 1.9445914608089647 1.4970094951288395 7.71481827249953 1.0816530726506468 1.6823010805641352 -0.6470427931279438
Ni -0.06438006364682007 5.912480299818967 10.671927629450066 0.5586150992121541 -0.5420829058850858 0.7921751388246293
Ni 3.4403526754986995 7.109159028418823 6.895926111675099 1.7889077593817966 -1.3563690176761416 -0.3256232733983231
Ni 1.9757892932539394 9.088913447773448 3.0388662185923043 -2.332521242978796 -1.0024893205352865 0.8877885518555808
Ni 2.2304843954944813 5.034058011994944 12.525900355352885 -1.678928050326844 3.005718325904604 -0.32176353333260066
Ni 8.890748928065591 3.814267738206372 2.546064376152351 -0.19573551256553384 -0.1870446696597553 0.272529221786821
Ni 5.548799301005425 1.9473083064705452 4.924032187673777 1.6641107828083535 0.6079219158670821 0.36736564744243183
Ni 3.132229334757952 8.985067529479112 8.680151168042947 0.7631489267956083 -0.9181525088594187 1.1535871397867876
Ni 3.558957674278918 3.498379358851783 1.1924015323893942 -0.4530779993095875 0.2356801712792715 -0.4205864544397854
Ni 4.1491832157246655 0.34219130034239853 6.3235023342855525 0.2009142285529959 -0.06820905287606963 -0.350990291408202
Ni 3.9127442149060285 6.251379260503228 0.39568195286455904 0.7806275431963459 -0.8225843472441059 -0.18384621732711565
Ni 4.349981974300339 7.5659011696741425 10.998715516315219 0.9066342238071742 -0.702676580442164 0.08588075912421983
Ni 3.22530883426501 4.9902488757019565 5.321280916060066 0.3015546624848936 2.418583521986202 -0.43393022273654297
Ni 5.735050085345944 3.9264752997361794 13.227516568923438 -1.2951713631208983 1.4793040013401813 0.5619529053361354
Ni 3.5729365794903614 2.967584816253111 6.1099197154482265 0.6897459884234249 -1.5571320653632537 -0.06553613402959681
Ni 8.912033945258854 2.183802378485025 10.673498994238116 1.0561747258738843 -1.2386659718350024 -1.0803088999179267
Ni 7.891794149606849 4.005603429629715 9.60713156494814 -0.041155905413019445 1.8408813242356101 -0.15839820956765624
Ni 1.3467293802063416 5.969506523114239 6.362084296239789 1.9521830945360956 1.7959075877383974 1.2675785411042944
Ni 6.997722463630816 3.894882790387664 7.112558756908855 0.07428122721207853 -0.6454312256664497 -0.040689764409878315
Ni 1.6742561389490531 6.9680574461368 8.58001704834842 -1.2954626691090723 -0.023204720251237456 -1.0431148073661325
Ni 5.367312175105312 1.7651970403508799 0.40920284929724277 -1.1051298156163483 -0.5315354693865426 -1.3118197703108567
Ni 4.596526539556138 4.708174210594878 7.433127270056823 -0.0291046306754402 -0.3085051256607977 -0.6536536135762421
P 1.0757699181268778 3.160912249259437 11.8750506058168 -0.7335645282702721 1.1707811350675708 1.2154761639821003
Ni 5.020602283144007 7.414492095236866 4.714117310479584 0.10397309784955643 -0.3640820915951536 0.9965966091999353
P 7.191554715932368 7.345157459670718 4.157357616894273 0.8507045025190898 -0.39720304251883853 1.9436310912010268
Ni 0.1517936549549123 8.946637013313444 4.650844177869206 -0.15298937984725908 -1.0437912646078666 -0.37696408976414436
P 0.04655535325901752 4.88965215796235 7.98609898322141 -1.1923043538513272 0.9249921574890716 -1.0573206665528692
P 2.6586629431726423 7.810775241989377 13.023766912103852 -0.7814405260159445 -0.2861290719584427 -0.5194374005714281
P 3.1218025216783722 3.233450192717111 8.349628536246385 0.27900917308420986 1.2148650127606626 0.05867488813338927
Ni 6.890094989888605 1.354136456047205 7.178450524881562 0.7663748899320736 0.3816478683930588 -0.25296749760480947
