# total energy = -381164.4568850021 ev
CRYSTAL
PRIMVEC
9.29814987209201 0.00000000000000 0.00000000000000

0.00000000000000 9.29814987209201 0.00000000000000

0.00000000000000 0.00000000000000 13.60878220919873

PRIMCOORD
 96 1
Ni 8.500563966795257 6.822498946653037 9.841258632564069 0.15872679655166858 0.5990667794692973 -0.25956546253730134
Ni 3.936613543121312 1.9035172625462828 5.853096145990448 -1.0365800915714083 -0.296196997717406 -1.0463117170368754
Ni 6.100571986421411 2.637559712193197 13.128991481644471 -0.2747982203266558 0.20594433477773566 0.03279982013884029
Ni 2.6872118330509402 1.3734204344150494 0.8369199703971626 -0.31097904112258706 -0.5980547932650152 0.23004971246637157
Ni 0.11311013479593113 2.4693096884252452 9.385487496059886 1.384814674611344 -1.8221009583043135 0.6617289343852087
Ni 2.4316707773330837 5.826481121506702 11.591456840569622 -1.5681307304666026 -0.3114834915628313 -0.17206208020799402
Ni 5.078351974650147 8.96747986585751 0.1987832886504712 -0.5570019890887633 -0.0805860863841838 -0.5952970280142199
Ni 6.294280344816422 2.89895860239427 5.342141419209371 -0.9281031923142274 -1.4658967267953398 -2.3103925294005565
Ni 8.95965082357994 0.7664381339690983 10.944223778703993 -0.197581307525021 -1.2950510354929503 -0.05665425815893469
Ni 3.6707887335329197 8.79680302494651 2.7381145550801 -0.7544053762750232 -0.43121873734265087 -0.10801075825403979
Ni 4.913700334921886 8.29189488509311 11.4971215301999 1.317142982295983 -0.9267448785141201 -0.2525815750203005
Ni 9.46839909937234 5.843589717457685 7.418855321309433 -0.8393700513428771 -0.5411760778001001 0.8730903264134576
Ni 1.3686318871787686 6.748839002564078 0.0890530313698565 2.9521835872112576 1.9244033533196663 1.1294866471941578
Ni 7.396241290759223 8.537784461138619 12.39935635508493 0.3806235408936025 -1.1358475564151793 0.7077146570867037
Ni 0.04847776451610763 2.283746509406898 0.9300892927602256 0.20482667623352466 -0.21936189373522222 3.7486743226921053
Ni 3.1043826297557144 3.404945327644581 10.654955543587766 0.13554161668445686 0.00642338702784055 0.324937303074892
Ni 3.57828143944796 1.6256234542924688 3.4846788232961385 -1.7621839702337072 1.6129625420693126 -0.40095633891368365
Ni 3.255644933522337 3.742886588426354 4.549415555635589 -0.7586032164064548 -2.8332147872838176 -0.47824935636889243
Ni 3.508210581248718 8.268826175009204 9.651607057002435 -1.1443923606613968 0.33422592746566954 -0.35161404103512994
Ni 7.242133753100752 0.9228915948658475 3.866581737151958 2.2868381391193844 -0.1108842231470929 0.12449770016546946
Ni 7.195113008685471 1.0220805395216639 0.514408059681183 1.431929625821276 -1.6679972623469532 0.648592911223883
Ni 4.32825161999924 6.202972512078026 10.4812661020854 -0.48531037698073193 -0.5498057284506402 0.4261138120159178
Ni 3.2705963586795 9.280585768060437 7.440316381262946 -0.6060704644806401 0.6282300312968149 0.45847088819038456
Ni 1.7687870694322947 1.6305886663782432 11.36292505089438 0.038415623663720935 -0.2853451426045666 0.21713660394912926
P 5.109900597509758 3.505244471407216 3.5028594959390493 0.4315995177208374 0.1645554874183037 -0.978052784759477
Ni 0.5475503854462278 4.2953082746436255 11.422626612243333 0.8142758273784105 0.13472554854106475 -1.652819011944618
P 3.044325879077782 2.0099624834413095 8.661744607138463 -0.07658930651996487 0.1603566188456077 0.1768672149061212
Ni 5.462430655599733 0.22712126032428084 6.7782899627896995 1.4416481386606204 -0.5593141821617077 0.5960084522589477
P 2.735906244461427 9.008791546189148 13.109394700760618 0.6737645253935042 -1.4602197310152205 -0.5103300389535211
P 1.9752431914407826 6.782107783168762 9.108290119239077 -1.1741101994408036 0.6495784150656038 1.7286938088960615
P 2.9308140642030014 0.08210638352475916 5.1704120277213885 -0.609189469725596 -1.1246681427595921 -0.29159472305870426
Ni 5.553840767987837 5.9460088394142465 3.9792083681492745 -0.4002181751960785 -0.3436060831289889 -0.10712449899434455
Ni 9.033431643618552 2.418885821119714 12.51741217585169 -1.8106934877983203 0.4813061409173453 -2.5921216725190908
Ni 3.640486062769739 3.394754555273778 1.6708180420529832 -1.521151790613903 2.092961277029144 0.1040412320833305
Ni 4.187375349752861 6.647582149354188 13.039132300671923 -0.15135570089857805 0.3472609062727568 0.9859825811295149
Ni 6.888506513313922 4.140521972037099 6.966009382786869 1.1516742390347907 1.0949821856593853 2.0895255118747174
Ni 6.96570905254273 2.7255759998410234 2.370731632222679 -0.9496068707139581 0.5057457620169483 -0.5996884722136963
Ni 0.7927574772836913 9.00223635045793 8.82585323490828 0.47060932332513145 -0.30612119880965344 1.7958823909274166
Ni 4.330390194493113 7.626788919348687 5.585547459396995 -0.9497922472518868 0.4542995304215144 0.29664616943968264
Ni 1.2473561170762326 8.506951795826957 1.90957035817894 1.6130605010997576 -0.3002385147766313 0.38025330203837737
Ni 0.2758231102547465 9.133888855930735 4.58219990262666 0.07958746991634036 0.753832791601005 0.26767575034926155
Ni 3.183612165678716 5.718827141115138 4.916921214072659 1.376621083056958 2.098890240919069 1.191349960357858
Ni 5.3506668929199455 4.599562338071914 12.397709652724648 -1.9702821181296517 1.3292868167473688 -1.0601164841304516
Ni 7.909833902687743 7.632618859381984 3.5369632504113397 0.18588510213401535 -0.024133659823410047 -0.5288376108394054
Ni 8.464273287449233 7.735149559138226 1.0368311246394024 -0.013384905947338238 0.5582307192895418 0.280952927074142
Ni 0.6379516485622214 0.11781778812744334 13.079291940221864 -1.408503790698168 0.3647611199400492 1.4305456009895556
Ni 0.902703451643688 1.176792456928403 7.012401572263952 1.0291184930870407 -0.6384833335937068 -0.13890744783289627
Ni 7.028229812963604 6.290254245877958 -0.056915835616931934 -1.0378527876362449 1.1283520193690826 1.2017199907382723
Ni 7.504462458299162 5.463230296497442 2.4478114358718397 -0.4793886121796582 -0.8519394033674553 -0.5675044312819839
Ni 9.090745440054343 6.937396185873848 12.230961280177395 -0.8987638199201617 -0.3669090195209875 -1.270924574758392
Ni 5.389523861658617 3.6246699096650534 10.233926944459046 1.249628384383777 -0.6831431383949267 -0.29340992189057213
Ni 6.556404490715418 7.965074211679475 5.3416104948458925 -1.9428949843659509 -1.8779702586681075 -2.0158508078983863
Ni 5.456972641565371 4.970539925709036 1.0871945539701073 -0.28855979288712236 0.1474098288769526 1.4705887329543705
Ni 4.562778856777302 4.7391740599219165 8.297328723937541 -1.5449008134043845 -1.8824210953506098 0.9520602173504572
Ni 6.184469193631039 5.853613123128968 9.4215373533216 2.8437480827149733 -0.46774331463124613 0.47111531642727256
Ni 6.583954909086484 0.9450825595922687 11.368177575814332 -0.487260044507935 1.5302591522318096 0.4585403079757393
P 7.448180756510412 2.761476156888167 10.606140256227626 0.7346773017184767 0.4118657867373358 -0.3496602597428688
Ni 7.803742011491703 9.426464442992485 9.097253215220698 -0.6763204590461385 -0.9708714365196891 -0.5808739106103544
P 8.982617254014139 6.93109204019191 5.528159277761416 0.5390492612650845 1.3750578523348964 -0.03473457526770792
Ni 7.698486953793267 5.352182491365602 5.003786390753783 -0.1267957521710268 -0.21456498656721112 -0.18390483847919295
P 4.694645219699495 7.25474204446463 1.554721341485609 0.7527521569423165 -0.7635713590450076 -0.01375463058193115
P 5.139533801474857 5.188293299935157 6.407517864266989 -0.2664902146815927 1.6713432960010506 -2.1464643911536068
P 1.000239185234241 2.7390025284025556 5.014087811109269 0.32699649959676585 -0.7020890833698101 0.41979506888674156
Ni 8.405936694516372 1.7306181637916516 5.679733999367143 -0.28863589754069646 1.0360928675223449 0.6054634270242605
Ni 0.1048031676097312 4.937075883954913 0.08410920502902092 -1.4844104693288114 -0.22234977271895254 0.883516149732472
Ni 8.51089421141566 3.282386412845721 3.794414146133724 0.32420556711519005 0.9158338880285712 1.4377650015561303
Ni 1.62252717035134 8.272127018249746 11.370355202538093 0.6182806333935869 -0.4648377109486769 -1.1294156847469066
Ni 2.612436110965178 3.581582282688503 7.073708924113302 0.4361881655327843 -0.7056454332625007 -0.41547433002420064
Ni 1.2930751204952444 7.830251037065754 6.938111213606799 -0.415919130871103 1.267365910872856 -1.6145746237514387
Ni 1.7197486264727935 7.286625400723281 4.35253745791466 -0.9825388455552885 1.4618256420497597 1.5969864783560301
Ni 2.6253605394281485 6.0182833591571745 7.332779557561046 0.848555574496887 -1.0068100593978273 -1.1669579046667387
Ni 4.998871388677864 2.351316165263306 7.631750412174473 0.62671282332134 1.2355145706902142 2.358531036778996
Ni 1.0063759642166585 4.847367333011935 5.358675389492 -0.40469935089588366 0.732584680855506 -0.27515508944544226
Ni 1.3367299346201702 1.7235422716619244 2.930433769869091 -0.8205675739243933 -1.2671771919008177 0.4596849631031438
Ni 7.050443093249961 6.564949490540936 7.422025990450349 0.4753908038741748 0.3311529449673007 -0.74097033381604
Ni 0.34685074808624705 6.121892644310326 2.772639515746183 0.8020872557320186 0.4897401306173114 -0.5094226966479033
Ni 1.6797851778872916 4.365685971791987 9.118183350810734 -0.5723049379944208 1.2551778534470963 -0.05818097921610625
Ni 0.230987431083204 3.356725121882735 7.250569034756585 -0.8778062438318883 1.2103157028270832 -0.47683962050555945
Ni 5.162946543107778 0.5254440338845641 4.396099290539851 0.7335367603561302 -1.7486185728444468 1.5358101639570259
Ni 8.42085092707364 4.447909512006411 9.338849835423506 -1.0757459631375925 0.9905794564715779 -0.21022933530633475
Ni 6.025508021686475 9.107854036005326 2.3184053634325976 1.0743843069033756 -2.6346024673911206 -0.041786854128799
Ni 5.345720277134117 0.4914648746219169 9.614223845034541 -0.8264248040361186 0.5477545023485663 -1.9342041414601718
Ni 1.2573795227475149 3.9936669913578497 2.9583449564591233 0.8237254028270846 0.10325576006755767 0.09806393145397305
Ni 4.693343478703225 6.9911859834697365 8.024799948218357 0.3625119188945563 1.7286344164130358 -0.8001522434928349
Ni 7.864570508617426 8.923136988634555 6.516647461059325 3.1282051662876316 1.2799915700566666 2.8442864717169467
Ni 1.8480816924051096 3.532134721130174 13.248938546115813 1.1637941622267765 -0.5785262363137844 -0.18868066260128152
Ni 7.659583494304729 4.7995283513989975 12.06244346969021 0.37829874941516783 -2.2838536025697636 -1.8401698999908827
Ni 2.820677477768551 6.569905404476737 2.613199489077991 1.1584781493305016 -1.5562941428429906 -1.7872537687181416
P 1.9578835454405192 5.017356110824904 1.2637292293643225 0.5088624532690591 0.18902004821857124 -0.0022731123048928595
Ni 7.340619757618583 2.2543829517910265 8.262803763271458 -0.3821955133664127 -0.41375734733309383 0.18203693203251872
P 3.80292474280434 2.7120007008799183 12.91439389951931 0.483424987032561 4.115793144231054 1.7158413784134257
Ni 5.038332737164805 1.6908313800556436 1.6955585595020997 0.24493717110116525 -0.30642253210015613 -1.0363697753328152
P 8.839927844522954 0.27525778273636614 2.3598853402787547 -1.4992732453732567 0.7631910928874533 0.009664776783273677
P 7.674460534262105 3.9010481194732094 0.7383121601146811 -0.9362008817206974 0.2514711155649411 -0.5244939891587289
P 6.714370760612832 6.653393493087537 11.391898086211372 -0.3237633373714489 0.803221626446778 -0.6583271077925114
Ni 4.068498502343452 1.065382023947602 11.963439558218864 0.7007824487432447 -2.1769661592868896 -2.249886244485383
