# total energy = -340858.55394575966 ev
CRYSTAL
PRIMVEC
9.38667695467079 0.00000000000000 0.00000000000000
0.00000000000000 9.38667695467079 0.00000000000000
0.00000000000000 0.00000000000000 13.73835054300685
PRIMCOORD
 96 1
Ni 6.116255536376081 5.011490576633386 1.79334906281267 -0.7132127040867975 -0.6630527954029549 -0.637609929849818
Ni 0.598254232127319 7.165451367764328 5.557313646556408 0.931511189554512 0.5773353013294766 1.0350088904295467
Ni 4.329895793322317 4.474685287387749 13.046061885215455 -0.08644203094432855 0.21528823788648083 0.020869387249841477
Ni 1.4948189394117373 3.5294187447056586 2.5210014545860315 -0.03495337614673335 -1.1161778459003937 0.5180562039531852
Ni 2.4731829055022367 2.5724094689878565 12.584095633715961 -0.4107689541287313 0.20167553219905268 -0.45971658767202767
Ni 5.38969856981876 9.048231057854728 2.6719992968767396 -0.4097253433555653 -1.9477553977820454 0.21122075268532658
Ni 1.0776843963469884 1.5404288033769844 8.12203073367155 -0.7957021781412812 0.10913381611488947 0.5560005444074424
Ni 1.1695424183193919 0.19422630627900864 4.274083550031318 -3.316465710632359 -1.9449546951084566 -0.4293924827671895
Ni 0.8421689135658328 6.644021455587033 8.218294861868545 -1.2530500084708163 1.0166555847333394 -0.7418936169612578
Ni 9.286202095361817 1.8089628614790194 12.745810245236784 -0.23547628279858154 0.5805995739030453 0.10005859328649865
Ni 6.727525334952095 1.996658856508672 11.015533081774121 0.6182076140638062 -0.8795849329988656 1.7584067625794622
Ni 7.573846914461173 7.130514155646886 0.8827916359948099 1.1465973387325157 0.4705537874968477 -1.4678366241305303
Ni 7.443447196369958 2.3828642985720854 0.9841367724989432 -0.7232778016322835 -0.5463997880928848 -1.0985683603487468
Ni 8.389596086698218 2.6107634315649304 7.703382119592685 0.44126172340094977 -1.002518631111325 -0.5964897627707404
Ni 8.093652931502435 6.750184773439872 6.56561266454474 -1.9114917874643207 -1.0902572693798902 0.32208852077218725
Ni 4.547957688728091 3.0400537214572148 11.307184648205773 2.0023864548633643 -0.3471578050359892 0.511933378884899
Ni 6.386554289770453 9.068262226758174 5.551626258909455 -1.9756901765191006 -1.1927131592539717 -1.0882986029916224
Ni 0.37401027119211294 8.25332969542769 1.8203723674781465 -0.41030229890495784 0.0038738811331094575 -0.45657212850577494
Ni 7.793739211898892 4.763701074893399 13.788495477397557 0.40445561031619376 -0.5212171181796701 -0.9778463251756256
Ni 2.1809193277245185 0.7911297955735228 6.050149862991588 1.3153218699268445 0.6056261778543699 1.5640699301336676
Ni 6.3599055135207445 5.048248804105687 11.870017315677966 0.27289920353173 -1.0582107824673066 0.38489131503102103
Ni 8.64635925173328 4.923809625964654 10.117553802252706 -0.710786354033492 4.878383884530346 1.5732287138148002
Ni 9.433610472334495 1.4429669351837018 2.0524823638121745 0.26812235096837694 0.08233032276880015 -0.0514284909836211
Ni 1.5069183661767513 5.438246463712208 10.503463563987884 0.984071223039415 0.8514434375676433 -0.6474282014918205
P 4.578849243021078 3.4235651871966875 1.795644105360417 0.4007565641980517 0.9403434431341612 0.0638615745406513
P 3.259279564821764 7.678452043917586 4.132578454278592 0.3152802396011022 0.5914748260546524 -0.005738702255990117
P 4.56800763098571 3.993374033079865 8.457699244966802 -0.6228682527642692 -0.15627139303264057 1.1254520721134682
P 1.6701245206866817 1.5000754785804014 10.384557831989577 -0.5175453257550378 0.09416639617177977 1.0737608143867636
P 4.956916436050149 7.402502510916901 8.755190263214216 -0.2863460730652553 0.3365237223609107 0.12169931148472588
P 1.7226805256962348 8.833604686262762 7.630705772247361 -0.14320196144319208 -1.3884941803454605 -1.7043446906277355
P 2.0185110407669753 2.042634800880308 0.9371104589612828 -1.0893175311744403 -0.548163821971843 -0.4575242080063991
P 7.557439002913271 0.8309133490709311 8.443274738287363 -0.9120175996062744 -1.1602617235934858 0.16160437520977974
Ni 3.4364061614515666 0.3356497379410787 0.3717405726725005 -5.104779802294215 0.2782273006128628 -0.6735004730988401
Ni 8.396288787461177 4.298675705331287 2.309897902904777 -0.584264167238826 -0.9638592668679142 -0.5564314612972739
Ni 1.1222523391555896 8.859896768783168 9.59017930747628 -0.5177163041152633 0.033268018024510446 1.5666004098650053
Ni 3.1445368241114986 4.966162312980746 1.1809716363404013 -0.9133167780336722 -0.15590603927342184 1.3249917889164406
Ni 0.8887549919481176 4.085729548937874 0.2375486370381782 -0.43979362349585543 0.3257549138801809 0.09424635748009576
Ni 7.151962712790453 0.1630090342911053 12.69239535927378 -0.49780131035889097 0.6038063510368117 -1.6763564329449259
Ni 7.5679708546047735 1.5986262013157644 5.396287078466056 0.8058595782902572 2.655436630527652 0.07235341406174635
Ni 9.268282928802925 2.8901015549939872 10.200766694628076 0.8594130860366812 -5.092435678906565 0.4019708962211271
Ni 2.462050306477174 0.04634859545198611 2.53557708676657 0.21265337136679502 0.9517619693837479 -1.0269888483385474
Ni 4.309273263762398 4.916112550753395 5.809165702139604 -0.17174429185725906 -0.0646169646494371 -0.03427254802962485
Ni 0.017392573974317 4.997128960690429 4.264769150357987 0.6012591591349258 0.49026463566221373 0.0856493598397041
Ni 3.0538333634207837 0.49079649150419663 8.996435373689215 2.6492148179876565 0.6362300187831559 -0.004934718297456017
Ni 4.899732799236755 0.7878951466493771 7.327981681524002 -0.6446696649100768 -0.7025457112912546 -2.45275296877906
Ni 6.120366900940144 3.3084282060487724 7.0979602208418076 -0.5513828431297729 -2.0865116647490582 -0.34506055618732834
Ni 5.3205093730112205 8.798676860822406 0.14138119161517904 2.4291962645050424 -1.4245760136696821 0.4510149461329716
Ni 8.134438043445014 7.995552769267243 8.547726864907261 0.05275903686958656 0.9125181933917768 0.6399396064242592
Ni 4.996997547211213 1.350677126065301 1.3852520124471885 1.6293186148298326 3.0180670772779443 1.477184383894017
Ni 7.960568623764366 4.405993584465815 5.933566394904581 0.47630097439326996 -0.7261016442343237 0.35704061136733994
Ni 4.531915857586578 7.959911556368283 6.628204904695607 -0.333127037974536 -1.1603329431510534 0.017514097624363387
Ni 3.0336613943610353 6.21169926899568 8.378511359726296 2.1627199337805205 -0.3801643418689969 0.5837864562714591
Ni 6.715332041416213 2.3856333683127207 3.3165476817289408 -0.3858495651792323 -0.15586670139505412 -1.1539524935460062
Ni 4.266254122673135 5.338015525778289 10.504618125269571 -0.10005113708733092 0.21080963328983696 -0.4561676939785047
Ni 8.3810823705804 0.3089202362684223 10.41500258045323 -0.9609397792282741 0.5458292603013954 -0.5392356662442778
Ni 3.028038774785983 2.767933952707984 7.484159092231261 1.1433299808351536 0.17889504396942738 -0.5167505977678842
P 5.529391098226006 2.0852784748860946 13.198433937031686 0.35737614032988774 0.028209372554680447 -1.3717994932985988
P 4.578248495687516 8.014288576732696 12.091974682074804 0.8339892466469377 -0.2391308488320333 -2.5984692120036734
P 5.544259594731655 7.0223514755745375 1.3298846976501089 -0.08993101793419352 -0.4915442737055858 0.6531144532433203
P 5.429122613583741 1.8708398368358643 5.544413536235881 -0.11794215843513882 -0.18428176220263748 -1.0106942249435817
P 9.442527815567049 7.251208049630246 10.278525927615956 -1.3472894239723763 -1.6171416131476666 1.4629718398390612
P 2.0745776630070285 5.054228117410042 12.429030544243501 1.4760276445817548 -0.41350563633360393 1.5229096538452742
P 2.3492318345697227 1.9656265020593806 4.133883202393671 -0.23901180675566577 1.0693891676816292 -0.012997954921564709
P 8.939204803490385 2.820536891102971 4.084438880838426 -0.6670184649189222 0.44506001410111734 -0.42542372792742866
Ni 6.682769658601756 7.199431138818906 11.588037781316658 -0.09503800014345568 2.136811698555191 1.763585221456608
Ni 4.261851771119378 2.8471293472901587 3.859459943087315 0.5676152458282354 0.555871732139062 0.532750058519934
Ni 1.0540205834109135 3.317317389250067 6.366832881210876 -1.1340603826077693 -0.8609233520336206 -1.7081805194340582
Ni 3.63914899985152 7.610492501808431 1.800259534484046 -1.15043702419358 0.4660062773354813 2.9426321960773967
Ni 2.4666685516039286 7.447980961402931 11.594550257879547 -0.6920098447569373 0.3000960756614961 -0.7934555481989497
Ni 0.19623693251102262 8.847525128382633 12.141047291217408 0.46624487570884865 0.06197849858532551 0.31960843466281086
Ni 5.666924690903265 9.086810300681888 10.24089661650999 0.10928499698077307 -1.964707966475984 0.3158561667092302
Ni 6.653398745996847 3.9757646268648403 9.852293817118582 -2.15655622817197 -1.0126284658518174 -2.264989932896041
Ni 2.995570258742396 3.1465174129768343 9.809416414853331 -1.2999261041970644 0.6239339750246222 -0.06354018664549058
Ni 2.4103203290512676 4.615297710149512 4.362407488080503 -0.7695440316886746 -0.43742718014620796 1.678495847885432
Ni 5.81973040720091 5.492914471066313 7.576233007776663 0.635942569449724 2.255517731739548 -0.2088309122969113
Ni 6.90325331669595 6.929310732289184 3.1170939349802373 0.3337685282132768 0.004635441889482339 1.9613174527371962
Ni 1.3677890383947198 6.9329996963843366 3.452200184317985 1.3129783093953322 0.10523345261921876 0.025579905351633365
Ni 6.700238264660477 4.4243163781394435 4.058665881560924 -1.1641399756019692 2.597968875328487 0.5802979835022264
Ni 7.38397321034736 0.2724830331524939 3.2655376624356003 1.5672002482325331 -0.8666450850087463 -0.3716254511600503
Ni 8.449867940273203 9.152010159727496 6.294678433111584 2.4498213969545612 -0.6211353292335625 1.2241610933506077
Ni 4.031746769011113 5.816454456897582 3.350042161578126 1.3457542182747728 -0.2932775100777659 0.1194655370582007
Ni 3.5014370603096103 6.898766485048412 13.59349383159117 -0.04239620557802375 -1.5522143163466622 -2.5680936850356093
Ni 0.7785938883239678 4.19526268386491 8.705868907128808 2.0521637833968076 0.05649407843198657 -3.3958616333631837
Ni 5.358731922109078 1.5904879522814221 9.200243599938531 0.37907702234208906 2.8078436555088806 0.8608745010735561
Ni 4.1026067943401205 0.7602926840076389 11.9292575734411 0.5042077281058671 -0.061632428099816436 -1.0342370452605285
Ni 4.031127248323377 0.34284462592818754 4.34803648546046 0.10266517767141028 0.3673206531371094 1.6000237225204574
Ni 9.074072579874965 6.595135641318458 12.5179176829179 0.36412837145205673 -0.9661750594852843 -0.3978057090998439
Ni 6.699524877201873 6.365237146106104 9.56725047135611 0.019663539867198394 0.45510351438004853 -0.39642605514349794
P 8.643777915534383 8.181699962577555 4.077391363681581 0.8705205088037523 -0.6288098150596848 0.7298492842022141
P 1.915154339363119 5.125566863270481 6.881072598739606 0.5944742750026084 0.5571755385521501 -1.1949261077448905
P 8.108070867507912 3.557775896185184 11.761745750151409 -0.9460849736036286 0.8481166871872554 2.3112409934437808
P 7.9815103003452395 4.622872758558639 8.018937797893836 -0.6341404832439789 2.104420426708679 1.0330653935499305
P 0.6299614886591586 5.61776666299917 2.022519151883081 0.15469247858129487 -0.665872267129621 -1.1989917931738319
P 6.000564741280039 6.4026430542974 5.4729884329462415 0.1798854329071547 0.07120824471370962 -0.21050804288901812
P 8.363285230823637 -0.07380650326658598 0.5445314631558643 1.0437737811063703 0.7726082724362952 0.9823588683339985
P 1.5720806785140111 8.091203008782752 13.61792078137441 0.4654524617145403 0.2658824058942647 0.6892891033916645
