# total energy = -340857.45332365105 ev
CRYSTAL
PRIMVEC
9.35685958588980 0.00000000000000 0.00000000000000

0.00000000000000 9.35685958588980 0.00000000000000

0.00000000000000 0.00000000000000 13.69470980980629

PRIMCOORD
 96 1
Ni 3.724245304188269 3.1899873382452406 8.958120712241271 2.068847414700076 0.48158587694129323 -0.07809288764868487
Ni 6.304876521832547 7.055175017665564 10.647896561433475 2.2609039357521254 -2.107597024664448 -0.01517439374759322
Ni 9.204688932062355 1.0389950400413281 3.4046009470555716 -0.7340455816717487 -1.4155640399790588 0.19719847026430554
Ni 2.394083509020401 7.143513128570817 5.396317975133175 -2.988900997236949 -1.0220286761197948 1.0162138692102305
Ni 0.5538119310070886 2.883138486531772 11.964958753247105 -0.04675216855387432 0.7781459144250727 -0.055087170782130934
Ni 3.530286962809709 1.0871547960872276 5.6069567900114485 -0.5549091111154766 -1.5133032411037615 1.704213307256194
Ni 7.133772637790987 3.1258741366857885 6.435815478531734 0.03614174002787969 -0.1294892398427899 0.12524434852350688
Ni 0.8316208334561214 0.4439624000222704 7.468930668038917 -1.6490754857417855 1.0211578434790671 2.827600012200201
Ni 2.4797081306594193 4.64877788149218 4.547013612834787 -0.8950809717519359 0.3276133072451584 2.016102776008192
Ni 5.295168452147478 -0.08819401526835621 8.767462535222025 -1.794741335344438 -0.778960439906568 -1.2171561227876844
Ni 7.063961108772442 7.13211647365263 1.4174706515238589 0.01708369495516413 -0.8504332511355741 1.1739047682982169
Ni 3.44236055372416 1.7900233709183664 1.5959265480186329 -1.2780701846642375 -1.6257887472997032 0.2709366804887205
Ni 5.467100746171843 7.734576588773542 3.1801448576964395 0.40056758811569726 -0.6110468346493089 1.084368671809597
Ni 0.9057907876478127 0.6655534189906401 1.2548793103770197 3.8075638979394624 -2.5450224050384427 1.4836980166428189
Ni 6.591654909835418 8.125871097824147 13.132733186806078 -0.41334005729001716 -0.4982443114335806 -1.6277936935448738
Ni 8.80893120101177 7.807747230366495 13.34890471272961 2.459808332963944 -2.6356864444839188 1.999834634975788
Ni 0.04650359190754227 3.6396499370985125 5.783371955440823 0.8599255068967255 -1.6436126628550016 -0.8395078624723219
Ni 3.2574035112218693 1.2709235174280988 7.901518869605894 1.9445248066598897 1.4149279490569568 1.0003987565548447
Ni 6.747717970082077 3.8365931166699307 0.739742086901409 -0.09733425237680011 0.044671374765445644 -0.4954999159192241
Ni 9.121525164482026 7.115180557887509 4.827932735394498 -0.10537229218992819 0.6451702586955793 -0.047946703082607754
Ni 8.879987192348969 6.721743328002532 9.924337163104319 0.9042500398457137 -1.4936954941751632 0.8698430231207536
Ni 5.116789281900922 5.890620279473872 5.284076830850255 0.8523240404003838 -0.9294473650469477 -1.8680190609926668
Ni 5.88617577119297 0.1931892075244756 1.602212486256759 -1.887634264120433 -1.7621112080142425 -2.009137914654585
Ni 3.318728368638777 8.687123603536442 1.9997564417932898 -0.7976248490852909 -0.5344924951323375 -1.0636975166134905
P 8.852665162495846 2.236822770752783 7.725692250641506 -0.8366994464892492 -0.4255633388290864 -0.40459059323216134
P 4.71922567695936 3.813500387328318 4.67603160627067 2.3987932267331527 1.8539628400099164 -0.13650886569373263
P 4.997208616995813 0.05175653285259141 13.132049200373796 -1.949104969831405 1.9521956929415865 -0.46846785150209647
P 7.863719964127243 2.677549568746557 4.197592921591955 0.5261022141861134 -0.6305710207251657 0.41391135641245486
P 6.968100082798041 8.408223691265192 5.018275586247288 0.20056687251590619 -0.4253910749172803 0.5710039597948101
P 8.280390276246914 8.793866657154398 11.707155752177854 -0.5784758426918231 0.22609201337020418 -2.445701461248917
P 1.0258392955298585 8.794989480299046 5.7779898898341395 -0.43293083493775114 -1.4639743129616463 -1.961226435685287
P 1.3032327534153711 5.199485206504314 2.7942548707154105 0.0016707028342035743 -0.9983225907521064 2.0998963135860804
Ni 4.43764970286003 0.4027267200350393 3.76253918753652 0.3085228662726106 0.20830229348695092 -0.7255987364559762
Ni 3.4241895324999256 4.011435394010843 1.881789835158614 -1.2928074908744123 1.5074784068918683 -0.5484307024799845
Ni 9.047811825035826 0.8727255174098101 13.160615692545571 0.7612715072672374 1.1869346048989817 -3.5317670611449623
Ni 7.946715308235874 8.054384690948165 7.035396487972574 3.5597357784437462 -0.38320955645322385 -3.163887193070274
Ni 2.854787202129387 8.699034885729258 7.2176054208283364 0.6118019676477786 -3.288069161767537 -0.6831395388505009
Ni 6.873156029058438 0.7395596281404037 3.5950392378756573 -0.03875706616353971 -0.04983800656804965 0.4683297832623353
Ni 6.762950937411147 1.7959088355682344 13.058755048234932 -0.1743022823924224 -0.831912052402935 -0.10855248969012272
Ni 0.5986247383959803 3.1881346800565704 3.166710278770715 0.21845763675339797 1.0090073241594621 0.4846670869697782
Ni 8.12063125648245 9.561400488257775 1.3435327474487282 -2.599508194791149 -2.0649439658806115 1.430955949054097
Ni 3.9068818455249525 3.2105069312136996 6.46687463808463 -0.5093432495602196 0.42296960995998123 0.8862674872253639
Ni 4.61845229972712 2.796840171005965 13.517925152065517 0.8010896677054397 0.4701519240727387 -0.9435236406343556
Ni 8.982098600495249 4.149514570224043 8.730254047580269 0.33885417026630027 2.289560423146553 -0.06917938720913892
Ni 2.712291588213902 5.2155228637537165 9.052778446078989 -0.6234575496088359 0.8191326412500796 0.2882936837099293
Ni 1.5777536554224902 5.546549840515291 12.337577906344338 0.4476331741449323 -0.44192866756098725 -0.08995955717928378
Ni 2.432203354781232 8.865381134608995 12.089689433642338 -0.776257182042792 -0.15073966458113394 -1.2283381075464328
Ni 1.1469357716802433 6.039235279527693 1.0145727009592604 -0.17961186753079392 -0.18547244007662897 -3.647205479321641
Ni 0.07580459755310939 0.9272451308841918 10.689857398034958 1.1897751596715704 -0.7077036013431102 -0.6177214184560071
Ni 2.5094629439926157 1.4767089292636273 13.053728543290719 0.2157114414668285 0.9994762447405754 -0.08588898665433595
Ni 8.184884810934985 4.9461014501952105 2.2058749578283976 1.5023128035305287 0.36747389088552196 -0.3485120050710385
Ni 5.60927822686301 4.973919393603888 9.817696099255336 -0.31109268388231587 0.03093577034690801 -1.3238677026143266
Ni 7.233657113367047 4.6390748181505055 4.235280480442096 -0.061946359795809446 0.5397835683279478 1.7276787373679858
Ni 5.560538345525709 2.247601872941413 2.1610256586873047 0.3232411463193917 2.3575661017625658 0.8586646379064309
Ni 5.672970369743219 4.769238091193929 7.237530853216085 0.7840080296328045 -0.20714606839532068 1.3995342402097057
Ni 8.812561662512802 5.5263015964734565 6.487088261746172 -1.668762936868384 1.6321681684634857 1.612492030190797
P 2.188363595201644 0.38750778799527724 9.463920725583172 -0.8023122272586312 1.5365987212965924 1.0883798498515191
P 2.758692254666518 3.817767115277984 13.314872878901253 -0.9761077452179641 0.08338678905777253 0.19853415835659355
P 6.869881128219878 5.758211360141149 12.95870121350122 1.593340911183643 1.305127703002662 1.5216030192187084
P 3.195741806861567 6.228197057912566 11.043660842285737 0.5054266881146328 -0.19231157448564948 0.573395085734806
P 1.6352422004285145 8.103031003690079 0.2776573213245052 0.31623489020488765 -0.06409040272200575 0.23346799411930116
P 7.389757601051862 5.934990507406581 8.558645500895944 -0.6756545433273654 0.30610654352163413 -0.9124356609802996
P 5.505800717224075 2.347074646697767 7.9733889077229625 -0.2847789856884515 -0.15807425056933422 -0.5832979466708148
P 4.584206193815328 6.768602480572547 1.472304655478742 0.03609571728129267 -0.7848762911703708 0.17944963092131674
Ni 4.511727959828241 8.149497168159467 11.056834364830332 -1.8030035753532303 0.5815233712688953 0.32819206256676386
Ni 7.920974587644798 8.511252071646268 9.06170769713681 0.7004425489053228 0.188769622770662 2.269816407750407
Ni 8.802980238345132 4.836644907311019 13.256519760073852 0.014754018380722978 0.12258814184758243 0.19802482282034284
Ni 6.540547743034815 -0.06214826105631705 10.595788210662228 0.15074892055251454 2.475485634489885 2.177336141031798
Ni 5.971388691012283 7.3384913676391 7.079631041441972 -1.8343995731660083 -0.07799621416982053 0.0055168160531711445
Ni 1.0178111100456189 6.795101106786261 7.803902496782026 0.1640880608635819 0.0882322900755319 -0.4914465717854568
Ni 8.168903294842815 0.9595927299955729 5.689439378217358 1.8555705508166689 0.08385190161964913 -0.008025184297321662
Ni 4.157449187112896 1.1717033788792903 10.432423992917487 -0.6219853359386837 0.8817713991272232 0.6851449993163039
Ni 3.685283341068952 7.192028445279188 13.150796604145619 -0.2574718132330663 0.3322654613051891 1.211056951868482
Ni 7.07416008566967 0.7892174173984554 7.775678465669367 1.1111942766428733 1.9789791316830176 0.5760281524822789
Ni 1.3278880782999534 1.6742696615646029 5.317259061832492 -0.1057247904333405 -0.7478899437540087 -0.65087039440415
Ni 2.767796478997713 3.441902067606762 10.962888688003511 -0.025155416219705063 0.3997335222501761 1.7145859087397697
Ni 7.912618912076702 2.373002504479618 9.734035482433498 -1.0280152327205327 -0.45390975118226345 0.38382482143971963
Ni 3.8928746267954573 6.2847779875433325 7.1464474397221665 -1.8819187017928944 -0.05441457019513855 1.290031985011804
Ni 7.159438503505754 4.045840566534793 11.598036056237058 1.1279025905364897 -0.008368683679669458 -0.07693563411579007
Ni 3.1000211337802472 6.520495993043293 3.3601614783622753 3.1174954931796117 -0.6471561787773564 -1.9670803233629024
Ni 1.0877068508000134 2.7820001917775214 0.7904815291221393 0.2149192845828363 2.833062320866353 -0.6667796094352387
Ni 5.86484213144464 1.045067641881971 5.843299833728598 -1.484302225885721 -0.20912273250571725 -0.442909800527334
Ni 1.1642646755459913 7.4032689062258035 2.7687143869184636 -0.7764173617697403 1.832487186634644 0.6481720216363805
Ni 4.95806887354526 5.367571831258256 12.34920474000718 -0.984221375464034 -0.280931072697271 -0.6884797201164917
Ni 3.259817580982864 2.633394548583239 4.008372893883814 -0.689807952009612 -1.5629219325721535 -1.8429433489709615
Ni 1.5719524025084712 2.758767109542828 7.62198269088601 0.3245241267968733 1.8421776744495306 -0.09073808721652114
Ni 5.3224811251410635 4.839030906493398 2.9644393033779375 0.517773896826076 1.217830780257206 -1.6241643243224027
Ni 1.960383712540222 7.740780186647726 9.829665393977292 -0.7597833527574851 -1.3874652248603137 0.6683466968120425
P 9.435270021675548 4.749326694095489 10.908959492366023 -0.5364560466166116 -0.6462886885707386 0.27569116445457037
P 8.541287590765625 8.163382747714959 2.9800231529397103 -1.0339387972938192 0.09788189735015401 -0.2847075090205678
P 3.910109962065818 7.543612442447378 8.973554852050425 1.1383160725603299 -0.35269801812792806 -1.383863109331352
P 4.285189033535786 7.805183450852879 5.172519672999617 0.7465941077607207 2.167443050287803 -0.09149527709751984
P 1.9325657691315452 1.1773923494788447 3.0864181313828256 1.381431617071724 -0.25272529968701635 0.409162785983876
P 1.948893489026648 4.923186501184834 6.881495797965317 -0.43462827724483205 0.10783746590096913 -0.3560257969495804
P 8.390258520950809 2.2515691813858387 1.1471238445569718 -1.052375406732452 1.842933578778949 -0.4469104370462948
P 5.162628536781214 3.4980525816987464 11.271841897427244 -1.4939448911818078 -2.6599874831231287 -0.18872411424470723
