# total energy = -340861.379455858 ev
CRYSTAL
PRIMVEC
9.31474364233449 0.00000000000000 0.00000000000000

0.00000000000000 9.31474364233449 0.00000000000000

0.00000000000000 0.00000000000000 13.63306886927608

PRIMCOORD
 96 1
Ni 0.9441330745658547 2.146713019038715 13.236400314728638 -2.274701246646534 -0.8105464422429655 -0.33755242073574127
Ni 7.947646440977594 4.440030784183765 12.34051761088715 1.4493948724855747 -1.8759989938743495 1.882723971303009
Ni 0.7060398504252223 3.316328086678847 10.820579701980979 0.9431060934809627 -1.6884097645650342 1.0610739629477144
Ni 1.481305010724837 6.781608234796566 1.0162161477101765 -0.9126876290901055 0.8634836565616291 -0.06543508967535827
Ni 1.3216130501652714 4.575262228619356 3.5118650427251903 -2.7414438879274075 0.937477691550592 -0.17836771071104762
Ni 5.1939567988670765 6.02449657787624 6.5080174550973435 1.0398471923584542 0.507500539924526 0.8923946831690244
Ni 2.9993380546091677 4.156266441761542 5.06577568369814 -0.410058558325268 -0.12897116255579077 0.668973531762764
Ni 7.537946768016095 7.260060028668596 6.995918124657174 -0.726224542965433 -1.1254155624485778 1.8622983564588058
Ni 0.3578640575089832 2.312412989080369 3.34468216553695 -0.9685134778104738 -1.2366646251342572 0.8686268913254654
Ni 4.1407387645419425 6.930849053280313 4.576225373085167 0.320586482305364 0.5597754380688424 0.9286868327318393
Ni 4.835013162599993 8.166701261117543 7.35613136044737 -0.6109259928007285 0.5483882792778233 0.743811402809261
Ni 6.098790971099707 5.99887171882938 13.074971154528127 1.997856942424127 0.11128197280614383 0.8531797035324598
Ni 5.364723989309127 4.27106133921465 4.1269752997191 -0.5907060662094278 0.6718577952890945 0.16004294425993082
Ni 9.012098055822724 6.828917816439241 12.63302849734609 0.6020384605031115 -0.7971633360678401 1.1346157408906072
Ni 5.438915920355378 0.9860028460728104 8.682928996779665 -0.608593745123126 -0.7426495212906759 -1.5359952833846386
Ni 3.391404918346492 6.611362669983968 2.441995973128459 -0.5256275885425399 -0.4926763304275 -0.27429736943083727
Ni 6.874960592981818 3.431067095671657 0.5818864302951312 0.5335201039167392 0.2397926507857483 -0.5221499144065846
Ni 6.340545820864228 3.5920165465879386 8.657107596647421 1.0881823891287326 0.08437152156854502 -0.16339257745845406
Ni 9.31511597281778 3.8436077653649954 1.5741282914859303 1.300863014189037 -1.1279666110052058 -0.3611024401415394
Ni 8.407580525004056 1.7775417945370082 5.516334478509529 -0.7016810492981141 0.12494095835047514 -2.0502650237121984
Ni 6.46916379749783 5.158551459267979 2.049936561185842 -0.3869212009768562 -0.6711085758278958 0.5898935976104615
Ni 6.836993698952374 8.401628403982267 0.707377447575033 -0.0653157904886746 -0.271307690674894 0.11388752874979095
Ni 2.9521029909135565 2.0166419424373516 3.994693834512931 -0.28324840797653794 0.07962449380186287 -0.3673517634853609
Ni 3.2066562980864344 0.7176916629231203 7.639740146655097 -0.37877440350000574 -1.036121406767435 -0.4699724610720809
P 2.2891727043395784 6.259013872032107 9.783839448700519 -0.16241658669842995 -0.5103966305253984 -0.5788170280813256
P 6.3062955094446345 7.566189069953601 11.52955462804621 0.7729569140249656 0.476998771791243 -0.2081331148989383
P 0.1471347550048322 6.387436239054665 3.0294721809277783 0.6333598963242124 0.2965872911772892 -1.3240430518499262
P 7.044321257173023 1.51126122544483 7.281271562300551 -1.063693917069065 0.03752267953580635 -1.5757041719384863
P 8.211020810134249 5.285027044923473 7.770235975554728 -0.4448491836418919 -0.4024375514449004 0.49271026898922893
P 2.4569498621556596 8.970964149043033 11.939541195103908 0.78650611346431 -0.263201773738308 0.49456814813357397
P 6.018218440836042 1.9221811297895126 12.805336346343703 0.12697804338516197 -0.5704473159603918 0.2905732237727254
P 4.791690291125277 4.7258350554068835 11.916870041183824 -0.825287862218198 0.7285207951987775 0.6061787079237302
Ni 7.451617726341687 1.5319865294721886 9.376497337289278 1.9187088740380502 -0.4456595953583292 2.1072730656661256
Ni 3.1678976508694277 1.4684506648561833 13.436861044127278 3.5929788567675924 -0.1586218955426881 -1.0921817400961127
Ni 2.764392282257679 5.433923217902047 6.99492331006386 0.8258025970710875 0.4883481353657912 0.10282304340551324
Ni 0.8494375303847619 0.8394223182992716 11.066179677814038 -0.7673429102722977 -0.16635834495499738 0.45234343513640807
Ni 0.20356067599653077 7.175081624784735 8.494219747633121 -0.09786364251770888 -3.1370500182727716 -2.991113431507236
Ni 8.330072545313428 8.554781414686909 11.565872812496849 -3.0924092396349456 2.5046907952989317 -0.8240964130132581
Ni 1.8295366921013745 0.21097707467814103 0.8894499420611308 -1.4967859601750284 -3.489970693934467 -0.10817093798098788
Ni 2.4936685805717707 4.748963563227078 1.0971733768755612 -1.923904816416693 -0.35076146322684754 0.6201624237973319
Ni 0.7752893786324105 7.792863350180912 10.51050959277059 2.148826977848512 -0.3286165516986921 1.734722788698961
Ni 4.219466975615756 7.166586578819364 10.97339272455214 -0.03995005803037636 -0.6563309032980891 -1.9197465712739454
Ni 4.550019274051203 4.012009010987743 0.918320989176995 1.008351435743018 -0.7705650167540213 -0.1457884912234457
Ni 7.473954480974318 7.228334012705817 2.9138091493913665 -1.2429378597374787 0.4241680011434566 0.3234342361668043
Ni 2.2591419716725203 6.354471362221936 11.939719106702526 -1.2548058148196584 -0.11799846559437098 1.1611793503117485
Ni 1.4304185676230574 0.18937059592674296 8.910968818386937 0.005633287026377396 0.7640256729736067 -0.5347894575474661
Ni 5.890932472506221 1.5986335183781435 1.6879097448589588 -0.8305596521400986 -0.710246422369622 -0.3985572425538878
Ni 4.663156147182122 5.162920073914646 8.875400470778635 -1.8349788427082463 -1.0533066602974699 -0.18893982979993912
Ni 5.781875456977092 0.335719186590043 10.904750517613527 0.35361693039777164 0.43885182840787645 0.4349126412544703
Ni 8.109508736745417 1.8294249151807775 11.748555422674539 -1.146263866652497 0.46160686271620505 0.8534730664031623
Ni 2.7132636558279395 8.714249821405279 3.596498801103878 -0.5640923202766414 0.6975989088089405 -0.11570709845703298
Ni 5.297043063887649 9.118081206035436 3.324069569904527 -1.297793631235094 -1.7183613166218017 -0.7854956699219245
Ni 4.647945171237549 8.579167412863818 12.705160938630343 -0.4295086966300797 1.0193519006185798 2.232584262871826
Ni 5.7678101944686375 1.810488041882971 4.391484204619816 -0.023863179770842773 0.6724283230805839 0.41404942465221595
Ni 0.02618653807285971 5.425092841174885 10.696655424538111 0.731658826607127 1.9635512271637217 -0.5584556908161543
Ni 2.5803050087778208 7.4781833744702375 7.961043836385481 0.8376468980041832 1.1470922760910631 1.5414555351682613
P 0.37200476943884064 -0.012946561828146306 3.7961146832776733 0.15193239933765446 1.0862913427536065 1.6132793019787828
P 3.209487980074891 4.134646922369407 3.053888917757852 3.8367063238313732 -0.5895950925334362 -3.002637372986435
P 6.988358278927464 3.0418598581529395 3.0506986181491462 0.5380110498085573 0.09533959054427452 -0.3580292005328543
P 8.70110671849175 8.878403544045343 9.139731464080736 -1.6486383982043673 1.9902359355437593 2.1598027601337253
P 3.9154244368485616 8.904456881287825 9.377479111241856 0.30472431846212683 -0.5566710881119058 0.11649694134818002
P 3.912527551656423 0.3224251848337077 1.5570189708398845 0.4252625197592159 0.15132099100590068 0.6069268989436644
P 4.496571276519076 4.102343392316877 6.490322237092502 1.1190621094267243 -0.27731250210807723 1.7374247610111562
P 0.7763056171355048 4.887604203740877 12.9713194845842 -0.24771756205977982 0.13754656292962764 0.6321566200447306
Ni 0.45980740351645255 5.6071215563670815 6.2878439342770855 -0.17562408652763947 -0.8245335005506768 -0.6218161573506711
Ni 6.913318706233352 4.010788779604559 6.0965852398665925 -0.2089036745163757 -0.004831359950372325 0.803467938129629
Ni 1.3729279714626725 0.7623838016751499 6.026498316229264 0.5510023198619026 -0.3141350702530655 -1.269135344068453
Ni 8.41671828826286 5.605547364735341 0.8697734781387074 -0.7052422842868112 2.2472238671618716 -0.057881702808132575
Ni 4.296034166224693 2.031582790823816 6.273297099535726 2.040685864664195 2.5490492668096487 0.8421005629001626
Ni 9.184169310338406 8.666269578239023 1.8558424588895377 -0.6665415252825037 -1.5000350632399457 0.5801565728283556
Ni 2.05891224790978 3.06497905122975 7.05526328622513 -0.1804536467057989 -0.6518391860753227 -0.9997724358247557
Ni 2.094597029810369 2.189700559751641 1.7236699761809509 0.4648073719313737 2.3514679592846277 1.0110117561840009
Ni 8.179611495446496 4.891879670953712 4.11471896037564 -0.4819861977035054 -0.4461195657138833 0.040730130729510504
Ni 2.510882226343707 3.5618647222569004 12.760129102282587 1.3040696940517928 2.8054525295688846 0.5615674969722586
Ni 1.1605611370717754 4.740375369827876 8.55525460365077 -0.7151325468173296 -0.22276012078349378 0.8154490217509054
Ni 2.8174397458243337 1.972722927386118 11.225836242348747 1.0673646810524327 -1.443402916568198 -1.764363751493845
Ni 3.9828818084288446 6.3032309588716 -0.032442319728937886 -1.163721657117628 0.15466548199810137 0.6681142690862623
Ni 5.207211678701203 2.891147310214665 11.04208988847671 0.16567725972757272 -0.70332038467375 -0.8020528029496573
Ni 6.231675100202761 8.586535374879837 5.622168592828113 0.0320526575601706 1.0327038964454538 -1.5155727538642285
Ni 5.958846266512276 6.855772221612669 8.949918417843294 1.2299851562315527 1.707216869969208 0.4887703105048743
Ni 8.719009655274034 9.34669295288643 7.08032087739996 -0.28931852543001785 -0.8983455014358205 -0.07741720173789893
Ni 8.445221403015092 1.749616193874527 1.14202014036775 -0.49667439584329953 -1.431915998974521 0.39955405924951837
Ni 8.91163854843618 2.416672911767211 7.632104851503984 1.9683090535636814 1.836148437536315 1.381819596538762
Ni 7.496356438810632 0.5402933066666531 3.5074479914129326 1.7745229514150342 -0.13765429215208552 -0.6828248358235596
Ni 8.741160115039005 7.395459138485083 5.028407727668228 1.3884563851289895 1.2846578651840843 -1.2109978164957724
Ni 3.9637679550067593 2.6590611640817827 8.841262867753978 -1.072563708754869 1.454746109495159 -0.28249893140502313
Ni 6.9717873504489605 5.560035528565599 10.795686050289692 -2.0926810267845637 0.7487967718389943 -1.766790101547151
Ni 2.976172287815442 4.25136065695943 10.574298818406618 0.6698567056986658 1.3187926020842642 -1.1111063449147576
P 8.986799212794272 9.316420036891412 13.517323660419022 0.006197387059963521 0.4938595521023236 -1.2693333190118719
P 5.378295570418278 6.957684828966973 1.8837624707059892 0.46595536949288785 1.061170893536895 -0.7615831249703852
P 3.6290705957658402 0.4561029300730006 5.294634271248785 -0.06347770883867132 -3.284235904064376 -1.0330952183466016
P 1.7320020141371182 2.5523514638851896 9.106889541860664 0.44910847313887814 -0.8849986478152694 0.09132815539203626
P 1.7692703024128311 7.438931045853928 6.052905613720304 -0.3346583870173978 -0.16062812733943949 -1.4507071635390951
P 0.6663460029725548 3.365966354167293 5.252589382566227 -0.16187511237266317 0.22330725153621542 1.1063917130479075
P 6.729781002613095 6.44577447686291 5.122066540910784 0.007750590479696329 -0.2929368389088955 -1.3647191894130497
P 8.061910398057867 3.5974936156971906 10.181434612635703 -1.5499800276995046 -0.09923198362014524 -0.20124590086080177
