# total energy = -340859.7232476324 ev
CRYSTAL
PRIMVEC
9.36444610493348 0.00000000000000 0.00000000000000

0.00000000000000 9.36444610493348 0.00000000000000

0.00000000000000 0.00000000000000 13.70581344728847

PRIMCOORD
 96 1
Ni 6.748684535851264 2.48523027701901 5.232441226832441 1.836432544435637 1.944011871579213 -0.507336760653152
Ni 2.9011521382564314 0.1271710471682187 3.457332796144576 0.8035147322071646 -1.0113786526051163 1.5834521913150212
Ni 1.4906137572453066 8.497878735612588 5.382684395619861 0.4270833750180387 0.9084879891864612 0.8746715548576484
Ni 6.4666742498856 7.898404371794626 9.524937441496187 1.8620646431814447 4.429870621773306 -1.7586512744901
Ni 0.48859557949294646 7.309212169490538 1.5512241963913855 -1.5879012282253104 -0.27301027518829757 -0.30734555813505776
Ni 5.920015360510485 0.9103299522528282 6.449421194900937 -0.3797370245235912 -1.9155636435408496 1.7165458606796178
Ni 1.9708693612881116 9.01752119878777 11.30434883503981 0.26379261324477155 0.44505847143922056 0.4814868894695837
Ni 6.955657517435627 7.7537236838261885 6.906030636795579 -0.6919010870932149 0.17053253093734502 0.5801138925158784
Ni 7.040967618884977 1.9716840680747296 2.6115744436210404 -0.5643741131831183 0.3733450049543183 -0.16407391979619487
Ni 6.536167802339566 4.587763746581311 6.4541905071586925 -1.6720817168289719 1.4951558807707734 0.2322814300103677
Ni 0.16097201436705857 3.9434524161618687 1.2326626054886083 -1.7883380029212554 0.7181607921206922 -0.8841884932091482
Ni 8.865171029690133 1.4012582152003337 4.225598486591968 -0.44284038074197923 -0.567134706647391 -2.1566603578500017
Ni 0.7299585519184288 1.962984497904977 12.338315692607182 0.09554605012812577 0.33431231653188875 -0.7262481971145169
Ni 4.029867522218357 5.035833750329778 11.056712620357366 -2.089392071620647 0.6798500694659517 -1.3109731060398453
Ni 6.889085672078499 0.954546056096231 12.051836693094687 -0.23309518416091468 0.0831960132032051 1.5258869913060429
Ni 9.09548021026591 0.2382764510821557 10.79749445908079 -0.7205179794989591 0.02727966165155947 -0.9472280860691364
Ni 9.040642015525252 2.657723369082351 8.825021904667746 1.5502618206059817 -2.006148750119274 1.4792615781380203
Ni 3.3230016936999385 9.057554204681951 9.138323486351632 -1.7177648206883833 0.6519821394110901 1.3948808005980944
Ni 6.052943668970808 4.596397765630302 11.692881565133536 2.9631102614260905 -0.13906402801541856 0.17713383830394655
Ni 8.760242414241178 0.07203693593954721 13.464220806377565 0.007934424355728272 1.2923547196077099 1.0075381958131036
Ni 2.720408969422851 7.367140631352852 1.2708292773302237 -0.0020856788844351173 1.4514723238398939 -1.0688397229360624
Ni 3.26210470251167 6.624942748743501 4.894291088156694 0.8634733721489839 0.4815514241589319 0.5802907844133749
Ni 4.506208787907064 8.439950273750274 5.8094006535576845 -0.5286478634261025 1.612911634226719 -1.0846203828090868
Ni 8.198394393740834 6.756475754776166 4.981460032101951 0.6245664664022986 -0.6018991067117698 1.1788497710083183
P 2.4035910383323538 3.7777204539828775 12.987902951803417 -1.8877733608014584 0.7010182189031346 0.3889024930729431
P 6.68929522044053 0.5952509987516988 0.562688011290686 0.5243826603918453 1.6047578947713332 -2.066540363833454
P 4.434018275056016 7.908639711079384 3.42761847310298 0.6276075672214675 -0.7439427861808026 0.7897793848989431
P 5.092835132055596 0.25364350667802665 8.347223531208948 2.404818606991626 0.9369912388324767 -0.32480437704145354
P 1.4011832996337483 5.226222298361255 2.2643651400559297 1.638953052595803 1.0720304619592183 0.5593283232290948
P 1.620601629717144 8.834202807352812 13.591492989560674 0.45355339628410923 -0.5897239048018167 -0.15256257672248563
P 7.6967503954378405 3.061892850811657 7.356156136402239 -1.496450945433113 -0.3833478818033011 -1.0373182552890134
P 8.369548370051458 8.676449353015187 8.703889988610909 1.0035216184545426 -0.06721917815897456 -0.16777733678971105
Ni 3.5300776841883574 2.5984089692382035 4.864316433521215 0.84439064448592 -0.3947090724523911 0.22252512195455224
Ni 1.9354342982931232 1.9312015687810369 10.293682591569727 -0.74794830779577 -2.7854861137492866 -1.9194668352499973
Ni 3.9486028613646282 5.308367217122364 13.493495936910053 -0.4414776960664977 0.9047421489907836 -1.0727028054358945
Ni 7.130229516471719 7.846553435271569 11.86712299923207 -2.6660959100137114 -0.26816605972211877 -0.8139906920378239
Ni 0.8148200964128482 4.634548517914018 8.241250780050708 0.4994036218490044 -0.16932154134837935 -0.49980265705963595
Ni 7.863194055499395 9.265126510798998 2.30043885825606 1.0555095814860596 -1.6495215721402687 -0.1287904140035524
Ni 4.809279712529104 2.1145855113367595 1.9914683327654041 -0.13210328042686928 1.0445291712151559 -0.3437156121236597
Ni 1.862513358667866 2.459983731079663 1.960438305085649 0.7001317025331233 0.14733655243685592 -0.13584912062254667
Ni 5.359749931354262 3.055974521051395 13.188185973291684 -1.026312133986497 -0.8741118256994366 1.1059592534961793
Ni 5.456793683420081 9.263600106129816 1.9991022290004767 -0.9094801778964015 -1.571964759500712 1.3251236865086147
Ni 7.606636333281188 3.2333745827260927 13.3067819974196 1.3991832846281902 -1.412723228096154 -0.43253925592628734
Ni 4.52255911031437 0.6442083215153878 13.173466000902197 1.0205343509624554 -0.8736464560272438 -0.5597872651433843
Ni 5.911137865870092 6.597916958097746 4.660223019027485 -1.404854881091671 -0.6919877332697502 1.353757033974591
Ni 3.5634806624397113 2.796457633953057 11.585866551155174 -0.8067502084253266 2.7936912752678986 2.112634329978039
Ni 6.98612942414432 4.400671483479601 1.5079407913519736 -0.856765364001189 0.43730942362142106 0.48753258144303135
Ni 1.3120712331801783 7.521897463027052 9.054717714042104 1.4378986989205174 1.170221920129991 -0.10642258783131349
Ni 1.1160265598714894 3.942918642749946 10.836528278605632 -0.5292620999713337 1.1075903613416989 0.3932044628824067
Ni 8.609221996450435 5.595481126061672 2.9677333480593826 -0.1186507544663892 0.11607013822340655 -0.7539754878264564
Ni 6.605427243647953 9.068763446332321 4.535267599741035 -0.041946776745430986 -0.6020068359342277 -1.2196102407551317
Ni 9.180237809411691 7.666194208716739 12.24125133876055 3.8443286162633212 -2.2767799835524336 0.7350848215695405
Ni 5.066942439354448 2.7065683184961618 10.029584617574677 1.2871916873495315 -0.7520098794596533 -0.573069069853955
Ni 1.2064777420777768 6.763021502406583 3.877168995736095 -0.18473350502807537 -1.3376040783638126 -0.0032074511937041535
Ni 1.2913570790192601 5.6661358697977136 13.450021497175847 -0.2283939220305034 -0.45129776748071304 0.53101430677575
Ni 4.224601173111798 6.121407132384221 2.193752536326091 0.8525641814356478 -1.4654506403968568 0.8634857134441581
P 7.842845114725581 3.6983005889563194 3.488280416701087 -0.6466553278815379 -0.3254605225682137 -0.9182162722178185
P 3.951337279545003 0.9550891939539765 11.07231004132049 0.07414752984769166 -3.110428559030501 -1.3171977467933187
P 8.243090893654966 6.473369828649187 0.430189530893649 -0.3222540998157741 -0.9353750433852922 -0.8665381271172367
P 2.700865370989833 8.003435996147637 7.329636025830936 0.13454300021661345 -0.08647288418226398 -0.8027889097847336
P 4.605022420233469 4.137998778138845 1.2949858017757503 1.6101057893468078 -1.0781268046649433 1.1843827850114053
P 9.112589052784896 8.334366147093696 3.8312822747578337 -0.18157361924285503 0.8996554784964957 -0.28223565044130744
P 5.308929083871756 1.469019345177008 4.321031553976198 -2.0866425338999677 -1.0713768875356193 -2.0381173326060704
P 6.10583405898024 6.122418492533127 10.198906908282284 1.8365248470391276 -3.499762226103592 1.9312548290238611
Ni 8.52668377096475 9.003268512244862 5.918553570517483 0.43310052774639607 -0.6593918016115998 0.15062653604203738
Ni 2.9248535506349502 0.942035156476436 6.334086807253243 -0.6078028737907146 -0.3338716294500444 0.7984558296270184
Ni 9.195820247261496 6.3963004395242535 10.255676051751687 -1.2241243265754014 -1.0187152954758456 0.23564546138659417
Ni 2.725980814687655 6.922095343605279 12.122914709781938 0.9045984243240679 0.6357240256810148 -0.20655805710233457
Ni 3.0776532131321024 3.529703106355429 9.040710375979762 -0.49402590247685885 0.8893754367267265 -0.45146154675208705
Ni 9.025640173316486 6.727099488228788 7.659027598328245 -0.811001784612829 -0.5270617498859052 -0.9914610877455826
Ni 4.83341188941549 2.7097522300760497 7.506427398527126 -0.09415225510439268 0.11675328033336022 -0.10839590950760042
Ni 5.174933228587588 3.8586199014495013 3.4107877546249434 1.1275503494033936 1.1761223447748261 1.2545037101982073
Ni 6.113456717880325 6.409897614859539 0.1570005528934395 0.01118635563412267 -0.4971351375298019 -0.0780437795783043
Ni 5.348990183103404 4.667033780474698 8.822404542060163 -0.5200315825120011 0.6304085270053724 -0.8656896630740123
Ni 8.64994797133553 4.988899147863901 12.237509306209601 -0.33133472196080355 0.5233917572334856 0.1820418171285252
Ni 6.510415576325767 6.854268662507842 2.496773829385268 0.5767902274592841 0.7964740233102993 -0.7905255190363483
Ni 2.875118978867936 4.520386558883388 3.9377344855422227 -0.19096663042198078 1.5514170172563475 -1.4483129522753055
Ni 7.856161356686171 4.671996936760994 8.860944855290123 -1.1468364513265152 0.9475810985331808 0.7670307783485177
Ni 8.580370138869155 3.78849893112538 5.426898626574098 1.2627901185767156 1.8645352162091242 1.28603289115474
Ni 0.9831450736402834 0.4219581830150562 8.24750061119311 -0.2742492898017212 0.10307346885342249 0.08570978076399433
Ni 4.902914806315279 6.691626967450508 7.028614978399594 -0.24011583845312193 -2.51400924448638 0.994361035001197
Ni 3.273257757487101 0.7387957794417825 1.406737352451488 -1.8138310049860378 -1.9606096280368945 -2.3444419056757817
Ni 0.9595747635032894 0.17295101346409583 2.0237869081904316 -0.5453839452338608 1.0121106456751343 0.0058142926889319215
Ni 4.4389533380048425 6.939672408415425 9.465535952305881 -3.3415895022831807 0.18931623930275138 -0.6915161929499704
Ni 9.175799062091496 1.673182993014411 6.3462437308209205 1.4667495617139383 1.6078421901236115 2.924248551363886
Ni 7.017116375373288 1.3747193757373852 9.87580543404442 0.008332688235411456 -0.9267505349410748 -2.0061960584174416
Ni 0.7854887792054216 3.5630218045943742 3.7591348383575727 -0.6308985792679134 -0.09374704924617404 0.059353402257652614
Ni 2.739755914493582 5.806583828254066 7.9232210896706885 0.9762103322340995 0.4734763604602813 -0.2823811748802363
P 1.6318296002591606 1.5716162136159857 4.29383907619479 -0.10885048054651576 0.5417219230012411 0.3532155811942949
P 7.875536395094372 3.163356621306028 10.708159518816627 0.2248018338038709 0.8178110942251787 1.0964803674714665
P 4.327581983829527 4.78167332624231 5.6563893545849275 0.7739293052405638 0.013859531590911614 0.2685725511319181
P 0.549094581733729 5.438729667427129 5.898543622682471 0.4113855046668076 0.792742581292325 0.42578162548747955
P 5.037107314961733 7.668357395701899 12.504704102438378 -1.2483672582831662 0.3071887208422194 0.38095032810540197
P 0.12200655529672398 1.9657563738686443 0.6090120518888911 -0.08634458613451582 -0.7913539284749146 1.170329649352449
P 2.0127097052261687 5.8559157288506825 10.285088839637776 0.2930085726870954 -0.0075572435219676305 -0.6604459539077271
P 1.7855188851095167 2.395078757079065 7.587016882837003 -0.17280075814623144 0.28602417094946225 1.1431039808672765
