# total energy = -381172.2275196183 ev
CRYSTAL
PRIMVEC
9.12814863078460 0.00000000000000 0.00000000000000
0.00000000000000 9.12814863078460 0.00000000000000
0.00000000000000 0.00000000000000 13.35996820856471
PRIMCOORD
 96 1
Ni 6.546562139967332 2.170363384809857 6.7152676699494025 0.03409257080833483 0.9483861109329796 1.040460400462421
Ni -0.13529194195814714 2.21734596575758 1.7153260889120714 0.34849966377586433 2.0273739780466373 -0.5039904698887384
Ni 7.443274947812781 0.8599053741645665 -0.02554694954311107 -0.3340107261310699 0.5906955246864665 -0.1192379944284269
Ni 0.13798292017135655 8.511021876353293 0.7290268920642441 -2.6801485314520357 -0.01174222813759268 1.1376774105350664
Ni 7.031750623572213 4.375358965484423 2.2847546048725307 -0.5749428898379002 -0.13373027450733097 -0.20733658713957195
Ni 1.6961378076977311 8.200418363256697 12.289914749664483 0.9660364770248913 -1.3453137883032442 -0.5806255420449742
Ni 0.8278409265066945 7.8917956584106665 9.707192727830178 -1.2700339446233226 -0.8256429315647716 1.4096672148786498
Ni 6.782095758812114 7.488085029388916 12.964994283383854 1.665153879360887 1.058241635705242 -0.6254619816333745
Ni 3.11655988632494 3.8911654500791344 11.043203164907752 0.7067558927178603 -0.11019876704429409 0.1364211910759328
Ni 0.5086779484490194 2.611125169080647 10.061004332420081 0.5613029304569623 -0.49308950670551854 1.3075856776248511
Ni 7.818113242749113 4.506128822616167 6.890082669802917 -0.9380834434553909 3.2476681322426715 -1.7021571960581137
Ni 8.257797905482729 0.3487655640327026 9.362879874694366 1.7438954563371643 -0.4035919767643178 -0.05490796489178931
Ni 6.4369239468911505 8.662083607867547 11.046168900394427 -0.916511630821886 1.6130630722029187 -0.6705771288044581
Ni 2.4542122943008997 3.0131836032021573 2.2293777784537516 -0.24180608167135131 0.046632612256874525 -1.4112006208040406
Ni 3.1701238624277654 3.4260680215871218 7.445523210817914 0.24856319788952674 -0.03611422922405394 0.04406896529475636
Ni 2.182065671340842 6.326108222642975 5.114195878870704 -0.48202322158902783 -0.7946932772607926 -0.40411082538226534
Ni 2.8858733143974376 1.060006258510656 3.7063487377825624 1.0511286788095446 2.6480102561565944 0.07688112672877083
Ni 2.24231145223359 2.0559420418567367 5.72788587467523 -0.6650734253774094 -0.27442849569206285 0.7614394003036693
Ni 5.761924740879632 3.6730665950987675 10.635282633742406 -1.389151354313485 0.27177048924392555 2.0901934844760195
Ni 4.441419377048184 4.966543510866061 8.877578202046596 -0.8968064390834749 -0.3050621614175198 1.595766489906
Ni 1.3220023802051477 6.762223779266128 0.9629557823816115 0.3634154045454322 -2.0445358345379048 -1.6683484750387847
Ni 5.575409280124858 8.797253232634185 0.888386110674182 -1.9015447035539377 1.5391723955610395 -0.04497502204879351
Ni 0.1883127932180752 6.838389051352353 6.7618276176160155 -0.5178147773663404 2.2516387084001157 -1.0772456876115706
Ni 9.040856134859148 0.4265784669448584 11.628636976658719 -0.2011255732328536 -1.4118523954554265 -1.5934956915939522
P 1.0612203022771312 2.6605267094127005 7.858453269945979 1.0470403676727837 -0.31097929823290316 -0.43598504838304264
Ni 5.495419313766805 4.600879005292943 6.822548062237009 -0.9540721055741633 -0.17459975902818317 -1.248200907908631
P 8.83393926193842 6.611326354427035 12.59317284156647 0.8852125635982884 -0.026194399007180697 -0.16447963987504577
Ni 1.7844891581918076 8.689203337417904 4.6531431330322635 -2.7643735001403877 -1.621241237138337 2.1193395099123564
P 5.632560618635387 3.098641330583658 8.592917800143224 -0.2837286900470662 -1.1928975073506358 -1.318574572536187
P 8.79452391619677 2.3667189897771137 12.235085612162909 -0.2663567744275219 1.6081185837134497 0.3467520849571383
P 9.000537102404108 8.855472564533267 5.74620241769635 0.5318434875452647 -0.9766813583332468 -0.9975782563869143
Ni 6.61249475745041 3.259625359647976 4.330072394550317 -0.3212665390915241 -1.1441553049499262 1.4467168114327793
Ni 1.6435414153486383 3.9867462942803407 4.026694723901405 1.0173374412917124 0.17864744673499555 2.484391164509631
Ni 4.004391005563019 2.054928817359904 9.73305733694527 0.2858035702982239 0.25429341550508466 0.1006193508859751
Ni 1.1523648662489623 1.1907122186020582 13.543667788266767 1.9400788550733943 1.4213901597425327 0.10409728213224653
Ni 0.4855052303619997 1.6098494187918002 3.817423701451549 0.7875772350413017 -0.26399084529850664 0.723259289689522
Ni 8.16600524295887 4.355121859993632 10.931887218115193 1.0578145754701525 -0.5709167993976425 0.19986136180844935
Ni 7.300757163406952 2.0525828831645354 10.497474974024554 -0.2601521882787068 -0.7959803715033323 1.169548291101734
Ni 6.305825476409082 2.083828535891183 2.055938390597289 0.677619123252904 0.572875208675594 -2.2160559261994996
Ni 6.9044951036592135 4.903458875752458 9.139567934037052 -0.32742433116280384 1.708046564959355 -1.7238578209599986
Ni 6.1869039561862476 0.5823950510753303 8.708174368695085 -1.3276605939978554 0.46363160645571766 0.08383338967688787
Ni 5.226586208755848 6.205936146059184 0.9406967919714652 0.9731692314149304 0.5191599785403253 -0.19539355584508283
Ni 2.363241165152851 1.3451970058488556 11.446806994590649 0.15263611027289842 0.7008852928696961 -0.546016436611537
Ni 3.9471757700121497 8.73477105532951 10.389886963128452 -0.36310301551133595 0.7016658797894625 -0.901253419111235
Ni -0.06297601014502362 5.855533904978894 8.773891561870728 0.48320541482258716 -1.2262496004485206 0.6961038123206528
Ni 4.483582295524487 5.878189969854016 3.342984525661713 0.24721054051637423 -1.8014549999191878 -1.0299571869382518
Ni 6.721448339380081 5.505067766858265 4.61518737825497 -2.621991977715962 0.45803508620454664 0.6508451975931694
Ni 5.62231883588362 6.3055151193559995 10.557875020628982 -1.673009370849564 -0.02950906520271047 1.3226860236013995
Ni 4.958848481579305 7.408478445272909 8.561040479532064 -0.7394832077475523 0.24817213309869515 -0.9083674044481969
Ni 1.7726316931342807 4.3259117844092705 9.145553261087262 0.6549363369434076 0.7722370051398055 -0.8227933779311185
Ni 4.020000139703414 1.0510789291601852 7.683451143045754 0.5515412230845083 -0.1698517028202365 -0.76459594365478
Ni 6.417115864385504 3.089750513827668 13.002736439483439 -0.8969092832099264 -0.3942722420252887 0.2990172407750205
Ni 5.526016867941425 0.3872936537284768 3.475983476686487 0.1813260220084232 -0.541797513434183 0.8021335355889219
Ni 4.503728119529077 6.7284039886286084 5.60431995243448 1.6928513452761556 -0.5443418771225916 1.3590421936329304
Ni 7.851294062983224 0.5871152167267909 2.4878796448564637 -0.15280811707438846 -2.7682604938996196 0.6718020023504946
Ni 6.939163812118404 5.32011321951753 12.605704876807025 -0.8700998763265659 -0.19359146963933754 0.09674469842191726
P 8.563426577581364 3.578836716893338 3.6122685612145027 0.7375523092734265 -1.3887425489108405 0.0185412533372971
Ni 7.5449533952922225 7.630712351578186 4.282190690963514 0.4170594151231334 0.6350180007529258 -0.06859780367405606
P 2.6373777245120933 7.5887593805201465 8.875775392694123 1.8596773738961907 0.05904821231240799 -1.2700318877407932
Ni 3.0501526051136163 5.938307956666082 7.2720308796994555 -0.6521654590664897 0.641742978181585 1.1542746527721153
P 2.6660218548820085 5.498322065028001 2.0304617277985524 0.8092593480004256 -1.4661682352891716 0.019268104200992623
P 1.871772515297331 8.754862110442378 2.3748412164192905 -1.0323809658883962 0.7448562991340075 -0.32142286216373034
P 3.9228675102367876 4.420543301153985 4.865420054822722 -0.275674452284022 -0.29406863852049353 0.8326820977997401
Ni 3.443174172101214 7.625865304660906 1.510491346691591 0.47025502530950625 -0.0864919103456575 -0.6465350002535897
Ni 3.7920520123619443 0.9709246561269704 1.7663077117702661 0.37752973245962723 -0.5444874015615203 -1.7776928645025836
Ni 3.4220059954511717 2.5891445872034144 0.13460276673732857 1.3401430427355823 -0.044399609161297725 -0.8618882870500512
Ni 8.067348212672686 3.0356753614021166 8.364075114236984 0.15040310717732164 -0.8709110593739517 2.5119289649185834
Ni 2.92880299735783 5.469486243537063 13.000691734192532 0.24686601269276195 0.23362843095656538 0.7374448371612847
Ni 2.389183363531213 8.74766912932973 6.952954619053671 -0.5606298156493378 -1.312293881733798 -0.2935973553110298
Ni 4.198482829672488 7.52624069062099 12.354403294035858 1.0710231037406264 0.3751807726114764 1.1700455424531266
Ni 4.665497169374724 2.3923690873996324 5.706683923875293 -1.404913502243748 0.9261442688156437 -1.2636156998018044
Ni 8.534864600549028 1.2127201849251514 7.169626744404714 0.8811337655432244 -3.6896140261948394 1.24197678137579
Ni 1.1705390101516078 5.530480532616661 11.04062446292257 -1.9729943748544925 0.36290529767823304 1.462345776219288
Ni 3.1547429320028746 6.39255201644878 10.641696070962896 0.6878749966529573 -0.09849921921917874 -1.237867387193107
Ni 1.5972251892501834 3.523876134051636 12.790779915709546 -2.522784933796481 0.20762300803173922 -0.4242654459532693
Ni 4.626666025144763 2.6564099143850295 3.2844950005634748 -1.7322748413791005 1.6156434313355852 1.1969184555845709
Ni 9.005785787860674 2.8393288845834794 5.878652766989056 0.3325842780971885 1.0597786411750587 -2.4199114967690063
Ni 8.451287271783272 3.929412392797409 0.35873897921503844 0.6142126339718001 0.8754310587314923 -1.1084943612132068
Ni 0.752296368526637 7.089942571025435 3.152792246642756 -0.9067167562186513 -0.19576559447252093 1.2245439306113233
Ni 7.350843314885513 7.46814915280259 8.460534086335446 -0.006206128810711893 0.6952790024265123 -1.2139664122057932
Ni 1.7936812038522618 0.7700332741103791 9.130923577293807 0.45170965820715114 0.7315595820251013 -0.6294304793628193
Ni 0.45238374309391866 4.848708240329019 2.1987035478307226 1.083777060972185 -0.5693116596940518 0.00417418598234765
Ni 8.839854302244254 5.312381677636293 4.815413318237155 2.0265280851065746 1.042447863206095 -0.4994360177488366
Ni 5.017095197924249 1.50670133938452 11.946857929778798 0.04334777085801567 -0.8621590242129344 -0.4719565813816453
Ni 7.471289235927908 0.9906688415922754 4.832527684085006 0.7195026508605674 1.0648172320402307 -0.6850897205983362
Ni 6.411785025591358 8.787267038043781 6.278210088388655 -1.358365736391196 -0.90587806236744 1.1179804463267713
Ni 4.847704143980806 4.048890730086072 1.435234325393067 -1.242284542424196 -0.49242127699390037 -0.5915082503957491
Ni 3.824420427368866 7.903881327183697 3.8543771855103537 -0.5202709522163169 1.5919319466512585 -0.41410598892176426
P 3.4193679604999585 0.34909874145733677 13.020411273656563 0.5743438228013206 -0.29569434704937464 0.159607399384409
Ni 7.961187844220769 6.2217826120637 1.4307724863475555 0.07843741547229717 1.534030960569416 -0.8898266653315321
P 6.534677290463944 6.589254491063601 6.692101341566417 -0.24222002928031833 -0.47314803058658517 -0.5342058171298542
Ni 0.9848542109212632 4.770279187385005 6.687519010959121 2.160490530229369 -1.4801717486571153 0.7488096273548007
P 6.821465463810663 7.846702604227308 2.171716176435358 0.29168342611776865 -0.6254038747019294 0.9607654584339388
P 4.119433062622307 9.467715748781504 5.459217076339436 -0.18359450632762575 -1.0328005699243181 0.4834512122848061
P 4.815874289742471 4.830333277156731 12.237276367831736 0.05239625421352912 0.057416076025623694 0.35488499847691785
Ni 7.7285934892316615 6.881309606164125 10.550420061650936 3.1111551527838808 -0.6389011378574159 1.8836292567260977
