# total energy = -340861.66707188607 ev
CRYSTAL
PRIMVEC
9.32737598980990 0.00000000000000 0.00000000000000

0.00000000000000 9.32737598980990 0.00000000000000

0.00000000000000 0.00000000000000 13.65155758670272

PRIMCOORD
 96 1
Ni 6.885552836796794 0.33592451035134074 1.3984516034217627 1.2962689670604515 -0.6542344257803765 -1.815714080941363
Ni 8.756661752121294 0.6554888033716253 9.56695701332846 1.810378527661063 0.3691286528801256 0.0017789462772937106
Ni 6.099796036111032 6.098266346463204 4.86121005921373 -0.026892453515469813 2.4680222362333044 1.3000996536604512
Ni 4.110975636910861 0.14264449239770452 6.644090393149296 -0.25411780915916876 -0.9452807325347783 -2.0525831303224136
Ni 4.106657061868512 2.715646838940887 7.001133015278996 1.491924261207353 -0.0808442251415769 -0.0016853581222229038
Ni 4.465705069817014 5.994769783461265 3.256456488342386 -1.3481291462648524 0.08286176979223794 -0.4566137803769878
Ni 7.262462769596478 2.233757290370943 8.203124898302335 -0.09705863011791026 -0.15097594896165611 1.6034759427351157
Ni 8.204770247411343 7.825603089643519 6.121536283862016 -1.4150673028482985 0.8982912511591175 0.7927479806089638
Ni 6.172540240766053 3.5742504454165847 6.354513613652012 0.2138201379813866 0.27910636078370643 0.6161628157196356
Ni 6.839009231048807 0.9030149740926252 6.270938460100285 0.4463831037879151 0.39572491531141524 -0.5055866107312648
Ni 0.6248213241454114 6.865993329531558 1.9283230391036899 -2.3429079855297585 -0.007833637111805862 0.0915451564988488
Ni 8.492697014111668 3.7027816853378805 7.039711974744778 1.8465817170544971 0.058154496853545005 2.053495357724038
Ni 4.5005708009364485 8.297325798480937 1.4505459305686734 -1.2732251978671105 0.5479974715973078 -0.32166017498551697
Ni 2.1876334165385187 3.2328031957940246 9.206746814342644 -0.8090523741959422 0.29790960953313855 0.048613390132329175
Ni 2.2589318779288226 8.002562065244886 3.1333323282311323 0.16067003632096846 -2.9483205047114254 -0.23773165449166153
Ni 5.778356007796976 3.996304877579046 4.094538935097413 1.456311139989434 -0.5110959705852682 -1.1064737312387525
Ni 2.104657080519662 5.501566127922923 4.014567879593987 2.4848477924310757 1.517447602289438 -1.6668626345218776
Ni 9.141388025926352 6.620720652828337 4.415214118587555 0.7671102254362014 1.9221178997195993 -1.382585013949877
Ni 2.450385595680965 7.587568456639785 0.32188587688214315 -0.35562701884926495 -0.7308296458376122 0.3802491882733193
Ni 6.4427636480055215 1.5471971323965732 10.624447323412125 0.9488841336153208 0.5906425599613442 -0.4884388953073846
Ni 1.73994735539901 2.7547565260954583 11.437493227772617 1.0143829866490788 -1.1986302960693551 1.3041247156594444
Ni 5.311483534428287 0.8525855835441145 8.359012399004849 1.042810388751836 0.02126816535015692 0.6600739152802891
Ni 5.7718548267937 4.047931903193296 12.992487113685169 -1.7625858336578162 -0.7235307981833539 1.6786408581037282
Ni 6.281316098528183 6.357921836806384 14.021924408007783 0.2847442757957741 -0.8718178874589373 -0.6677059779042501
P 2.9460610058331778 6.80938548518596 5.755360295249664 1.0393954495330164 -0.08780111607538427 -1.0619090572545002
P 2.557174722376096 6.180198016381103 2.019775161604149 2.6285138379948796 -0.9245388720017367 -1.1005637935122208
P 5.214581426188639 3.136628622874687 8.9381389086093 -0.429705386021918 -0.5492940789215444 -2.503777796566359
P 1.863805579993704 8.882562672038397 12.434248329674313 -1.4209060210172626 0.517425769458038 -0.2834011315043184
P 5.035738320655192 0.9749159839661594 2.118107156569481 -1.106188595898166 0.6656388109625762 1.275309591199965
P 0.7812824584658601 4.725006119875942 5.167633012326531 -3.0074252812933815 -2.1332116399087586 2.153757839491226
P 1.6185888675458908 1.1966836733978523 9.963807943067748 -0.34653894050506767 -0.4692690072471531 -0.8690320971836839
P 7.6302318740127895 2.8043222016354994 12.94014747655205 -0.35630501875289605 -0.6475187043230978 1.3133212945570478
Ni 7.464335166230485 4.8295753311065415 11.79302108405593 5.014544365745725 2.8233471504611183 2.053770465762295
Ni 4.564537944868252 4.41198871200085 1.4192842974975401 0.12661551783942063 2.0646719431661475 -0.6203308310543962
Ni 7.480033139872541 8.750076624734907 8.328979181339928 -1.156361617208131 -0.93431060667652 -0.6896503433858252
Ni 5.006562288835611 6.07906127948222 9.315604753012707 0.5683328407205502 0.055084599678969656 0.09186243062895147
Ni 0.07220974601587049 8.387344303305351 0.26387892615133485 -0.24759260644614134 -0.0167237405125841 1.6846793509883244
Ni 1.3787353962413829 8.36143285305126 5.621560953419257 1.2597263920497273 0.14057866488773207 -0.30285692623608484
Ni 9.113760338506404 8.846866804463737 11.724053533903385 0.05324137582264379 0.2999870608874576 -1.904334093373617
Ni 2.418961666269147 1.3362865085141102 7.7488835573793216 -1.5303432273051836 -1.3680721650456826 0.7802521621347981
Ni 3.8756086334149265 6.020550650452736 13.13143330153797 -0.7157346991777028 -1.9787873273871857 0.7933488474177562
Ni 1.8626023485024235 4.149525681511348 1.421960321643652 0.0028688369073628013 0.05207409498741999 0.0368423656393301
Ni 0.21884635529937432 3.945526643171823 12.920830481060252 -0.9298643979797082 -0.994420684594539 0.24768465193931538
Ni 5.023687350990581 7.354831773148045 7.365698166073177 0.6595362976092641 -0.340772984555568 -0.8514773761293722
Ni 1.838006058250431 0.6144166363273994 3.6646513726529566 -0.271665588234945 3.307989811950864 1.0818885857002207
Ni 7.917421778016903 4.5275548994192 0.8838043106861012 -0.26674655366677286 -0.09797368573301192 -0.3114958328580054
Ni 8.84215647963353 2.292100026634202 11.194127066703638 0.24986649008198256 -2.0273919757687664 1.9453272479565271
Ni 3.604788274117769 0.7861522814239812 12.606789860048776 -0.36769423442644417 -1.108540383959794 -0.9732543349295691
Ni 2.5850542489453816 7.466265933042074 7.734740457300029 0.17518031412200152 -0.34466049253543224 1.4522999619475117
Ni 5.873793718020104 1.423851913476456 13.057345954753146 0.6291664270681552 0.7089215329106113 0.2951456736347562
Ni 5.439884191086963 6.092222206879096 11.562951097334398 1.0528914271369223 1.1964237753363396 -0.5399589175635475
Ni 8.560152596630594 1.9390028845107932 2.3680267319467805 0.29449775563811215 0.6003579874768951 0.9827252505344818
Ni 0.47562435017697313 7.070878468581717 9.486262153455087 0.2907192624322864 0.7430279876760172 -1.2044808413128612
Ni 6.264760006303197 7.341978649155916 2.4378132257034673 1.5924960466848443 0.802149990649154 2.0747149292244464
Ni 3.883947307470778 4.805342808514702 5.567651518921934 0.17133934310935653 0.1807287547440565 -0.07264651982213295
Ni 2.9510977888199337 4.590290829732018 11.008274438180289 2.05199229081595 1.964493279362017 0.5186938375371841
P 1.3473114668295652 2.0758261616084335 1.8470013795697415 -0.1442730830201838 0.7879469596758947 0.6661134366061496
P 8.213659236645377 3.577766866131413 9.849066295679082 -1.6998560587287628 1.0659184355242095 -2.8366796059039663
P 1.946623350622237 4.9197337465694755 12.976897337603567 2.19667340790783 1.0708814359564396 -0.4434399619991911
P 6.071338212235861 8.331734488181203 5.637956614778739 -0.7050941887447212 -0.0737952887145955 -0.7730499879594042
P 1.0583866709077905 5.169334325690947 8.387380680071367 1.0672484671895426 -1.0181416823605627 1.1765324357290514
P 4.344896897142078 2.7858260152230225 11.913795678177621 -0.6644789863265201 0.2590183317845797 0.7499313996640697
P 0.7081502349733411 8.557904699038357 7.665090143231502 -1.908606752607042 1.1583177124932373 0.4884355528732749
P 6.75709621588271 5.693495541846037 7.176788023729346 -0.3226060838385541 0.023387268575688756 0.3392766025156996
Ni 3.57728184258454 4.772585064348985 8.088684525155285 1.048644221824794 1.4858232905159379 0.8159989807171043
Ni 9.118834430996767 4.819268580735494 2.9570775695103215 -0.35756151686781645 -1.4352517482159735 0.08557068408296876
Ni 8.94533591185482 0.2504400429525973 4.690197285749506 1.3300000407643093 0.49729171771232417 0.002605813053963254
Ni 5.3865502556827565 8.969064756147983 11.005229982686071 -0.5208265676094708 -1.8038633522503644 0.8164352969235746
Ni 6.272026032130389 2.811494953703676 1.7300752607449676 -0.17342502199379164 -0.3450836961157799 0.12777559958579282
Ni 7.1018453565743656 8.55252280314325 12.972159963383248 -0.2785427749707526 -0.24929776206270618 -0.8425654183517232
Ni 3.8270969513517437 2.3084229344616523 0.6842516324387733 -0.13879689039696094 0.12945298728821578 0.854509992308109
Ni 9.327469175159289 1.5485402745263748 6.893517483079 0.27854431763264936 -1.4097854856240688 0.03496237500779785
Ni 1.2463053131933015 6.698473658342409 11.812242007575945 0.7014843599062758 0.4070120581894603 0.23589948637892924
Ni 2.220307214321124 0.3588446711538516 1.2140708348156526 0.7848102138191259 -0.4584603466674233 -0.5986325201453562
Ni 0.5534482437478965 4.8270009753577545 10.44574879220515 -0.299464098504452 -0.5310271622915563 0.5310868118848983
Ni 2.031325251182853 3.6734657428797792 7.002593682345155 -3.3290450899592665 -0.26675066743183096 -3.217960320765593
Ni 4.164216298556053 8.789111692882267 3.932372244938078 1.9100249731108072 0.6293788001892774 0.6895837518139478
Ni 3.496935826569878 9.041771651299397 9.500746635492371 -1.072499688286153 -1.369878365016486 -0.796005825424629
Ni 3.902284928492931 1.7880206507948269 10.03521926570646 0.2900122090629328 1.172302971028736 1.3655889936125127
Ni 0.06932851959992795 1.4297374876702396 0.05046949826488674 -0.23176772359874276 0.6687871267835707 -0.5036107179518166
Ni 7.045461369250401 0.39846176755745916 3.654303581827943 -3.734141419183253 0.4570652660921096 1.0951325951943203
Ni 7.943529103164923 4.932055210135226 5.405265635428917 -0.01398782963865978 0.06720735108443264 -1.7037355962888272
Ni 3.7566939180479744 3.4019178482623134 3.26321323944536 -0.5746438705402426 -0.7723149095655925 0.22729220432589245
Ni 7.682241322038998 5.67080203627793 9.459860083228582 -0.6250220658824784 0.7848174129079774 -0.6303164815121984
Ni 0.4977274328505214 6.309624684388933 6.750640739021351 0.23267326613214767 -0.35759211299543575 0.10674757527090002
Ni 1.614606078035993 3.011874970193458 4.002936641844942 -0.9581581027180789 0.12026849257547029 0.23174921165598153
Ni 6.0666278874056525 3.8851785210897627 10.657388816883103 -2.654137709210571 -0.774957232284446 -2.149514747944156
Ni 5.065268792759024 1.9086049664481295 4.798713842461577 -0.7338211243657684 -0.870773505354823 -0.2048089356217118
P 7.021667233325928 7.722349038415018 10.201767957064272 0.32488228146724046 0.148274490870093 0.31073915719763906
P 2.797849002759927 1.7752514731858098 5.503093019357983 0.01147251941597379 -0.5581183620813936 -0.672360445957126
P 3.1863435364291504 7.048362183155736 10.171270236079463 -0.28553848956229533 -0.9843625290275886 -0.1302160907064854
P 8.50217362802749 6.7323879971199005 12.816969217660569 -0.7323183145679969 -0.30089748851686887 0.13713467220318964
P 8.308462685307209 8.379238813647033 2.6316650117998592 1.1216396403459135 -0.9934084412799408 -0.4150956065285432
P 7.7695642152279065 2.3159034899345756 4.578637206280808 -0.48311414066036146 0.12073874734366948 0.5030602447649852
P 6.706495201617614 5.243188488078235 2.551448646310227 0.059433877786600864 -0.38029701079211925 -0.028981217723698473
P 4.999995816201025 7.862884611121417 13.052349279482765 -0.004122249698489675 1.17527465206255 -0.9650108639738543
