# total energy = -381171.3555640202 ev
CRYSTAL
PRIMVEC
9.15887780220917 0.00000000000000 0.00000000000000

0.00000000000000 9.15887780220917 0.00000000000000

0.00000000000000 0.00000000000000 13.40494345708365

PRIMCOORD
 96 1
Ni 1.5783311177481272 5.6733020805032135 7.0993384599672105 -0.9490090892289591 0.3747709387675675 -1.8844754067764768
Ni 4.801898956600481 3.5879446388412797 1.996304755557663 -0.6559645210976058 1.1129225721878897 -0.37365328022335653
Ni 4.676239151255417 6.253553633552137 10.693713547010585 0.4311205212018897 -0.6831673067646429 -0.4517307412530736
Ni 2.99407383429468 4.127237689739829 0.3181208028377069 0.1118275608969687 -0.2295033530445983 -0.33162345684581596
Ni 4.990388664618079 6.6037891260007715 13.112581454113823 0.04705350184437703 0.7751294961962522 0.9262062324018306
Ni 5.430646768344894 7.95787427625119 4.8592252895185055 -2.118588233568629 -2.9000349302321604 -1.6473561890578339
Ni 0.9624240528764387 8.672678905125503 1.962698084730211 0.8998506252264374 0.7753858351814324 0.038020187997515165
Ni 2.8521112262153436 5.6639600250037985 8.986929166145512 1.3554511338475623 -0.2607152598710284 -0.1183350229981833
Ni 7.998878572791267 4.024978817533003 12.067773294161665 -0.1613799179037995 -2.1164763294319484 -0.3822258523837159
Ni 9.143784109756268 4.762708117892643 3.990182408461067 -1.2872654780102606 -1.2305438569485 -0.020430757050526105
Ni 0.20933897776158425 3.255669706034166 0.6973276579880554 0.25158655809688285 -0.6717091855263722 -0.37565462692410145
Ni 8.626316664990174 2.431901906300506 10.10869479799358 1.5101335851265283 0.8456900800236339 0.2776968820306895
Ni 0.7897123438871174 5.174830148585929 12.928451371995953 0.07204051080701786 0.8402061740909271 -0.47920040742825215
Ni 6.844145559796 5.100551648487643 1.3585244583882283 -0.504071202528003 -0.6456022040266752 1.5141303649907472
Ni 7.190167968391958 1.9193436201105754 7.552224824598529 0.531512329458091 0.24456667513562397 0.18562156405998353
Ni 7.514547948414273 1.492823833294663 12.370497107293426 2.0908406311417154 -1.2581413069507945 0.12867034348592035
Ni 5.148754823089034 3.1258792467378895 8.031812981977879 -0.5137205526923088 -2.3471569906141 -0.8290506716947399
Ni 6.449059042072235 7.766307185245551 6.774992367793276 1.5257910891581272 -0.22864897546410298 1.6330778247619486
Ni 5.803440577161233 2.1011473472315325 3.4900847757093256 0.08779160299368752 -1.2160909147479637 0.24566350774422854
Ni 1.426376173835593 1.0315735813279867 0.1743007743120158 0.2447834191321204 1.2320667213509298 0.37380728930271745
Ni 7.623648502442728 6.00804075147635 12.892284794784102 -0.010235561685079145 2.3733881563964867 1.3567647104526634
Ni 5.459707888050425 4.494810938130024 12.964377070717964 0.4068842743623444 -2.2776988958222777 -1.0479294551459566
Ni 6.328390825204799 8.322516683700393 0.670046108266383 1.3590393654194528 0.39439745474924337 -1.1772510590626306
Ni 4.6730701794879685 7.3347316978064265 8.6326500290861 -0.14365396137894615 -1.9494788082310557 -2.620391208887745
P 7.036710968497165 7.908782690489561 11.921605845219798 -1.386096369537245 -0.5542987312249873 0.10227051333615289
Ni 8.307019862224893 5.310738738346528 6.431343024471729 -0.47078235856788603 2.436317448930856 -0.35718742135784937
P 5.1041785641521225 -0.038204427553634714 2.890239635082071 0.3488107672583799 0.7183790787790854 -0.7237308300093019
Ni 7.5400645823567904 6.5673184740412935 8.65927213959605 -0.13969677650341103 0.1863928950083693 -0.25517401833782505
P 8.442479666966403 7.560195796070235 5.686055818035502 -4.02120534425114 -2.097714475443413 -1.6364202588716206
P 6.956057889352221 2.9182016894347305 0.3933344243737277 0.6734379952920208 1.8937015533604353 0.6715230376574951
P 3.602626320180065 1.7651447511025937 0.13249232828875404 0.19657060687231953 0.4872903835252382 0.44939643669294216
Ni 3.158695506399068 1.5121765423831561 8.542729081353059 1.6235873687730102 -1.1942128837279498 0.5971299674579007
Ni 8.55647106181514 8.807827308017032 10.724517601188216 0.44805663483559605 0.4185578540455308 -0.3892675897218457
Ni 2.9308684176265833 7.958643621998201 2.7650780726969755 1.3942794195686699 -0.4520266752269376 2.0973894880038264
Ni 1.7638808259467906 8.322901356573897 12.236314050136835 0.9790974239739073 0.055363821482285296 -1.1718697401460592
Ni 5.7124746014551695 7.104047039116473 2.4587346710030893 -0.16820439702480064 0.473793634590384 -0.8358142156708186
Ni 6.794202198385896 1.4142956138319385 10.06227394103943 -2.680621357323396 -0.9072970542021536 -0.8576912182495681
Ni 1.4527537423045278 1.6290896192949453 6.032291628487476 0.6674249563287216 -0.07117430615198064 2.455996672527338
Ni 8.913859637935385 8.205905849760644 13.146603937999776 -1.2531137718292162 -0.026692164579205643 0.4742898575005122
Ni 2.923165801278537 8.501984896946498 9.820274404541658 -0.7426346088923403 -0.38955118240053555 0.7397896832443775
Ni 3.517155671238364 8.330045281367568 0.7520739349902119 0.3025342527893435 0.9186083654499148 -1.49247370595292
Ni 7.170183296725564 9.063011965198095 3.830704362208122 1.4872736498092194 -0.08942888148679437 -1.1694752717719537
Ni 7.980798947736518 3.121254013377885 2.522354984841895 -1.4160098692672258 0.5875860325232074 -1.6896865743949285
Ni 2.6160961005639605 3.429734181295314 7.595911756487408 -1.0391738204405134 1.2313265007507954 -0.9770649669249108
Ni 6.058936636192278 0.685432107318801 5.637663970548536 -0.4182470076733313 2.604448826625876 0.9192681105211007
Ni 8.667073671825854 2.0701994986702372 4.246592523510583 0.9974404452574692 -0.2534876317743377 0.5113847054702806
Ni 5.280541917776362 0.49796361419158114 7.882200879042551 1.1079369460478403 0.7725820471840501 1.4623753439056428
Ni 0.7521554490038834 6.963146860878247 8.799044859959787 -0.04822026845896857 3.058237478849243 0.2062412971928642
Ni 4.0515670401945725 2.1442215501861854 6.1476009858718665 0.2848710311816255 1.83406738663757 0.09898130106191984
Ni 6.475812124536735 4.4549148658207605 3.731923115955343 0.5878786240629618 1.2452156000280619 -1.4728060523206634
Ni 3.747538086956276 9.123662054920764 6.410284016422901 -1.42550392480059 -2.291845105415672 0.08220793825832294
Ni 3.733488368195392 0.7459035989216282 4.303361996649818 0.392107373163486 -0.9643778583755456 0.9487298674256435
Ni 3.6677093068259854 3.8768156490878787 11.43389376310713 0.47619427361207667 -0.04307394837133872 -0.5442742571094498
Ni 8.16664174002928 0.6147127471882337 1.563002819626735 -0.777944339937228 1.747511970043829 -0.032138789516073685
Ni 3.8192795778650144 5.3271606064940284 6.610353293820801 0.6869619979203846 0.07677416883726133 -0.07730972962575719
Ni 7.315241605548824 4.15051955746484 8.152270544652682 -0.6364992132841426 0.5315776354783878 0.7130589521177526
P 1.9975146433336168 5.096045480540868 10.79028292424071 -3.038311943569909 -1.7939082979201812 -0.7629861759654989
Ni 1.3309589834503974 0.42679180549074813 4.170037126356264 -0.05063633409962892 -0.6541526646998477 -1.5535222365248085
P 5.082673518747588 4.946261190700255 8.719728061106377 0.2140926749164829 3.2753272887208364 1.5721928163511183
Ni 5.319989205066537 1.9696258600044825 12.013858643276514 -1.1820230265299771 0.7757175074892382 0.27396852533650884
P 0.8987405427798423 1.9628116548166743 2.3237199877294934 -0.28182144572202433 -0.7613586676644049 0.8123608697438849
P 3.898064245910076 5.987112715382073 1.6347598806279724 -0.6875934608567965 -0.2608422723671959 -1.2817764298712313
P 4.740305502449931 3.6999119216651435 4.71862094303776 -1.0916153260696813 0.30514649360121 0.1785507732561312
Ni 2.9795386950029448 7.228424601549854 4.90301938027929 0.4041375648551427 1.22073406994693 2.1336500129977574
Ni 0.9522760161182513 8.317122104593377 6.213017355674825 4.729358888647474 0.2279748322152138 1.802488840500341
Ni 1.2548670255198726 3.2065323258828338 11.933831115494913 -0.5723424761005756 -0.20462047375998957 1.0276753328826107
Ni 2.1934047247272206 4.769220080108412 2.4712548571478927 0.5333054168027718 -0.3268836281679854 0.19307236391107394
Ni 6.140890276004787 3.535720716823965 10.40561463017438 -0.5963236695065214 1.0998737094237316 -0.29339269549939145
Ni 0.5347923782785373 3.7443507974329466 5.837866051676575 0.8379693143406085 -1.692966016477149 1.8664373183278435
Ni 2.4038848986802037 2.8127372099486943 4.279341007475001 -0.03757281604745142 0.7689056267737273 -0.679590645156978
Ni 0.32004966253199774 4.776904378700578 9.036325742542562 -0.22092435312633568 -0.31639069905646156 0.7933866426342271
Ni 4.469166079896338 5.837319266663521 3.7059439586768246 -1.4767454965843858 -2.01898523976231 1.92694668856681
Ni 6.754855658753067 3.086257940766844 5.4559060378172815 0.6521155796651606 -0.35431318513384785 2.0729979465333397
Ni 3.0925409310340966 1.490524954931572 2.3672457233666178 -0.5989490229445104 0.26772125887521636 -2.9200350275031712
Ni 6.063946542425787 8.427001163246784 9.828893824571558 2.212522973345577 -2.0147197796177365 2.405975603414205
Ni 2.9040237463826784 1.5498561662307944 11.501709758930529 1.2997839221922454 -1.1409110869810157 -0.9849004038089295
Ni 2.883562813063372 6.3153302652615 12.042076230323717 0.11932849725970417 1.4663600395850036 2.305774571012571
Ni 7.882249421095636 9.107835513839403 8.557501435583458 0.5645864863042406 -0.8848605795755083 -1.7844453527350688
Ni 1.0759666627060864 0.584247571494408 8.453103965377501 -0.9347839467685126 0.052480329286903174 -0.036634620503898194
Ni 4.633915976291893 8.876280761745095 12.249852703508633 0.532008038147587 -0.6291533144420326 -1.512218235569699
Ni 1.7343068090765856 2.9785312184294783 9.750072521014737 1.0319011980385002 -0.2670445445231659 -1.023214983118412
Ni 9.144370277944466 6.5770635201700935 11.162658172335163 1.089349669963956 -0.6976534161959598 -0.9075564785111274
Ni 8.384284156531816 0.6598733425377559 5.970816323862359 -0.20232730685043862 -0.5658758945396254 0.6512352339427365
Ni 1.725175407769805 6.687592859157284 0.9523382964882474 1.199881651977953 0.25342515396751836 -0.033589148809355054
Ni 1.0038221811679615 6.830104999913056 3.7486252457678257 -1.2467698318890592 1.4899540248548597 -0.423732970488567
Ni 6.917764620682561 5.659243202864389 10.762909785739632 -0.103110492738945 0.9279594676475116 -0.9957720564161109
Ni 5.624448625568041 1.4234086973828377 1.055951766742488 -0.8359520268002635 -0.7879035080324689 0.6048391631767003
Ni 2.08513762859136 5.157840430006112 4.758299034052038 1.626732085049579 -0.9813003451624972 1.1060420430179725
P 4.609736538528702 0.6774739582762115 10.119754143106857 -0.9441941843388192 1.9780890157685804 0.301857538437293
Ni 7.679764947584799 6.539576232759209 3.4346012090329503 0.3827485576564053 0.35233703524408355 1.485359463505642
P 0.8704533482602917 1.085327035961382 11.29579620151873 -0.616051744063068 0.14479964494761516 -0.036398593233692156
Ni 5.9838613137131595 5.5941968517302305 5.769420840938659 0.3812724873315111 0.024939700664473177 0.08365804044128818
P 2.7932104821793295 7.749189242374565 7.724759767243596 -2.2109039496849148 -0.7274154779497408 -0.24491094584892018
P 8.400843407848425 7.534303648132152 1.736864883685396 -1.0230578887152573 -0.5365372934765082 -0.06613160152175061
P 0.08108904173491722 2.848475151672924 7.993930946927754 0.5741527898364369 -0.649142870190082 -0.8487142115619383
Ni 9.195147097247165 5.347319296841294 1.8238769717845005 -1.0455658400097865 0.7390859723091335 -0.9969465363401864
