# total energy = -340858.97580370767 ev
CRYSTAL
PRIMVEC
9.35680079801970 0.00000000000000 0.00000000000000
0.00000000000000 9.35680079801970 0.00000000000000
0.00000000000000 0.00000000000000 13.69462376782300
PRIMCOORD
 96 1
Ni 1.6506893699452851 9.248692323626754 5.994068581654057 0.4320959977412816 0.32809821730137684 0.08561027907165256
Ni 2.2583293707026812 3.817967712062478 4.545560963396701 2.9834949957300294 0.4244333389897013 -1.6531067183883659
Ni 4.372339445865071 8.105001205033304 1.4596281760082404 -0.9273657999275707 0.4501772807230247 1.3510810298043248
Ni 4.453369340793683 2.7602936632240778 5.243616665965261 0.47235895902638647 -0.7470432794829973 1.0234029307595018
Ni 0.5729300125094534 3.1304019188708776 1.3831709496306217 -0.07391587345285978 0.4295786306360666 -0.5786460497211002
Ni 4.445331848906423 7.1208716104834595 8.834854123760744 0.9498683519054609 -1.6839653556404355 0.32677564183521146
Ni 6.696980463837853 6.166599567286642 12.328434651605889 1.69576389093726 -0.09830535804081779 0.5480604636247594
Ni 8.967024549142224 5.108785166436241 12.030562769495795 1.1800291360283999 0.9061477710890586 0.1823809456354988
Ni 5.119994613794726 1.5634184888830251 2.8252560598188095 -0.1692264105314118 0.4615477273434955 -0.5396686400166384
Ni 3.1307855477036806 8.74954442814618 12.563557020510467 -1.1059782796595727 -0.5287980158507215 -0.6256990373448451
Ni 4.424119981492663 1.8871357261630737 -0.014554503644510086 -1.0767358378546878 -1.0302839741500514 0.9243108151513306
Ni 0.5704139687743145 8.277259907762607 12.551547566683576 -0.08426533500798392 -0.7825005918493426 0.04881984971618043
Ni 0.024359495202904247 5.362111191297357 3.7493552274756388 -0.3287967860302982 0.5022063814051222 -0.9301387346870176
Ni -0.024849791564827955 6.238057454996783 7.633314584220856 -0.4150850650055819 -1.832614713351444 -0.7080967230164708
Ni 0.18759262788045888 7.436401647063446 5.4965422197521345 0.5851702239928631 -0.501772122081181 -1.927101983197752
Ni 8.962954340794193 3.273944599944763 10.232034075549233 0.3885919038110598 0.16653703662470673 -1.4686434363025416
Ni 7.789967078895721 5.931753224005666 5.627121053317522 -0.861390007257394 0.4223882835352145 -0.2842783919029491
Ni 5.307252268206543 8.418323036624473 13.099030823737158 0.007559043294180529 -0.1039594710028016 2.2742279065545414
Ni 7.014606423797057 2.0445545428234646 4.751376896515378 -2.7182553656260864 -0.24796258819105038 0.7032566213153502
Ni 2.6739023214370246 1.5750302786759132 3.5973998468024098 -0.604836849183855 -0.673420511790524 1.2414034253708233
Ni 8.406982594054789 1.2601832885543316 1.0367559849697616 0.7261949752790784 -1.4604968959360072 -0.2892940999499856
Ni 3.244143189396538 6.088881979841254 0.7570924372166065 0.292669958400754 1.5772771728525612 -1.1727984226079158
Ni 8.706839989294656 0.6161462683647403 5.357323316327961 0.27057364072234696 -0.890044180658977 -0.7411356557493107
Ni 1.6866381986191572 2.659015651364112 9.160169502617444 0.7154554773743872 -0.4106689382157573 -0.04535425976508318
P 5.481915668741464 3.1978176686353876 7.44864314955018 3.166592507816579 -0.6375747057365084 -0.7098376169669774
P 6.831035348900468 6.15978781630419 7.957576387307469 1.134401310886956 -0.3509414404481375 1.3810881176893761
P 2.997984473948276 8.350851146055163 3.573584917406069 -1.2876791685089115 -0.36165059933552557 -0.17481727435562797
P 4.7767216628425295 4.029113278916875 3.6492477513957615 0.7075498493740654 0.37645578266915813 -0.05703606697838565
P 0.954693099232821 5.076083147639994 10.185061064172716 -0.895683124112309 0.3104365383555557 -0.22373713998478242
P 2.1746140739444484 4.555367826315255 1.6325493402341882 -2.78982793565775 0.19059124936043303 1.4857438434282542
P 3.227413229566011 5.358143907758127 6.253252899496098 -0.6895981499916511 -1.1572406773789747 1.4346238848239872
P 6.095796655632507 0.41792899317580107 1.0056100021465662 -0.5158393988075245 -0.1582902232348822 2.017569076141074
Ni 8.48394228063537 0.700439815412418 8.788799014542716 2.139323923454083 0.8803619203742064 -0.9088224897077446
Ni 2.0247181251273143 8.837947482105248 1.053181848774286 0.34963017783588174 -0.810306044097385 0.35911086363280736
Ni 6.727277784828484 7.826224681995995 1.9192192604264362 0.49024149573376213 -0.9131594265202014 -0.5095808194923224
Ni 2.702721267901243 4.070498408855588 13.145948629988952 -1.3108347806897682 -0.18353279985175489 -0.012208883361366071
Ni 1.5597038389653972 6.560979364208825 2.485929807444083 0.42657146837862664 1.3457336494494825 -0.08576300259943294
Ni 4.87059844526964 2.5444135551648452 9.817580198190576 -0.1774356858150815 0.08119518072309241 -0.5645304362553245
Ni 8.1177077405198 0.6999934960142545 11.125909840941752 0.8670438631090616 -0.8495629327154789 2.0920953294844225
Ni 0.37273564531145925 2.717645365177355 12.248608041260164 -0.7514442367641704 0.5208689908116321 1.2656928940458074
Ni 8.683840972928081 1.9650030224212627 3.1508727276612722 0.9079951087104428 1.1425627636518259 0.09694447313754918
Ni 0.15440311976252788 7.4937401223662805 9.49275698705596 0.5606928076767892 1.6026256789196787 0.9906013108484488
Ni 2.4679029950226665 5.981278770640441 8.784744712756044 -1.940007892626143 -0.9489432689880303 -5.095469837747199
Ni 8.098357876465254 5.775719213863686 10.044773614097176 -1.6841175649475835 -0.7698026846667001 -1.5519366372052434
Ni 1.9805914525541806 1.5346088992196072 13.342959813554762 -0.39206366440974416 -0.3136527313000082 1.7410621006534275
Ni 7.504753076907964 8.251949761598416 13.339097326184492 2.5317159177375235 0.5859950338870037 -0.10724225551913144
Ni 6.909660546023463 8.434716151626198 9.243309356126474 -0.11053249623462899 -1.0184805537572201 -0.2895681795469787
Ni 1.279505082206478 0.05637098210010637 8.45074715843696 0.35093835512434396 0.32511856584776266 0.9978477079982169
Ni 3.0811851466625053 4.874949357641673 10.49198565105688 0.07587222584828222 -1.4640056804202142 1.7985838490189796
Ni 4.0984939568494 3.8694488300644676 1.6409311623908915 1.755221422872945 -1.055974694047936 -0.002365414908383023
Ni 7.181868594899122 0.2846254592174328 3.2834913438010753 -0.6667037618919808 -0.017175740448338164 -0.07714466480280262
Ni 7.604608855046319 3.589886335759953 6.3011017074275 -0.17767582685034564 0.394720642416617 1.273538101121839
Ni 0.6041573994996097 6.091670306479676 0.41439399383353437 2.1341017558231954 0.35634795617568954 -1.4326132821518618
Ni 4.543550186904766 5.8433127428433975 12.204141716817988 -2.3049996405197595 0.39184049265534454 0.3071378129996259
Ni 0.572065444115527 4.403778296553309 5.724572133650259 -2.0511857357542542 0.6043370267293011 2.948979478451663
Ni 4.39329867965723 6.239947528758397 4.638971777143968 -0.26932794124070386 -1.6301879048086634 -0.12406884015816698
P 2.72752614682223 1.4379812173572764 1.5575583245419409 1.0702096067003954 0.7233125115249607 0.11147429132260801
P 4.264081260608252 3.66356178525971 11.799219612434365 2.343259969552539 -1.1094348707496053 -0.9484861268459535
P 0.3611350836795315 3.8313385804057787 7.999317075676584 -1.7947161385334576 1.2468513358592719 -0.34052127355607803
P 2.5998058159012642 1.5001571586737468 7.487905221387356 0.6063314314515106 0.4535713940062382 -0.43107989777194144
P 5.604508472823991 0.3001446490244302 5.6050726879122355 1.149375415698285 1.3769866939264932 -1.1048459658273424
P 9.32626955906014 8.373045477552932 1.2945190047702713 -1.1208937633188245 -0.574568537217617 -0.26388157341415197
P 5.411917441956134 6.252083299396088 0.6637143722721401 1.1744608979120033 -0.010057127125685905 -0.6400360227928074
P 7.614564491097594 7.706691551775091 3.9928322838146006 0.6186441873805927 -1.5894965977368885 0.945283817858572
Ni 4.037412761226538 8.376385855438556 5.787566795036736 -3.7764414655030443 -0.3268365769801339 1.6205789209639896
Ni 6.968963949494311 3.8116892987256303 1.6737155210341796 0.5804404226173617 -1.2478928897499089 -0.4578250270762696
Ni 6.007562024087839 7.7020318649766555 6.710872505985719 1.3510072391435957 0.6829881008743012 0.04094738894663916
Ni 5.33606185786996 5.049350767754192 9.584072813104092 0.3132608951782282 0.16722429249971846 0.11810542348588046
Ni 5.482168302363066 5.434317623071503 6.424216620994671 0.006964604243291231 -2.242704382024963 1.160626563132072
Ni 6.7972292276098125 1.5313340189395825 13.146305124099435 0.9169980835400013 1.6463082074092936 -1.0701093336771053
Ni 8.10722812362372 5.801862115299083 1.2984245334242208 -2.367278701064639 0.17545850748405264 1.0538561050430366
Ni 3.6140362386249354 3.695515259991952 7.8039358468101465 -2.209867538000601 0.9499447136693512 -0.09296440544387861
Ni 5.704018049332744 3.7818036769702044 13.420882314937673 0.35773558055183546 1.4292574783057514 -0.6003554163737338
Ni 0.8166101114257767 8.973162610467071 3.676499433725968 0.41255252839171525 -0.1822855577082151 -1.3064942443328853
Ni 2.1371307299393645 6.299400641042047 4.711306397089075 -1.2191561839368488 0.9129041159762858 0.3105275554074652
Ni 7.084118096940783 3.6235521050386073 8.907846526802096 0.2235401934826279 -0.7053230169260756 -1.4582322682715467
Ni 6.841000341752544 1.0598916106280167 7.1646707950285915 -0.6265320747691016 0.6471633778662079 -0.05057514184439032
Ni 7.453150320495573 4.111134994730295 3.8322901670471463 -0.497231296788034 0.3890711574403235 1.0499413433696627
Ni 2.5245864942694953 7.480706098851782 10.303615473029932 0.3084408480817656 1.7847700830643392 2.6709339548323032
Ni 8.431740688971775 8.374701631294544 7.109317832855533 -0.7815389992670218 0.6758574033667909 1.558304231294484
Ni 5.727803036966523 5.878372675441262 2.8577260299552147 0.87020786265934 -0.9668620582499798 -1.112317077393407
Ni 5.370934654451824 7.984972164369996 11.049397409439413 -0.3297254684921547 -1.4366519709976096 -2.859952460388978
Ni 4.650124148017572 -0.23575582431874317 8.260706791467202 -0.6127435056254416 3.201501918099254 -0.40476054315112225
Ni 6.800672530304238 3.429398488437139 11.23275514927776 -0.15892502860540372 -0.016371756489804063 0.9533845925888353
Ni 2.8088367457748453 2.0259906500361238 11.317935721041286 0.5116348738078736 0.05822031709447393 -1.2233684222459835
Ni 5.096883315818552 8.119083190237411 3.8576527112958185 2.685421606925517 2.1626641408419207 -1.9764666496738088
Ni 0.4144351637570547 1.9443525630555067 6.91452514675942 0.29473198313610527 0.6315590956700478 0.42536587810629967
Ni 5.220393086379485 0.8994748749912833 11.592430572032482 0.43096034147494167 0.9518804972394833 -0.6942446476247268
P 8.02653507352391 3.7823089442134084 13.269377932063005 -1.4608897604990518 -1.074405389949298 1.551687497308915
P 6.770852406154413 1.2869811660457344 9.680044583230337 -2.945216926085437 1.8346607972471953 0.01961520312776622
P 2.043057454695453 6.3866247381003065 12.5124492388604 0.8905038939042147 0.73689127865066 -0.943422082059485
P 3.6440528555915623 0.11228909504148933 10.418924943369687 -0.08758720029236529 -0.6323137144478853 -0.8680905592060211
P 0.9731821376137609 0.7675486621106855 11.543965150928354 -0.12693613440363302 0.16377875715327925 -1.0326110796213313
P 2.4994541273205053 7.942548429542475 7.659717604718496 1.1787530975294536 -1.1789628995474146 -0.46379538572709156
P 7.906983229701407 7.669133353363607 11.154709138124291 -0.23435579604089318 0.11590173096634232 0.42654704289859446
P 0.6175460457644308 2.4804785352979613 4.696707916480804 0.1376900304860274 -0.969824997533046 0.31801306515123295
