# total energy = -381165.2611011254 ev
CRYSTAL
PRIMVEC
9.26042270730376 0.00000000000000 0.00000000000000
0.00000000000000 9.26042270730376 0.00000000000000
0.00000000000000 0.00000000000000 13.55356469001605
PRIMCOORD
 96 1
Ni 8.571808512635483 8.302191302421368 0.4087596931978736 -1.0273454603470178 0.5136197654483864 0.07376160726318265
Ni 2.4763481853950404 3.7274313074945344 5.456949544040434 -0.11869626299234395 -3.394918809833941 -1.3583724212594155
Ni 2.55712685359692 5.7396563619013845 5.754626761421637 -0.3930478826998844 4.324260245430644 0.12278226013625951
Ni 8.898405104420863 3.946968151133415 11.723847152784325 0.49084956163140625 1.5147384308883913 0.45090078915261056
Ni 8.459498104753745 -0.4470404290241866 9.168295497107975 -1.3356495257406031 0.4651711830286956 0.19628290042857163
Ni 3.605286330584895 9.149168093786757 4.489699307216008 -0.5775402182514311 -0.8268649768973309 1.3622306186632411
Ni 6.716149426735933 0.8547194308797286 4.464191472576311 -1.908205660513881 -0.3716084818791858 -1.0635471070785554
Ni 2.8231139780681542 2.824632687409563 9.495396781936691 4.911774801285967 1.3680875916646504 3.703397710242493
Ni 1.6907309555916894 3.643772647797667 7.7835409498229176 -0.0702970457533499 2.1890585716750497 -1.7764561638820053
Ni 7.15022248569442 0.7266598219191269 2.1356220404808703 0.359722014854245 -0.05894176864153075 -1.14579412610493
Ni -0.028537844984263594 6.624721272298566 5.1343210434306235 2.4578751204969738 0.5343410571561378 -0.19098437103379365
Ni 3.8445756560849014 2.2409204562082494 7.616588491088033 1.2057926181457492 -0.20667889895091504 -2.3589303290999437
Ni 7.172327114950169 7.493802692919701 6.655573296943914 2.075966028022728 1.2923228379285099 -1.8431950599704514
Ni 8.39568453114614 6.675986972993923 12.445723966320294 0.21095335795655284 -1.60056082597085 -2.207374853485734
Ni 6.119870801776743 3.1029824763367766 7.532556636351782 0.7187786282103492 -0.12513301975662322 0.2369623804258048
Ni 3.420337166154317 9.001649558368216 12.614302555301224 0.8068419968081846 0.6310675007456099 0.43163602738572754
Ni 4.669170005510138 4.927415416509313 6.358058136961947 0.6516527810961293 0.0903277391519799 2.118478447463642
Ni 2.434657761888808 5.3471162992613 1.6962418332079843 1.238999443915021 -1.363057999660543 -1.520420311764517
Ni 9.054100593183698 6.565491607983625 7.661166314427504 0.39562438517780896 -0.9656119878929628 1.008078898807922
Ni 6.92382366875076 5.21835012004003 10.319345679891828 1.8867863142978407 1.1350605417375095 1.7209946404795908
Ni 9.549903630616761 0.27819791799307303 2.768559901231734 -0.9317973533363629 1.7474006412769454 -1.474308862118435
Ni 1.3744041727064444 7.597000844752986 9.548676624593977 -0.7696373627334294 -0.43210011150633976 -0.02689065374325691
Ni 4.867602345557125 4.77174770901492 4.22468637922475 0.6239074926620609 -0.5390598027880459 -0.3652439731137387
Ni 2.0935315667090966 1.6440491641889985 3.721768558944099 -0.4533325385225548 -0.946345683464183 1.5577887251106461
P 2.669733595008688 7.924838333195371 6.322155477714133 -0.46084401640825146 0.002531251062285963 -1.223283575841661
Ni 5.7195890256646 7.391160166455225 11.862039516387421 0.16725925950271195 -1.312835356059565 2.268244435277597
P 4.570472419164199 2.2327342424411443 11.086463363040714 -3.231797226648686 -1.7217551727946994 1.8548077045087155
Ni 6.8136338976933075 6.41772304114912 0.7112106585394187 -1.5748497943579909 0.4783753404237954 0.05248007217658703
P 4.322811671440817 4.366344919086929 8.426522665157268 -0.1855050930867773 -0.25051877895400076 -0.18609644681387302
P 3.4412379404443136 6.829645168737793 12.378511817540145 -0.5375788473671451 -0.8391463653678453 -1.6991423204911897
P 4.073910027060431 3.3027946193829707 0.9606632980772065 -3.455791734059913 0.8929497843415459 0.2054635384865752
Ni 3.510996705498166 8.961116687713668 7.950006310317813 -1.3841428453553 1.390874507652179 1.2048577650363057
Ni 6.0419906459154795 3.450340936069952 0.9321921281371999 1.2046700745055317 0.1310324159601937 0.17496819811119546
Ni 7.389910009375407 4.907107309279379 2.8691132763094926 -1.3217722535378784 1.385220137579879 0.24103912159833973
Ni 1.3639861970412932 5.407605381078871 12.546331977892653 -0.5191579216577962 0.09745098046032248 -1.0386542004916175
Ni 6.19097232813855 2.0155680670425116 12.469957566780858 0.13459313672825854 1.6900082194004058 0.8454597091803826
Ni 6.001078097925579 7.684484059071816 9.64899941514368 1.50944478658962 -0.4299419275127563 -0.6744954900222576
Ni 4.974300937213901 5.3735548063937495 2.0882383090289185 0.3382525321265594 -0.9215193684491226 -0.6043228856619142
Ni 7.873359642775304 8.843472276291374 11.50848120358063 1.0264293762906516 -0.39769103789885063 0.2104105980792054
Ni 1.3727743382912743 8.045436819495162 11.924981684208282 -0.9598450035021986 0.37581917752642374 -0.7473348425814872
Ni 3.8294904273217627 7.901131650792894 10.322435882984683 -1.0435202703346673 -0.15314596002978142 0.26580373013752934
Ni 5.875617889648718 7.946053961861026 2.7639787700659117 0.49168259905566297 -0.036334572764976134 -1.0386184621576757
Ni 8.379043551350339 1.3738392869148228 13.049995262209787 1.2143003985064444 0.6569893628176943 1.4555673198448738
Ni 1.7718707802832943 6.984525740293042 0.3887775528509729 0.08956257885118124 1.6826972875612891 0.7170675590565134
Ni 3.0006640646707714 6.585420037878208 8.137194644984689 0.5216531772758242 -1.0265458472638578 -0.0044780903760116425
Ni 1.7914380536881516 1.488548144305248 6.113932092626467 1.2527034237646748 0.18713671515292932 -0.2049349196766148
Ni 4.823717201844102 1.3128686631109512 0.6562713481139585 -0.3921320557538343 -1.411209619665105 -0.4392755462088564
Ni 3.2628081136744167 3.381313744418364 3.15620490437262 1.309938494127744 1.6344412807683788 -1.245749618154661
Ni 5.792014792488731 3.273911360627765 9.968226562454104 0.5993673414288517 0.7960834727400998 -1.747219892724707
Ni 1.8789120075841679 5.020223373945888 9.99694683776779 -0.8556387065959135 0.8411353707734159 -0.314258226094491
Ni 7.425831189468847 5.213831033707058 5.864098849711045 -0.5008149003742343 -0.8445325693804231 0.37396104127176244
Ni 4.6024949612531705 2.453271211743879 4.926355098097172 -0.7114247589484393 -0.5801115785230332 0.7742396373921311
Ni 5.125718110636912 7.619133255277174 7.17619241543251 -1.846687389394426 -0.6438672236134395 0.39785610272180516
Ni -0.1135161149320505 2.4377137014172527 6.831661162784285 -1.7200759853200636 0.5377472546242094 0.3935592751186641
Ni 5.206320830805336 7.079204303137936 4.769147382288899 1.985004254831175 -0.04649094447268767 3.141807844672731
Ni 7.321466224361066 0.6577474595104253 6.769151456708816 1.9070908301831477 0.1642595534444397 0.869016156344084
P 0.36505049751830576 1.0273327860804862 11.285497630570577 0.5109447897193845 -0.6696677296163112 0.18151422675982934
Ni 4.756625438560528 0.8496410150088229 2.8896603024480148 0.884490083609967 1.6717608431544433 0.7317153908766753
P 1.960107394812653 5.6565718484189516 3.5966148706623637 -1.142109478164491 -0.16420864560184625 2.121398192213598
Ni 2.4052559194560486 2.104505167743056 12.506795528732834 -0.8116265626810215 -1.5987803370316593 0.5431738249564193
P 6.49062108953674 -0.14578128009873484 13.55008124519408 0.18395008989483158 0.12465762278210145 -0.32954369149865187
P 7.340283403518033 6.821783069769159 4.292020765586037 -1.6811080886972984 -0.14096741568571852 -0.5503924541920457
P 0.865405032764189 3.6135373673116944 13.608185768137183 0.2575530600929629 -0.9644531916981712 0.7522957861311883
Ni 7.022317525794803 2.8377547065362467 5.370803534775869 0.8361412599929343 1.3659841721684025 1.2585850793564324
Ni 8.429012792851811 7.340774205927146 2.4361181305664927 -1.4397192970690236 -0.05474315717915088 1.4734002342612367
Ni 8.365838188418333 8.768388768119777 4.7063265260068965 -1.6694309094696862 -1.15930244500401 0.33244646696774355
Ni 1.404269036279878 7.705810812811231 2.636899839881256 1.5606873868146798 -1.9432505679331566 0.6045895090597394
Ni 3.00378482715891 4.088365547072254 11.863435062105411 2.1144883524676423 0.45711257439027725 -0.6572624139734229
Ni 5.40479947296639 4.953650194339868 12.366394554288723 0.17634785206754144 -0.18439489074173404 0.6684798799557972
Ni 6.439207222076367 5.9987537317993995 8.16956074876004 -0.11961388971060691 -1.9355308306913954 -0.3187412015665091
Ni 9.234225077328459 4.352445024443914 4.055795713995007 -0.07309080644840316 0.3091065066902225 2.241063503987431
Ni 3.685259342002002 6.993739860992442 3.341522633631174 -1.9641852612032944 -0.27137145403329394 -1.8306922995177506
Ni 3.456712106965618 8.790632303717727 1.6496582022871162 -1.0441098242895501 0.23348959138585595 0.3276858123543066
Ni 6.246562646287797 2.8292999405075507 3.326505931996855 -0.4125556137155088 0.4448514976347371 -1.8909005935765306
Ni 1.3190453651275342 -0.06356724636076808 0.6609182282817566 0.6318560580851763 1.4218830402185512 -0.8579151613349161
Ni 5.751759734518587 0.26745675357173176 11.17973897182937 -2.00005832095082 0.5951918698949233 -1.1703165367263264
Ni 2.282305285761637 0.5765205868443742 10.300573876806647 -0.0580663080151129 -0.39649676048043325 0.33044743425984385
Ni 4.331516468885477 7.002787294081201 0.6903450738561132 0.8663522363586758 -0.09921861388370655 -0.35574657514626473
Ni 4.714425691799556 5.618826365031257 10.119443710744342 -1.7389481396342181 0.18366084078918693 0.0595331223686265
Ni 8.11927017058694 2.9818005833997376 1.7098639151665953 0.9481652531714252 -0.7568754350820707 -0.2930450823519857
Ni 5.229221856423042 0.5392872048382644 6.223471782002414 -1.7458258405906577 -0.04101758006294226 0.3542525070992415
Ni -0.39838987173135243 5.532889641322277 1.0508950058870736 2.0773569948329835 -1.2700344588439547 -0.3088126295988875
Ni 5.5830255704343905 0.40325344579298567 8.73406593700394 0.8837508914510973 1.5374687826063715 -0.4634822253620469
Ni 2.365297195015935 1.7767602835288052 1.5494298680501104 1.1022486374138114 0.4042812895218586 -1.8603990825535637
Ni 0.7539030597940678 2.5600346263603484 9.573316757616054 -4.1505876262024195 -1.091502968861533 1.3220247358683166
Ni 0.5284562143156325 8.864836071722044 7.365413412906941 1.2606830995360419 0.39129387612325517 -1.3055753320630419
Ni 8.434985765566497 4.256312575217305 8.774374705426402 0.16730168270487317 -0.5687640147206979 -0.672778507331151
Ni 9.007372499666939 1.7946143787131708 4.3668773933987035 -0.18637952527193064 1.0263098199936518 0.39281391231220736
P 0.47709142709617086 4.805816804545668 6.2020163083858915 -0.2730105322986137 -1.1119895188506592 1.4688681507188381
Ni 0.9813084846975516 3.5198496697078414 2.3745437271951824 0.8787786350474867 -0.6849156569143172 -1.6812847234844785
P 7.8359382741860815 1.764582827529095 8.624810542608365 -0.5164256103282977 0.3842323412907834 -0.2395946758423293
Ni 7.8171118346063 2.2963163054784137 10.833255622052066 -0.3061595082467566 -1.8253706301945207 -2.0059921699367513
P 1.9501709611338023 1.3107109845954132 8.218963252385327 -0.6239383458999964 -1.0118465933804701 -0.1424951651841546
P 7.418098736419602 4.432575463048851 13.283415331730618 0.2860609377246687 0.8559865768536356 -0.8515334261782883
P -0.21260912133212495 5.947302822647772 10.076682782360875 0.47171824011859403 0.5638771189420417 0.21410193088786353
Ni 1.1891031122089544 8.993074406842945 4.860199563560039 2.3577252530482493 -1.3301255105985803 0.4775914110699194
