# total energy = -340857.44874030165 ev
CRYSTAL
PRIMVEC
9.33181580131535 0.00000000000000 0.00000000000000
0.00000000000000 9.33181580131535 0.00000000000000
0.00000000000000 0.00000000000000 13.65805569961796
PRIMCOORD
 96 1
Ni 7.508425569832799 5.234691347708848 9.431365641683385 1.0201402008478302 1.57866659700092 0.18559585302837067
Ni 6.553715501199265 6.414326170115575 11.25688715673441 -1.3016862814212806 0.3453876005094439 1.0379977978545414
Ni 8.451106928031379 0.9485137430099428 11.120361759888489 0.18405344824191527 0.6073768419968895 -1.26260319937689
Ni 3.9188866706343037 2.911433179674666 10.490110524446491 -0.4062132164372488 1.125201646665559 -0.07879094215697398
Ni 2.982177674482556 7.914200911836687 12.357521626985067 -1.4705499092966352 -0.4550132686590873 0.5782045913083075
Ni 2.4342601157640136 3.691423662991206 3.8006404343779763 -2.49244308827983 -2.0889400716848927 0.5559542645505392
Ni 5.410988009878833 2.4581122366885575 12.412167806532029 0.0228247112039994 -1.422312414446486 0.3887019470263628
Ni 7.959133604423416 2.434064147634352 4.91175080093141 0.6572253900879005 -1.9851423230709357 -1.3266871743409925
Ni 6.821594602631173 6.740687760527966 3.652546385611025 -0.8772606557410633 -2.5185009617091465 0.34018343060068507
Ni 7.5711820304030475 7.034089377894392 5.886772499613596 0.13824101789349094 -0.11669723028444419 0.8971532808999324
Ni 4.352965409650768 7.5989908411836184 3.6433134871592476 1.6359016673639892 -0.01922876632262495 -0.037622181228148116
Ni 0.595345578822964 7.7462375610851755 8.861114248454394 -0.1976836374308402 -3.0875585964108634 -0.8987591919344715
Ni 2.801448399855936 5.318248425470338 5.830514715495559 -1.0364165694103507 -0.30793922585499867 -0.3274047907787781
Ni 9.079343424464142 7.783639478403474 3.893064603415874 -1.1273372049513228 -0.9864520645667657 -1.0456460584284186
Ni 3.2751220328797714 9.090317639725201 5.139881033396926 -1.6940042279336762 1.2423372500390022 -0.8704305201931074
Ni 6.144039460233537 3.914790003542803 10.840221585810747 -0.8899045697573191 0.39393388484926345 -0.13543517301357966
Ni 8.634477106500585 1.135038075185132 2.848360370552248 -0.25718770633374416 -0.11516639546221456 0.6375405100644633
Ni 7.430616890541386 8.733151725693123 9.369631014932086 0.25424405032438796 -0.48245953779549816 1.2079466883742744
Ni 5.208730236436517 7.935766737915178 5.757348614513991 1.1976725601417761 0.6375309969827666 0.31962026173735275
Ni 1.6001171059509451 2.573033547011624 8.20255028418412 1.6048635671112619 0.6975827108590245 1.3377164355719608
Ni -0.06418049564579148 -0.011921394554422853 0.1332088695467866 0.9455707529713715 -0.8162910580362265 0.09326265341058777
Ni 1.6685286468342904 4.205205439885812 10.19242000458518 -1.177795618712191 -0.256281649579707 1.2031096719969474
Ni 2.16052063407365 7.531176536504956 3.4791715149361395 -1.5408911780243593 0.07171012405079263 0.35888692054745935
Ni 4.225128866401422 0.6041660110208822 7.1540349377893575 -0.4925632018884033 -1.6719575325462819 -0.9243036160624791
P 4.153171235552769 1.8241740008642076 8.673275063447331 0.08858170299515065 0.67835523008798 3.0079790969143225
P 7.825763294465052 5.180632139369301 4.69848055178367 -3.2058797354519752 1.700051719679337 -1.592554924947238
P 3.3973128276317186 7.012719519945564 1.7341499748238807 0.36701392052996795 -1.1998487418574884 -0.7644990130655994
P 8.774193051133711 6.416276519596494 7.54196504863362 0.4030427891290672 -1.643337554816744 1.1972637547391316
P 4.937799631271305 8.356118376039623 11.841424626615742 1.91527670842805 -0.269298116444033 -1.7571327809630448
P 7.948672639025759 7.684106332166704 1.4901892502079737 0.14943277284425233 0.31180667923020494 -0.18049015637068913
P 9.10405407243292 1.582806587830824 8.85682534595951 -0.21839644449815937 0.5092710015613875 1.8070993426891586
P 0.9323771673046528 3.1562813599634696 1.4549924409391546 0.020602249631383872 0.4612703053123927 -0.837824561232628
Ni 6.643020977430831 9.38883309209423 7.309900522669752 -0.5997095552596188 0.5663101538635666 0.09747129217529664
Ni 0.022798558932219548 4.329346584118679 5.3937166853846445 4.259230104503187 -1.3427946214258164 3.0833558711834255
Ni 6.743767259708365 8.78131322651142 3.098275726765163 3.5419558287525064 0.10572376199207599 2.2187807813298304
Ni 0.8966055181888257 7.315219657617713 5.983826182419361 -1.1692816677039088 -1.2262557710961075 0.15252915238138892
Ni 5.568490395232688 1.2071263514535597 5.123792049951697 0.017707958802724345 -1.332072607022622 -1.0880252947255777
Ni 5.576301124972064 7.431279449455958 1.6831637333937437 0.21823215100615317 -0.30369047788097375 -1.710021686407855
Ni 0.98571969219858 6.899916531785983 0.5532049654931301 0.3244523930186735 -0.2733424617167357 -0.46432554719894875
Ni 5.090094863465575 6.007869605565718 9.271374461082827 2.149805796822014 1.0410116449802007 -1.5006528993296024
Ni 9.067902618418175 3.934928061819472 8.186747787480824 -0.28537830983534723 1.1128189567304898 -0.3848139248258663
Ni 8.909560369651485 5.787358800617763 2.198796942522868 0.061582291588171356 0.03217169963653814 0.7391358517104625
Ni 2.317799055850748 0.5011576966181102 9.069167079445279 0.5703853523742048 -0.7607675710476253 -0.6517977913144258
Ni 1.6914475861890166 5.570123462979869 8.33624907405506 -0.6791265610363658 -0.15990744712333105 -2.3843348852159774
Ni 1.400574890876797 1.980603227412771 10.732608953542494 -1.0694907262565 -0.36214425114249243 0.6152410752363145
Ni 7.099384092334546 2.55963305966904 9.000508245445932 -0.7168598139210816 0.17091588241869274 0.6029308904103938
Ni 5.5899629031541975 1.1225614375966675 10.415155514395583 0.9663990025706325 -0.38847466150690513 -0.6118742156466107
Ni 3.417730840379333 0.856636418371958 11.38377092160097 0.2041918708630032 -1.1834276201869878 0.9867006902424621
Ni 4.0524809441694245 5.601254400148992 11.23685081524885 -0.8935768764025835 -0.4520055921810151 0.9783844570672826
Ni 4.7960400190002765 3.2032110611096085 2.4773525742950615 -0.7227617812278133 -2.224272400572021 1.3567852792779538
Ni 8.687379169693557 5.512266205651164 12.629208109221832 -1.5327734340132313 -1.074677155553446 1.6689128321826872
Ni -0.05393789473547091 3.1294150625684143 12.856245586069093 0.5560679073102682 -1.1230123523237239 0.31184113201256614
Ni 2.7751980022969605 3.0145870704023294 12.831347368604783 -1.1118545359346916 -0.6900912875779858 -0.819375610498821
Ni 5.555855116777354 0.8111792777429916 2.280130248603481 -4.703361950363081 2.430441706876369 -0.12133138662234588
Ni 4.879055851451271 6.358372603189297 13.21464703249961 -1.0985660463559015 0.8907643466544529 0.5934949418084746
Ni 7.36077758185622 0.8563620629904316 0.9157982635352692 -0.7814981187267573 -1.647752396054988 0.7401920608891188
P 2.7567023435831706 5.264553157943019 13.007043995025375 1.8584771829405027 -0.9079313453520429 1.9790382670557274
P 4.833637904448238 5.89055001860822 5.5461537611775285 -0.2085555471483376 -1.413762982214578 -0.5106969353746367
P 0.9591800083529608 0.0639723961557221 3.179403732900416 3.1463622968126326 -0.5341885907386735 -0.8246893094022508
P 3.4699610128420373 4.771525339161163 9.355085513803337 -0.6340625788181918 -0.26098908235770535 -1.4215158866871194
P 6.784332662548346 5.703176491204497 13.568486154235288 0.2016117688406528 -0.39582364567280864 0.8193411577164599
P 7.428834513743035 1.6957122259630841 12.79703801500886 0.20439755911590604 1.7312217175242377 -2.0900225061157944
P 7.246780121287274 9.075433393686605 5.325521642625497 1.4187676345180211 0.46027425994771054 -1.764391262297671
P 1.531938860460054 0.4428450466833333 12.44808876469903 0.6396035632410791 0.5250490903312506 0.302617299421453
Ni 7.779141543236952 4.004263452456937 0.9654267257813214 1.2899944469056492 -1.4429648005895148 -0.8094809770929284
Ni 2.240037035637828 8.797083995041342 1.3530656839758013 -0.11448916688953185 0.08803020136705485 -0.882702652692241
Ni 7.383799171183626 8.543071971736927 12.431343754610216 -0.9135366073539622 -0.3149884193922962 -0.18816669907934047
Ni 0.7963538221432956 2.110203483829072 6.209293114684619 1.3389438802211586 1.9102468593136264 -0.5838512480711235
Ni 2.510958308987342 7.018607895651114 9.861334649066372 0.8677501451474668 -0.1978553871220141 0.7081499448519094
Ni 6.451765414696666 3.6777245575462802 4.07791294149167 -1.6351915286708418 1.5233292578811959 -0.3652676272628225
Ni 4.5435957407331555 3.780505175646016 0.37848538017613675 1.2155615246070548 3.082013498222918 -1.0183674252181236
Ni 8.037660833523587 2.0076374974903937 6.96238463925116 0.5196351184045309 -0.7627329223041122 2.0488845984249036
Ni 0.3464725864235359 0.25843717030849106 5.279002541370078 -0.720777660918249 -0.9079022918863203 -1.6156138636492305
Ni 2.678193778114396 4.718371316944338 1.5330484133465674 -0.9921252036921431 0.7504201663750302 -0.333674940058206
Ni 8.427982688731293 3.6069520672912954 10.671776713369209 1.5501666897890143 -0.6193072748858882 0.6641010341618111
Ni 6.136350044098237 5.059402521634266 2.001219074653187 -1.1182306146643646 0.5772949350098445 0.27458147633015934
Ni 1.3324339726486987 5.9834295802521895 11.855916003213444 -0.18797515189382466 1.3994478511434867 -2.187316135062646
Ni 2.954704809067119 7.461869141314586 6.813676557011268 2.0496515584979154 -0.18198653841055756 1.7717099074462712
Ni 9.111696829489727 9.169946023077756 7.549626469321826 -1.889589845184907 1.2959936019118778 -0.9548676048922652
Ni 5.0106251209798875 9.282413065872202 0.09355611828208713 -0.1650943906409092 -0.0041263634635477315 -0.24355983113766444
Ni 0.9236024610036558 8.639199005243862 10.727802135276361 -0.3959082349668149 0.2228269694656872 2.6759933716330817
Ni 6.621744437638985 5.082368120067483 7.435473167430719 -0.26302333917891474 0.033216853071600855 -2.0671242613613816
Ni 4.430830079836368 3.4138954641273815 5.513169525410747 -0.9980798786136811 0.43691013130047335 -2.6803866156047707
Ni 2.9071312126378057 1.4069951800771436 2.410632891597796 -1.7383788973943093 0.46680409064642836 0.4424115207346768
Ni 4.299438114806017 8.40110705952054 9.57672826799548 0.6873543482627968 0.8190501088386023 0.8779121732821331
Ni 4.0054765884977 5.0321816152426795 3.5601903388277236 2.590664114136958 3.687711409855488 0.4802465893045794
Ni -0.07510711864678851 3.4110399285237394 3.3137585494149393 0.32869882699985326 0.9719924374980099 -1.357130064211882
Ni 4.600137212048418 3.688390822889298 7.633678133315318 -0.4101004673067969 0.7826389171994199 2.794698376376174
P 1.0739800050719508 5.809008613037538 4.149057771193013 0.29831867204609913 -0.9601352810491077 0.27356049126481274
P 3.678536425512022 1.7800811716903147 4.267773397778958 -0.1704047471102291 0.4883699897426621 0.7383521794669026
P 5.398128767846744 7.720491081573901 7.896527386085907 0.1558201644278349 -0.34969934051092033 0.6703848102879938
P 7.000308205066987 2.3958876896131045 2.385516309646149 -0.34586454014586243 2.063589765845562 0.04631328124424282
P 1.8260310321881448 -0.0522423038231119 7.039443973742007 0.8979343820403309 0.42541550039731246 -1.2078441013581391
P 6.143554205817231 2.6600340647657412 6.463442315679797 0.9479821906263416 1.2595618414474048 1.4584513262608882
P 4.126192956369335 1.7909247415315979 0.8169192775789411 0.26056742143925443 -0.1474090575460042 -1.9628984240710712
P 8.608702631542215 6.751755293946006 10.97401556020181 0.7088793668187663 1.6768678253637057 -1.4804157463471213
