# total energy = -340872.9554698523 ev
CRYSTAL
PRIMVEC
9.24096980775116 0.00000000000000 0.00000000000000

0.00000000000000 9.24096980775116 0.00000000000000

0.00000000000000 0.00000000000000 13.52509340518717

PRIMCOORD
 96 1
Ni 3.8874449412146443 7.854112715925534 10.658192570830558 -1.334355746629844 -1.2845776467654522 0.23807026877800294
Ni 4.808381502578094 0.4901872393337631 3.669101156625516 -0.15839358158196593 1.2016562273798723 0.832851533498069
Ni 6.405941867580305 5.11483978173778 2.8573919333750117 -1.16618477394614 0.7132394435596748 -0.9909381253625772
Ni 7.217225082126251 1.9451964052792747 9.52178709056102 -0.5911369830992593 -0.3138288518665563 -1.134273012839208
Ni 2.044767854121226 6.613142890868864 11.881131415749836 0.540483936829082 0.8087021899453749 -0.9065313796807225
Ni 4.804481813351987 1.888013284589345 7.65921974022051 1.1748979854494217 0.8673572805844224 2.131674891549258
Ni 5.48703831955748 1.1487541881198875 1.4586270055948503 1.1378296198422146 0.35792224264134487 0.7050965027375663
Ni 8.036862133308219 8.685134641814999 8.891301600590758 -1.0691917069588426 -0.8778952040012686 0.09262193450279532
Ni 1.6148224964580595 0.09110025189035795 9.469431452458101 1.2342189918072421 1.0727043480977911 -0.7197075677825218
Ni 7.4040682490993746 0.03124371865750689 2.877639822150659 -0.05642800108074153 0.7679741160983935 -0.2676461826629068
Ni 8.168582915841228 6.9933625904143 3.903179540374105 0.016791103415409788 0.7115610274159874 -0.2794562879239574
Ni 1.5637846206386539 6.4053134816386565 6.259454015418578 -0.23884365660891774 1.2550346430010129 0.8522265955905711
Ni 5.211916168752601 3.6094488488237007 1.1887417123360258 -0.021260966261305317 -1.2497584822037378 0.9932433764569862
Ni 2.5450554733700006 2.893874357772519 9.795373392196753 -0.07220788962281759 -0.31261786227759064 -0.3519467417842003
Ni 9.002903867924342 7.85963881582414 1.6392546963275012 -0.7347194678103218 -2.637488530689664 -0.950658451906924
Ni 1.6943964868040493 3.7362719173997503 3.8191079700604695 0.08945510673903949 0.5320576604385998 -1.508047906242093
Ni 3.134629342151113 5.5324669267507085 4.931803894293462 0.5624835810286248 -0.3476900233903754 0.5216434070838113
Ni 0.6293941314451355 0.5951101337464217 1.865381225623329 -0.12739867586234835 1.3841078783523066 -0.08588050201390371
Ni 6.846311039099037 8.562802684527783 5.223255762708421 1.0457033940289153 1.1374141295713507 -1.002590621999841
Ni 3.0415820179386204 6.606600284299946 2.9834461532695165 2.497515617706731 1.7952421862402566 -0.5176581971838181
Ni 5.628942650733072 2.121634240336293 5.374222712898333 0.19514338750748975 0.7306825787367869 0.2856919844210241
Ni 0.12297974926529649 2.27556107313076 10.59470618468772 -0.28472859206649026 0.0750193909296837 0.1410327217060152
Ni 6.770045315916427 8.077143520361775 10.961371229833029 0.3982039729795271 0.09577153587537054 0.03507884598100411
Ni 8.71680344508009 5.177974086933902 6.667586988130789 0.31675322460220284 -1.2951579933844597 -1.9753950138761853
P 6.925154992836347 0.7599237529799329 7.474953879705113 -0.7156156571013353 -0.9629400974877544 0.46801970822108424
P 8.97629911607135 4.0751567593423985 12.114953824636899 -0.3249941244547564 -0.18085782412275303 -0.8167510283917804
P 2.5080731125100946 4.869316456978448 1.8340977707959827 0.41774101457119023 -1.13189397108407 -0.8027140906827401
P 3.6111953921026916 2.958561145883299 11.822270134956918 -0.3574129071050941 -0.26858206421361486 1.128727143320314
P 5.970387241290961 8.037250254036882 1.2158343873907664 0.2993854227477167 0.17219320646921957 0.45826262883432045
P 3.8898660752839334 0.4143447525647922 9.34537975070411 -1.0103499542302858 0.7068304547095375 -1.6862546658952444
P 6.429820533362913 4.313906453289558 4.8424427929063105 -0.5412107876927776 -1.6703295100245559 0.35550232034594254
P 4.426174994540682 4.41516899959212 8.571067807854394 -0.9516395848732707 -1.2898874890141399 -0.392665302549485
Ni 4.688054835722312 5.939014149057232 1.26013836856784 0.2776266909143864 1.1854850169366487 1.9502521960619703
Ni 4.954444270132235 2.9095193195255975 10.165026966952782 0.4232848272075549 -0.09785387232569598 -0.8440944534017397
Ni 0.181383602056574 6.101738385034765 13.088381866358302 -1.4523220734346989 -0.9003944135450492 1.6265395094227986
Ni 6.47518445376803 2.5770107466967263 3.192232926963763 0.13314920519288034 0.21470254058633992 -0.09652409777067893
Ni 6.560968375772655 0.3040805776481291 13.191577623528401 0.40748796938461435 0.2066274768876893 -0.6267909848574431
Ni 5.097069396946775 7.371697132134794 12.797470594672554 -2.2986880964794345 0.998819584993183 0.5658057034233223
Ni 2.093606379144865 1.3045476967998366 11.587772211182582 0.5523657758683326 -0.6184714092481542 0.8497102569266206
Ni 2.461332287615191 1.5481673817947654 7.745604325257592 -0.41805366071560257 -0.3957585967628281 -0.622251959336509
Ni 2.01939215124234 1.4301324754320517 3.565214174919603 1.2308390195914156 -0.5148934899544874 0.65780054586508
Ni 0.28999826387641225 8.18617772220736 10.685012637278263 -1.0149828250166066 -1.6195893033572109 1.5551836833876314
Ni 9.442053231438699 6.34338050250745 8.53786407951713 0.7729029208585786 1.0969642490864204 1.1541198723618058
Ni 3.0006537630039567 8.481500632842263 4.590687358160992 -0.1438449943438297 0.18784016897785716 1.3992719876872548
Ni 2.2818356915775055 6.769333761247209 0.6033087220909767 0.36145442416431944 0.8522715898958935 1.0315420149268686
Ni 4.3066245691422305 6.085270976975707 7.136366596987775 -0.019796465900636873 -0.19196267578666296 -0.19175930152660522
Ni 0.566449266128481 8.881191055609044 4.603874221965861 -2.360870226435134 0.9645843179593969 -1.0675518573625744
Ni 7.348622430718706 7.424832708082935 13.206510106515289 2.306638204564447 -1.4017572160029537 0.393037084066607
Ni 8.921158249691775 2.5673169694498394 3.092011837949785 0.23965586809756792 -1.6823429895456636 -0.2624132163987416
Ni 9.342805216537302 0.834208212252407 7.622661539871215 0.0505453170477194 -0.412061961908542 -0.3081819379934241
Ni 5.520767859072387 8.119393233967845 8.91629565141979 -0.0886881466660279 2.041279018163504 -1.228662323655071
Ni 1.1408439180309118 4.699938722795235 10.156790490632334 -1.9474751475374652 -1.076402879995301 1.9190045509015987
Ni 7.886345218344163 4.264023698686417 8.709821892448991 1.393970115858367 -0.3966209447631234 1.7529686222830263
Ni 3.614873298055276 5.04349025445159 10.879841850292147 0.12188031714728041 0.26135572166850474 -2.5539017098059436
Ni 1.5914520840106077 2.5523003936384083 1.134727320166551 1.4883655973218175 0.40589337120398483 1.1262768820076088
Ni 7.818368645009462 2.502500807762838 6.659904969994147 0.24213441154504753 0.7277283812044694 0.08051898059167424
P 7.568040015990473 0.9387254280939139 11.402195057062483 0.3461738438561651 0.2578667346786398 -0.5967854396342884
P 7.477811187545664 6.551062056221975 7.81675979217945 -0.719340157140774 0.5807013895882321 -0.02173842011835611
P 1.5641450184581283 8.254588621119375 2.877788601763313 1.2361756013129808 -1.4183860828088861 -0.9036838829295984
P 1.3837058435079717 8.686206594303691 6.4669017725989315 2.8000367578699517 0.28098172342954836 1.8707138342160106
P 0.30867980828280556 2.8074712907959762 8.339639734224402 0.5966949368030111 0.9980706226423005 0.9774313491253941
P 1.9679014679061588 6.542920761889747 9.749590855862863 1.4213760186751458 2.0948302119170825 -0.5335640697807972
P 1.3725150291648065 4.264393337475621 5.788969447646385 -0.032455035204911845 0.5422058046161953 0.9555085809103737
P 7.491164388805675 1.91495995232235 1.2242593794937093 1.1767273253486765 0.4488050829658464 -0.26843653977468607
Ni 8.110337083632334 5.969426180439029 11.10778053375205 -0.24902933889266787 0.22170956803179237 -0.924783126802059
Ni 8.428559117258454 4.64317144574316 3.858397801061985 0.5168891802282775 -0.6264783387130307 1.3803628094875775
Ni 6.278665991487479 4.286488496100318 7.126222784515032 -1.7886187673864677 -0.023280053573863133 -0.8187189507514288
Ni 4.27588910381988 4.807124730694798 12.980478759207681 -0.3655129105044092 -0.7166788082585269 -0.4602601188803234
Ni 3.623661460268612 3.453951051175115 6.241059865170791 -0.5189830866428288 2.2414645960805912 0.3313462919250294
Ni 1.998184125711734 4.729177151021308 8.010763786596437 0.919990333399106 -0.6204210767753573 -1.015471077506935
Ni 8.818546521808617 7.742962332011753 6.507273721155841 -2.3287658897014216 -0.3930694799664392 -0.011313625240606322
Ni 5.9353639660138375 5.954086170687044 9.066167546696684 -0.3730441858844478 -1.637155337265432 1.6766521098084735
Ni 6.945438921393943 3.8916773053510347 11.07871491165993 0.8988229552928714 1.4145795645786026 -1.3179073712658336
Ni 5.064134580828658 0.5720807130820109 11.053990697147018 0.7515499091040992 1.1921493163307018 1.2085246723649314
Ni 4.194984413832754 3.840389923348916 3.666869462435694 0.9476322634860904 -0.6140144019180651 -0.9042220148212557
Ni 6.682958417179857 6.26049824499808 5.723088726246473 -0.2778390640355086 0.5062851794601861 0.1375463058193115
Ni 3.0918251703612363 8.016088433354927 7.912977693106344 -0.7253254281899314 0.12651395926454986 0.13268614951353278
Ni 8.866239166585723 3.768929504425964 0.806682135717324 -1.2412748702127592 0.00273231132949852 -0.15673367738103974
Ni 9.240914284293092 1.306987312808586 13.203845010845125 -0.7756917964576254 -0.32043298744663523 -0.5377140873934287
Ni 0.9572443314330572 5.911180348230136 3.036492091811275 -1.2467577477042013 0.42607447413755006 -0.3344161890996047
Ni 1.7212322629002932 4.3142391281998425 13.120584797673793 1.5155110473883577 0.12254854685889861 -0.6265986663409789
Ni 0.8842859513168541 2.1345253931097985 5.650730085065756 0.021929453083239653 -0.1498626612928193 -0.419997928926167
Ni 3.589857992995864 1.3523697151531635 13.58622709730741 0.09062187335363102 1.9717612737783397 -1.2846650642729358
Ni 3.8940707165111337 8.754016830183248 1.5601325894013138 -1.462797519044726 -1.759670459783234 0.0021291305278608496
Ni 6.771662485619196 4.941904274208474 13.380848393249627 0.36536172963852565 0.413189647755082 -0.15525889260772616
Ni 6.164336713986541 2.4969654668945007 12.516026696475306 -1.3324081359851698 -0.6624838102733623 1.5098232529749611
Ni 5.5717872529523325 7.568076979869393 3.244156087683313 0.11458841147155747 -1.1381777472102528 0.36923329677878985
Ni 5.092458153051449 9.149863009542305 6.4910031457520345 -1.5894644589473723 -0.7743699923224083 -0.21148326231809386
P 0.4120428270050215 8.202543479599386 12.897231483393972 -0.2583817266418453 1.0793712185950057 0.6521016957080897
P 8.266343134616076 5.7302236789750935 1.8565893670221008 -0.09546120372380333 -0.1335497830654087 -0.4304772311909361
P 4.68213137412531 7.141430648399877 5.2353198486910815 -0.011473033636606046 0.5827976099956286 0.1179933233880484
P 3.145006951158028 8.695179575911629 12.83459711466025 -0.2136558444893804 -1.5350496316419178 -0.8602592360870603
P 3.6224693751734276 1.8836515468767323 2.188265328478289 -0.09165802792762924 0.8453848900783891 0.3652671130421903
P 5.76478490576571 6.026794120523562 11.383354567976733 1.0277704636995784 -1.537665729108526 -0.647259022903808
P 7.785322937254584 1.4222776511614568 4.689420651048422 0.3262719627259155 -0.47005036549786794 -0.15621534298372453
P 3.408716504346219 1.5067493554644058 5.7043970167733775 0.19570234533475328 -2.2166339101901564 -1.1998855086326947
