# total energy = -340890.85480604455 ev
CRYSTAL
PRIMVEC
9.07513653588388 0.00000000000000 0.00000000000000
0.00000000000000 9.07513653588388 0.00000000000000
0.00000000000000 0.00000000000000 13.28237964912492
PRIMCOORD
 96 1
Ni 6.480990728127131 2.191309734376854 11.406389585682488 0.17959464113961326 -1.0752574535369483 2.160970812299898
Ni 4.833926017129902 0.32184881575521584 6.102947758376334 -1.0561693265572456 -0.351428150276569 -0.6880655153972085
Ni 2.5284601381316087 1.6623926168932155 4.919342111317949 0.6817015208523938 -0.7603443674672775 -1.122860400126892
Ni 3.2339975661822593 4.170379246616687 4.579645224203564 0.444621383901802 0.003793662714477338 0.8519044363644619
Ni 5.3180482598340335 4.27743863433424 3.020785396904054 0.024295639322571057 -0.0009060567540371493 -0.7482146740832791
Ni 7.520565788042469 5.983056127356871 2.6471783539750207 -0.5239067491966912 0.1456987597231168 -1.3708366151646971
Ni 5.077983668557229 4.7833502802688415 11.444430743725585 0.12782162233237987 0.27258758582858217 0.12030320246814766
Ni 5.637175442091199 7.541856058754123 12.30981762971105 0.01061762761484623 0.7048154811620377 0.960101856708011
Ni 1.664325621011537 6.721209596727932 0.5945403385164778 0.1721466695020003 -1.4170629931220884 -1.8238529079984136
Ni 2.8787785652463858 1.6114901751107487 0.3416589316701645 -0.6816169315583874 -0.4390675439631084 0.47689515633384316
Ni 0.61628708860443 -0.030376297581435684 4.785588208980475 -0.8295492085977132 0.615727785064746 -0.22814683901670385
Ni 8.682519066434642 2.523632165404158 1.4819952344292768 0.17698857097533388 0.3085966569333395 -0.6337944127584698
Ni 6.9744966621849915 1.0393663317711066 4.894144994254476 0.04313925439163538 -0.8279109016633418 -0.6051654361678674
Ni 0.516868965993105 7.650149665063657 2.605299320619066 0.7508747374139455 -1.3892678252866912 -0.37266674794037113
Ni 7.670096815542862 3.971588377077565 3.98297404358858 -0.2537105464184211 -0.7836976974812374 0.4376642358576785
Ni 7.727506130343341 3.9349883507433363 12.79902104145672 0.5589033198765343 -0.23991169286211583 -0.8976119657039058
Ni 8.06094480318545 9.048691757374337 7.045478751442567 -0.4019729531036561 -0.036298320210402 -0.9115794836275914
Ni 6.83777065257639 0.7090032227585702 0.2808010649215065 -0.144753365090712 -0.3886710937884274 0.38745007689713273
Ni 1.9807574876670997 6.1343931070617055 9.013144446897973 -0.4444612041748539 1.6957721184673764 0.3662549308767563
Ni 9.320256148156746 4.945740776481261 1.3148030833858533 -0.20088877463169919 -0.18420257222526987 0.1258462437735639
Ni 6.165430074595318 2.0458262178472184 7.054125541695791 1.497379113674337 -0.05406901393026172 1.0059392267571
Ni 3.313305185853676 4.308638954328557 0.2804525796720063 -0.07201788509919854 -0.05350877055141752 1.0545829559067321
Ni 6.185322774254289 5.895172503498534 4.59770928381633 0.0993646525432676 -0.8744350133668102 1.3102102597318919
Ni 5.253905193597898 2.6147646882031474 9.593637381307644 -0.2492568815224417 1.052863145002148 -1.5977130721094095
P 9.371893676012379 5.663783742912413 12.319673228173478 -0.3289896187673947 -0.126354293758234 1.0852369333471634
P 3.92336310062329 6.1677260841818695 12.849494229273008 -0.18557785530624168 0.5280205142547487 -1.6988240179198228
P 2.192298924277779 8.521562441821729 1.3381733754304617 0.5016582222111361 2.734768789900077 -0.12780928103720568
P 6.50229007397549 7.9471516640322415 5.78178048538772 -0.6295994008405156 -0.3946851611929912 1.1376905231611891
P 4.798106452552366 0.9879103066495899 12.698314249433183 0.37847332731981914 0.36001897726937354 -0.4546186043238299
P 4.199483210031978 6.035492267242607 8.190858107669056 -1.396927141604162 1.6926489994573621 -0.8489594948035252
P 4.467308644491625 0.8361712983886915 3.6984657853227807 -0.4374747455546917 1.9373694265620311 0.3682573060187658
P 0.3181361773288997 5.7097765357370776 3.7439313127048415 0.6619459354920212 -1.3133693741861638 -0.8154302526978279
Ni 1.5393700637102736 1.3967452152429447 2.623283519028821 -0.39648596184715584 -1.109778113021637 -0.8134278775558186
Ni 2.1111036761715694 6.459110573529603 4.868802675003711 -0.8613653246670456 0.38645480286339895 -0.4983073034610322
Ni 5.876196392646843 5.568821512423605 9.304718606602858 2.4545319150563536 0.1362034186381719 0.9210437143642847
Ni 8.740772368948754 2.281952199793733 10.51457136404157 0.40758361442221414 1.0854019981701177 -1.8592235741882237
Ni 2.554896011355415 5.351236034766906 6.915763284939147 0.1287158520118751 -1.145730619856846 -0.37914155703143737
Ni 0.5268951770256007 9.298657322797098 9.19988081235087 0.12460362961571445 -0.3246719652286473 0.0764314407858619
Ni 1.7056537935694533 1.1925546393639108 11.573149760218717 -0.7192560820674 -0.05607498861669697 0.031915617761674064
Ni 3.9795563471052002 7.0676257150592425 1.5191325088564849 0.4760567195929479 -1.6446300483759224 0.608059984106843
Ni 5.7435541945558235 7.939419647558956 8.060996531464673 -0.17579377933628434 -0.09619473945571819 -0.1506334780205728
Ni 5.052210280312942 2.66895232947309 4.936077570916994 -0.21708158234147776 -0.46626698719603565 -0.3283848953038602
Ni 0.8047150595392734 7.440749960715531 6.838499386053861 -0.2362738389992124 -0.5622136151966898 0.49890225673255373
Ni 5.045857684618928 4.23482179236411 7.548283070569124 -0.5215086812781599 -1.0414515607310968 -0.9124099499486866
Ni 8.11452441029611 7.35089703219205 8.72380095579536 -0.3394936036225121 0.24431187881234054 0.9264733700202883
Ni 4.724225764630979 0.38725332599344686 10.53591608557346 0.016394639307939506 -0.5827289615412222 0.04428262396745922
Ni 8.19646381961219 7.183052378819484 4.754813512897658 0.5865732749879768 0.6228260866724241 0.7920509545419392
Ni 7.0030107417144105 5.824731292388621 7.035437112677672 -0.31950147677130136 0.8450437046888866 -0.7229263318301357
Ni 2.4287697614191117 5.387282477762084 2.73788343783517 -1.0161557622787853 -0.3925614299817691 -1.5087462178606983
Ni 2.2870796520324737 5.383788550130377 11.447339325039774 0.5812996852938633 0.3479905853499297 -0.053377901400508077
Ni 0.9939089720120807 3.3443966042075237 3.794098668414144 -0.3367965164063232 1.4018852569403857 0.08909669495835623
Ni 3.713500564303171 2.5704054199855157 2.44436992141627 0.4076414642433432 0.13755427623911148 0.7649633542965277
Ni 1.2067663034450917 3.1224550609320723 8.29709075043272 -0.40632737341760994 -0.1354644835896183 -0.7633790405285433
Ni 3.3910246566015894 2.418968613776918 7.005405670291053 1.1544731419361665 0.6878868237274992 0.7225383523630976
Ni 4.229585438484901 6.834757707190087 5.820697394122921 0.8340360407244731 0.5531427632436732 0.6617096511114992
Ni 0.43724190150964615 7.213653739791222 10.811206727487244 1.5425893916623883 -0.33720737869149664 -0.3607607405314045
P -0.10947518910862063 5.55057141250837 8.02613076375491 0.9616558314586922 0.6960950705699044 -0.06337126516779408
P 8.475796527414708 1.7753417683327912 8.092582544768984 -0.0881495005537385 0.3187607419505349 -0.44249893824216047
P 1.8617098443612698 3.2323186658916985 10.546356122839736 -0.17440512651887385 0.12607070107954416 0.16476554654658074
P 4.268898930694144 6.077882230795095 3.6164864454051955 -0.8349927482107877 0.2939092301244938 0.5933064799467525
P 7.032305283000523 4.014459322875456 10.47413981499018 -0.023811243486984796 0.5146435787272104 -0.21759991673879298
P 6.603332646057142 7.929037691167594 10.401006918333346 -0.39672867398558126 -1.3448785005380386 -0.3047137769391655
P 2.4899271076790592 8.427843505061604 5.829344184376146 0.7809671859239518 -0.2125135033548211 -0.751493601944867
P 6.957943612833732 3.8462335137612493 1.577455689923231 -0.36389260129216683 0.7143185355564665 0.8142598865388105
Ni 5.27509563780579 2.93126008081565 0.42783733734149315 0.13688681785844167 -0.4294791289437248 -0.15018919139430262
Ni 1.5751079520574576 0.8158693100642921 7.032754502267457 -0.8086111728934655 0.5277878294186523 0.8943806032508017
Ni 6.98984271835439 0.6051283005110586 9.387030096523873 0.0025194239877440482 1.6257049293366452 -0.8971057154914485
Ni 2.934881060361239 1.7227150505762348 9.465980155809085 -0.6361765398374011 -1.322448967889929 -0.8039883294094734
Ni 6.241978852708192 1.9230668436287432 2.54474456343638 0.6188938414975534 -0.29502277490364676 0.32830339133364744
Ni 4.278654702652809 7.038639728421125 10.14937152775673 -1.2355569938923754 0.6077730489940436 0.9924838725831423
Ni 8.133745549838856 7.362231877937513 0.10382954656398297 0.22819748974898119 -0.6032864739775997 0.12496075584481706
Ni 7.597296068889457 3.8191623809680424 8.302284451169411 -0.03091751551446288 -0.7985928694255149 0.08067324678135138
Ni 3.2887478659279576 8.359380673753542 12.394532215831743 -0.4466520411785856 -0.25864706448809005 0.3437770614892144
Ni 0.36399012056196617 4.706992080026788 9.910276161080098 -1.3038827748519675 0.20513855104698867 1.863082800033314
Ni 8.98351412555375 2.239244606456545 5.78573815250509 -0.5705776708906689 0.3526702502137862 0.4227220127255494
Ni 3.769348955590264 2.890912023021953 11.67302073215166 -0.2834191292264474 -1.0613583269573528 -0.581748599905824
Ni 1.1593396390209212 3.4893809882183433 12.626456409483504 -0.5169128343773614 -0.27339516933154207 0.4243592912186563
Ni 3.2222543392850382 8.072878607953493 7.871072070487054 -0.07219889076175308 0.3175996317628982 1.0441324499973694
Ni 5.399179981983302 8.04901099841741 3.8400950912934904 0.12181912489204182 -0.19705268871506063 -0.9751194131627657
Ni 2.539350302178491 8.485425247459492 3.4654788931627794 2.3502065760737008 0.011717802657560466 0.6478408635492069
Ni 3.3670935211085666 4.246447042484156 9.368514095103162 0.7980267125093998 -0.0450189879128515 0.13127692787083198
Ni 7.374619439540841 6.105597698294409 11.446356487734542 0.004465491970521342 -0.8989157721169938 -0.8680962156329759
Ni 0.23246507179942158 0.2537444523470287 0.6358331180412419 0.8879880694608965 -0.006915239062594542 -0.03698377631320082
Ni 4.532685929319739 0.14998841439036215 1.5359215117620946 0.8700710799711597 1.2720311775590092 0.0774339139084473
Ni 5.971975385439168 5.399307033897183 0.3552834344064842 -0.3479185944614137 1.0760246707202759 1.0300556601893291
Ni 8.34923467091653 9.012146181860343 11.419153765459102 -0.9739639594020839 0.6315536963534092 0.6006431228174818
Ni 0.24094397202358966 5.150248982144996 5.980417985116514 -0.36050105911211466 -0.8637024574406544 -0.8706508637340296
Ni 7.649886486099191 8.673471155139024 2.807948030771796 -1.2336757177092625 1.2174983366184515 -0.22017050567944663
P 8.519302732782002 1.674217520020788 3.4164141665632237 -0.4286471199607328 -0.8766186512816903 1.80754620041859
P 1.8436503223168574 3.387267550005415 1.6401612545051767 -0.05771946619865543 -0.14041385717509366 -0.2002107747280681
P 4.5839150760236125 0.9978929570258983 8.242115387296717 0.9026896373371293 -0.73837094851998 -0.05928501091356242
P 8.624220388237001 1.8256815516395024 12.526346761455201 -0.39558864684386713 -0.6636534051014312 1.653257127923301
P 6.418027429662742 7.450578333767843 1.3871582408270067 -0.9711678847141855 1.01534920721709 0.012737245061010321
P 1.728323485060379 3.4263632389337206 6.034928701253181 0.14547944462345913 0.17384051226465547 -0.1969830118193898
P 6.47010056408025 3.9410868426095904 5.988958596270281 1.1674479569292797 0.575404659965667 -1.147207975733321
P 2.31266246240594 8.633513328223675 10.243238389245157 0.9376404423807013 -1.1395666571379794 0.045510325726973236
