# total energy = -340861.4029308468 ev
CRYSTAL
PRIMVEC
9.31929015007863 0.00000000000000 0.00000000000000
0.00000000000000 9.31929015007863 0.00000000000000
0.00000000000000 0.00000000000000 13.63972314292794
PRIMCOORD
 96 1
Ni 2.607630555509862 1.8923098073262001 9.792871233116664 0.2028626105286184 0.5561458117360552 -0.311826733834863
Ni 1.8019686093521727 8.057439559103376 12.871261067052252 -0.20083503857562832 -1.201027592656938 -1.2383656669857641
Ni 2.513077038422542 2.4993776820142664 4.244586223243826 -0.7969015977660212 -2.129711854285616 -0.06288969754568524
Ni 4.8815746106423745 1.6327116630344207 3.0824269503954977 -1.0968025266975756 1.4316871707931664 0.4264416276689817
Ni 8.496955917557171 0.0069671012590656976 9.084082375345627 0.24985980521376322 -1.1002866285914341 -1.0117154671192448
Ni 7.263724942820115 1.7123263581336694 0.37316487698737355 2.16094741526113 1.6488885665419604 -0.5015273530602266
Ni 5.0190155006486625 9.01987992217019 6.089468299527172 1.3569248901796116 -0.36385069231063794 1.1979900913821948
Ni 8.022520179197386 8.763226673541688 0.15625094509095655 0.4561491820357435 -1.394417744918747 0.7021003962237198
Ni 8.663500950463488 6.4284742506785655 5.254921213786185 -0.688646327601343 0.3079482247160632 0.11155322418965949
Ni 3.545756890774507 0.8569963235994196 12.357807325012082 -0.6893022160177871 -0.010186196504382457 -0.16122436616254168
Ni 0.2812347400557877 2.1537718096327105 1.962974256238709 -0.21909604166834526 -0.6480316394037743 0.17255804600780605
Ni 3.9438396855608233 2.6664445951647093 14.084378218023334 1.1597266770256218 -1.9054561227932019 -3.6075084178423356
Ni 6.559531426984399 4.2055253508291015 10.361975115831674 0.21988588455949226 -0.6377395134491468 0.1508749046074176
Ni 0.7915683837792986 5.178962476182832 7.814156695943548 -0.16996251736648793 -0.14502204537106636 0.15055351671225684
Ni 6.402492069953211 3.1936461539215384 7.00559365478593 -0.8858347705633197 2.9163714626086548 -0.691603353347138
Ni 2.9760034535413613 7.980154686522542 6.886914359555926 0.9237130336663318 1.1521887167773641 2.5765045348071243
Ni 8.41478773697774 6.766475582360019 7.650780221662274 -0.5226710770173773 1.4673717686789696 -0.40236144679132635
Ni 4.364596313096347 0.4001954778460146 1.0637056328651826 -1.1724418105994454 -0.5270419523915634 -0.22501934913131572
Ni 9.808739188325077 8.563262666431237 10.949479004868115 -2.1011957491237943 -1.553987349086685 1.7807869300468748
Ni 0.14625227877093033 6.784993011736374 2.8858514371558295 -1.2209832098432585 -0.5025030867099346 -1.067571140636284
Ni 2.8206508880135055 7.9360278480237785 1.362715986807463 1.4320715507157789 -2.3976094908376964 0.17627688962028995
Ni 0.26357654922422313 2.341136136563577 8.610634481733648 0.37975785045919763 0.6475595848633622 0.3062631237041564
Ni 1.3946224402326413 1.4856812235423402 6.204055494485832 -0.5192790206166928 0.5936273536212809 0.305352696074745
Ni 5.844667324014345 9.276579767249062 3.9594755904464045 0.04931812950883765 -2.838249264383931 -0.24896249021047442
P 3.313482904978689 6.474940230985817 12.883509409996059 -0.21979512461789888 -1.691177300007842 1.7097020982849074
P 3.2557219451021653 0.5445885582472505 5.444308758592042 -1.4604261905990719 0.670434946799639 0.03307312840488497
P 2.1080886496916458 3.372949294938692 7.870147922635085 0.8887316324951403 -0.6953869887592863 -0.2758048072142992
P 7.95359470981262 4.67706278997598 7.926643322919605 -0.8892959896390426 0.8321624778508443 1.0254834674376145
P 4.257685417371358 0.4828044608459291 10.266033024523379 -0.7464694092573984 0.2832028994505832 -0.14406225256095834
P 5.215904142034806 5.206016375266657 6.078869470926403 -1.2079767702812616 -1.9026785600480651 -1.6485754061769158
P 2.9236104047472637 1.9323268389024817 2.245657213971943 -0.9408602348695796 0.05179127363967855 -1.3392745240877
P 8.08089621221877 1.4463445001414357 7.378722186542015 -0.7079735671750452 0.7867624524494902 -0.6903874786621658
Ni 7.680101504021019 8.816784633594992 6.417762658667904 0.3199035973057265 -1.0162706905900951 -0.23125016053237593
Ni 0.5649549347742197 1.6289000733942953 10.971534036756431 -0.04212623974608874 0.3520678407430969 0.8749975707384995
Ni 3.8837209452956647 2.840370505809363 6.297105810084273 0.9946065753531 2.4029702409289775 -1.8635347999690681
Ni 4.479614991185417 4.460612958725231 12.184869259115235 -1.9433672960166792 -0.8633381321227003 -2.5215150659451218
Ni 2.236545744066929 8.872243728823323 9.841101355034857 2.277797883293987 1.1973712268512733 -0.7959320347639003
Ni 6.369268800840625 5.842039284213574 12.454035518525638 1.6808738611993053 0.949616898016287 -1.8998912271109152
Ni 5.44865341162438 5.572478818833057 2.732527681077008 0.5060275549234252 -1.2986485230362215 0.016509310508932857
Ni 8.471411743465278 3.542606970729611 6.212893909191689 2.3228490099963546 -0.7849691079944933 -1.5763472048391238
Ni 0.40851480809476787 0.3464129229019348 3.9829219923427175 -0.4227842334220525 1.2753291315839907 -0.3005174794696308
Ni 1.5177209428155718 5.7936628494412235 0.9034697593387305 -0.37971491303640414 -0.20736949726003642 -0.8242961877288901
Ni 3.462134900943586 1.2588590224396115 7.589223514938749 -1.2748614479189526 -3.4770010211476765 1.6219477762870584
Ni 3.223505159317534 4.151538703432409 1.686893083593653 0.2142482266577407 1.8358764148218512 1.5782019986596754
Ni 5.706397017191502 7.498356709004568 0.4016968154768807 -0.169966631131546 0.9595585826100314 0.43610306201814575
Ni 4.953444975690415 5.348918369256107 0.5044857892022913 -0.9112863778672047 -0.06952108681927381 1.6738552637896271
Ni 7.2831183854633945 1.8529171681848535 9.96582234601961 0.44059786456470573 1.9084892531925715 -1.3363894892304211
Ni 1.9660906268393394 0.5230451553839784 0.5991865510727752 0.6172714754027822 1.0662750475326799 1.5143203695143663
Ni -0.26949802613702456 6.439899700308868 9.865120893270701 0.8367552394278492 -0.43246880769966806 1.065188242226404
Ni 7.821633562369643 0.5773458628561535 11.703796322364992 2.670698956003362 0.950188454249041 1.1344766442095817
Ni 1.9039496006281973 4.22489083560216 5.819387817760545 -0.970994849471431 0.31764102652379494 -0.3616845378972545
Ni 5.879875601912621 0.2033851184964897 12.819634995831217 -1.1598575461765315 0.023175666785514925 0.3858971305877161
Ni 5.601144955099624 6.464278963141553 7.6113335306384995 -0.1661446862822945 1.276649650167627 -2.247937348289129
Ni 5.993272723528874 6.847040845046779 4.692869237869909 0.5124797383066723 0.011305140600174079 1.8751209621447706
Ni 6.634561031367408 6.308041065056701 9.433832536022937 1.4534942393659291 0.6914789119541317 2.67764581963484
Ni 1.3740920442003757 4.175824773364358 2.9300174166729027 -1.1780727836329774 0.780397943684043 0.2167437393860848
P 4.433819999763468 7.338530884241357 3.282604369248635 0.39768075348620546 1.9254891301846773 -1.1838132856611807
P 9.108366581419562 4.192478344725982 1.1578053005259157 0.8403583833980752 1.1388968847644643 -0.6978791590535207
P 8.708941808862637 3.486588718096861 10.821320127775188 -0.27841242004047534 0.15262813985309842 -1.1850648986800945
P 1.1834939236139501 8.264868317562826 8.112593913546299 -1.450380633437612 -0.8974397017920996 -0.14912758289900768
P 6.333734347789773 0.3681669417208715 1.584281176379642 0.48550680926225415 -1.999534587236866 0.9965338742827999
P 0.21542657320066141 1.1111016783217855 13.375821410575133 -3.171489430897564 -0.7661743438854934 -1.7806560608959656
P 2.5254810135105785 2.6979251570335214 11.763401569747094 0.43424235466032307 1.9162025626764287 0.1888740095590102
P 1.2706665629629343 5.989386579568159 4.4938390236248384 0.786352104384949 -0.6009102604359393 1.6068541151787292
Ni 1.7491282346345394 5.326440241598448 11.988197757187809 -0.34431776448403284 -0.38439380656931216 0.959703849938644
Ni 1.6875277272476692 4.340636418316976 9.897855831583428 -0.30500585425828763 -1.2230071822518227 -0.06995637458447951
Ni 1.0350189941604528 8.306665333543176 5.839288229783832 -1.107034231727913 -0.23736218696738476 -0.2925928253059154
Ni 6.218026042235251 9.042600351369765 10.407231452287366 -1.0990542988462297 -0.28966459591552696 -2.2644430592536358
Ni 3.7287504706608283 4.409272989709457 4.28070406385329 1.9026857591369166 0.4161723845324897 0.542904887565749
Ni 4.395871850583538 3.0186858020787084 8.640218568072472 -0.09091086534895956 3.1275778171162782 1.5973202075463653
Ni 2.7331707120920905 6.089326646318053 2.9639256536059024 -0.17429636885515143 0.2936230663426427 -1.7249325420814166
Ni 7.479382634414603 1.5038724777661179 3.0884835570143676 0.7001360734084974 0.5583700730808835 -1.4368160073792997
Ni 1.5146921735416334 2.7161816462878146 0.04991225377649019 -0.037309535083735745 2.7691801775004112 -0.712839894128411
Ni 8.069852853481487 3.905938132831262 12.86895547468803 0.2995337754001228 0.5774592285018507 -0.023928228680823307
Ni 6.945713488346656 7.642060161940353 2.4775742709579394 0.005700907039519214 0.11156325149198852 -0.24037037766608924
Ni -0.28183024269149437 6.496290724544565 12.957014378523018 -0.10523808060490907 0.5482373555222558 -1.3849198327306407
Ni 7.023371132530436 1.4695308938446932 5.234802730375175 -0.0762028697148236 1.5653382553231299 2.118966957064286
Ni 4.323740545413436 7.973715057081645 11.97783191083888 0.5743597636409205 0.1454658177767043 -1.4464712710808767
Ni 8.13819120759161 4.455161174032142 3.1101294720684494 -2.2236450514006676 1.5226191191880487 -0.5911932902584914
Ni 2.8004280285536702 9.12075191792745 3.437264511524018 0.7161879846650375 0.45970553192843405 0.29649627412537966
Ni 3.252758410858742 5.733534789885991 7.457477643096473 0.43880503433034107 -1.0609122405588696 0.12633809580831787
Ni 5.410192701490399 2.232491852884888 11.530040022799678 -0.09354341787580019 -0.09761373129043188 -0.31138116165701213
Ni 7.571466539632405 5.944430324252839 1.0047005477638256 -0.018517084967581015 -1.0022538074857126 0.4137061823801843
Ni 4.524636481531252 7.543545946571729 9.351817191800714 -0.5374577484082486 3.1540650647735293 0.2594790734710821
Ni 3.3209662949078353 6.8119537179194625 5.025582804363569 0.14004567520239752 -0.21209081399510568 1.4584042750730366
Ni 2.402037697194923 6.646116951058743 10.100023850796296 -0.7366861046183893 -0.8129784487232257 0.009350073756332285
Ni 5.855589531980672 3.250354034019739 1.720746336715218 0.9657983928721561 0.7163944442488888 1.600150992126941
Ni 5.801984975476998 1.429830718130916 7.995155947754108 0.504353509655112 -2.9555345059613614 0.8272354728628721
P 6.001548253114281 3.4222483394283354 13.363382022184817 -0.20278239210998625 0.6177622989962717 -2.7410829050435632
P 7.32564230606949 7.796014833957161 11.632010762856622 1.3942506232132634 -2.318305613600046 1.380633546650461
P 5.804967148300568 3.471882878360631 3.8638745851548055 0.31873040293323174 0.38889092310871737 0.6629808045144389
P -0.06489674028592268 3.022022107925078 3.9642079259458076 0.3539969394450097 -3.120068139002794 3.343352507720874
P 4.202599093745974 5.547913170198898 9.48772319473187 0.5729420573577874 -2.459681577578093 0.08441960119766106
P 7.932756777207924 8.48385299571361 4.1852130261845595 0.14617415669763859 -0.4853381448948738 1.2167390898549237
P 6.20020755961442 8.618917466751114 8.100099541344548 0.48828720022086874 -1.3697827199788861 0.36934231155282843
P 0.8984065890417129 8.591733097606259 2.119489869167757 0.3345290605283851 0.6368208582896194 -0.13086478003407784
