# total energy = -381166.75890753185 ev
CRYSTAL
PRIMVEC
9.32950400669341 0.00000000000000 0.00000000000000
0.00000000000000 9.32950400669341 0.00000000000000
0.00000000000000 0.00000000000000 13.65467215451218
PRIMCOORD
 96 1
Ni 4.911386621897571 3.960169081312519 4.732190179138911 1.4728438475371344 -0.0073718669840389175 -0.5833928203774662
Ni 7.073219224580718 7.891575302647167 0.7983993366526759 0.7334897091682786 -1.029287157454421 0.5426827442526139
Ni 2.712133379781651 6.899774420867261 3.6497298449311892 -0.3454500783162631 -0.5746729240059653 0.39844334268384285
Ni 3.382486210787141 2.9699448856617914 10.297138391241399 2.154458722212993 0.7270935758339478 -0.6961688612306333
Ni 3.8003266940271296 8.730829469053036 6.996176182836555 0.920812572190085 0.7717407822296773 1.4402787691169197
Ni 1.7445892076814278 0.6006511757409205 9.012519839712079 -0.10369310471529239 0.6600705728461794 1.917342589818143
Ni 7.416330382999837 7.367863611159085 11.919340370233984 0.15669151128919467 -0.0877214118773844 0.5865480781769963
Ni 5.866149373897347 4.741561665628621 0.5219838673985912 -0.49454706508765156 0.6686534294191839 1.094202370070567
Ni 1.4880838323225012 3.5164952022636675 3.1088406711884016 -0.8574734458118071 -0.8717944904201695 -0.7506312539445719
Ni 0.639409666007565 6.447470750874676 5.360536919631796 0.1907318887033554 -0.7505901162939912 -0.1222425855827056
Ni 0.5434174692517081 8.000142737471196 10.356767914286664 -0.4177376721370806 -1.3033289592310264 -0.2932307160002305
Ni 7.5033746527350065 1.0657185397768796 5.212985220551029 1.9393820861166857 -0.9603293993377848 0.8935866465945965
Ni 1.138292749237747 1.322671731314508 13.047558188401313 0.16186688484254702 -0.47307963924249485 0.007867832783850965
Ni 8.276361354196727 5.833113601214363 13.429779559377431 -0.356122984649077 -0.3846043799182215 0.6479056553488712
Ni 5.849981343945465 1.6915229905052593 3.8945854689912616 -1.7310934194764895 -0.7820478205826403 -0.4513306776011775
Ni 5.849151018114122 8.19374859872996 3.5833000466222598 -0.2466233005543366 0.23915604564301393 0.15483286081390107
Ni 2.6890241990598915 7.001438022936301 5.993062344842193 0.15221470646476368 -1.8399562413181794 -0.21423819935541166
Ni 8.223677646673199 2.9335504916385435 3.769508544379092 -0.8583954434054443 -0.8933724737012614 -0.47814831201465396
Ni 6.080699971014144 0.03338096432073321 12.817148367905864 0.35915920037223953 -0.3249074782782211 -0.39362920912465116
Ni 9.252264761632716 4.522896757369999 10.194973794822435 -1.2397625473332907 0.21942257176982857 0.10530801461089606
Ni 8.01771019298152 0.7410527431684159 0.7057200466688404 0.8163730762270714 0.4035076445806277 1.2322999204076583
Ni 5.718360705422015 6.497504879340885 7.769003349784611 1.328157845349248 -0.13432137112411058 0.24671766004035572
Ni 8.092598119365679 1.5511419479859545 12.244827163170068 0.07955250291334685 0.21122949443607494 -1.2468994154883881
Ni 9.042901368585882 8.964738786394966 8.254126347973806 -2.725816465802796 0.9280507418097371 -0.12873539239590087
P 0.6015468080983243 6.224094443235963 9.030011726242249 -1.2808654880211876 2.058468385458597 1.351087714672544
Ni 2.2850007108335997 8.131362207334558 11.806675417374835 0.737327337746814 1.282513822257888 1.1268798056989302
P 1.8232555830733848 6.785973134454655 13.8913073097009 -0.5204149339933489 1.6522402566230125 -1.5565736217566224
Ni 3.452326875657183 1.7494592086248102 8.1732087633335 0.3147976435377288 0.21597857908528612 1.300669153010676
P 4.493882000791609 -0.02185902722288371 5.124079714823129 0.9008584976656614 0.5569737069539892 -1.7079180098012912
P 4.9396923361930165 7.927997685181584 1.2172166189324576 -0.8383809479567302 1.0492664287898252 0.09679920580893651
P 8.052714490950047 6.792559764083061 2.498313282806361 0.42878158865606797 0.6474382287941495 0.4552760354021708
Ni 5.721514077680374 7.031115174279021 10.23367164331488 -1.926584420131385 0.5729040050310005 0.6532185829213525
Ni 4.555652644941294 2.519460468895183 0.35343238838782354 -0.4889312615627708 0.2920025000200842 -0.1287122524674493
Ni 5.455585903561263 3.0903887787251416 8.077626131791082 0.5235007720075243 0.1990380945762056 -0.26842522692077636
Ni 1.0022592554533394 5.283521866398803 7.3321082881408595 0.9672032436394826 -0.8198021565132785 -1.2815805118103412
Ni 1.5584003018824135 8.388725897035997 1.872191628951401 0.8650569145860197 0.2514754864403153 -1.928015496150957
Ni 2.961119175139876 1.7733240791481293 3.990892070022582 0.9120937042598485 0.36167862435998355 1.5565689937709322
Ni 4.518427925086704 6.277216637434469 2.379750217693559 0.39432289275756605 -0.8308825826971561 0.1694781215309017
Ni 7.381792560217456 -0.20639567791256255 10.43688036275568 0.20063346408778351 1.1916551503031028 -0.02501760509026014
Ni 3.708682978956542 6.380382289602906 11.320405823178088 -0.9258208240379538 -0.768445142197541 -1.279140534910281
Ni 5.698031716809696 0.5857771479554132 1.5062194546095535 0.450301722116031 1.1203039522536256 0.5300249462792872
Ni 6.828758238528126 5.076920006453962 2.8847954381327527 -0.8522823885291708 -0.6712265894629988 -0.16046049141332366
Ni 8.248885965732622 6.746873184351751 7.013954485131018 0.23629517915545112 0.43554693240435954 1.2609816046130669
Ni 7.285073595121582 1.4944092358466647 7.638450939437439 -0.09911191310251317 0.057330201180036754 -0.05086901893572529
Ni 5.586142978660296 4.847796724521909 11.812888866854323 -0.03512255473474596 -0.2319371592970715 0.1417793700640526
Ni 5.159299524327656 7.038709390309507 12.95097823291091 1.1664843074644298 0.387460618420094 -0.035962019916905806
Ni 6.0795711010636655 8.89943226033428 8.486050346923491 -0.7103839763887507 -1.3306034786762633 0.992115176389814
Ni 3.4675992732516603 6.4744889936563546 8.042670347241913 0.2770723610728132 0.5279719204050004 1.6693815442889894
Ni 7.49293493806902 3.1955789332014595 0.2799168320013099 -2.187179352374465 -1.9471095366679305 -1.6446007377998837
Ni 7.82730435149973 7.227967702833373 4.7550754517713205 -1.1340575543942921 -0.752561123977433 -0.5805247548010518
Ni 1.6546807803033097 8.032684046456863 7.902969425544012 0.5285149373926641 -2.061130505671792 -0.870973537180771
Ni 3.6310148604629413 5.387592480428366 13.557464080280166 -1.3413648309578254 -0.6914948527937317 0.12558501969237726
Ni 6.688853000698692 3.0629040607573157 5.660708104215642 -0.36295414863829745 0.47233761887014786 2.014180362174499
Ni 2.295039256839499 8.977044401805543 4.95854353141562 0.7507446395939845 0.14434070303332563 -0.8012701591473619
Ni 6.539804849220762 4.850940767276545 9.597103744141325 -0.19067455310285872 -0.7556816718842857 0.5906788125159183
Ni 9.425131136115352 8.858932884672932 5.787382239865181 -1.1882337833263794 0.06721917815897456 1.8488131774881773
P 9.127006844648323 1.8965201758097507 6.580609299653851 -0.23712795946939164 0.7754156599781032 0.0030922657720785455
Ni 4.24188277573087 2.0601410121029367 6.177414271358158 1.0789855531208128 -0.42355582148075444 -1.813049903845639
P 0.1316504929353635 0.6107251738609674 10.782520749634093 -0.3166143850314934 1.4934990618936408 0.3413319423828315
Ni 0.49624096777584126 8.017383660351216 3.7442199915876504 0.27377440704783174 -1.5284390683039355 -1.1998132606338627
P 5.711279612096292 2.9305463914397523 2.2001367461184835 0.001032040808940158 1.3256294225004397 -1.1563140517996473
P 2.2511626008304417 3.9890438953350644 11.817325978824961 0.7416529617053614 1.480542758843289 1.2757279096843062
P -0.004271046804368827 1.9741882943033517 2.115381936596926 0.305750445733796 -0.5425585599699236 -1.025343856535957
Ni 1.897994237397978 3.552003293433235 0.5882354721864119 1.0244090034265132 -0.5824258284785067 -0.5912632242644785
Ni 1.0927554415660035 2.9939123807260635 8.342375989589984 -0.16016867120451772 -0.23546419861372353 -1.3343675737043859
Ni 9.034029010545352 4.054564999981378 1.314037275618913 2.0242274619978557 1.322735388782096 2.3793099211975606
Ni 8.07030993497154 9.258879379772292 3.305946029293646 -1.657235395844759 0.2836587560410792 -1.9885253806105558
Ni 3.590328894727134 4.043985342759547 2.3359323375579564 2.01184322940089 -0.8965711831442171 -0.46415302617682647
Ni 1.0116260771911862 6.089227137416924 11.94536595381954 0.27825583985795305 0.10906902431522507 -0.08282603145829608
Ni 3.681944621286553 9.086964614669398 2.7880932661435796 0.5433571446118189 -0.47550418952358753 0.316045657012217
Ni 7.932298586397867 4.408153191081375 7.801637953807507 -0.0675009710654515 -1.0171638918283255 3.209353295822873
Ni 5.418622409810915 1.2889642343634713 9.6823362242535 -0.7748888409403558 0.41623100568456706 0.21368618350668359
Ni 0.526719523488363 1.184809654800401 4.079346960720663 1.219688659401551 0.6773257603822013 0.2883556472961163
Ni 3.2853007705051183 4.230407486151635 7.30542684044358 -0.13869687448398693 -0.8292350197914041 -0.7339530219579424
Ni 7.7869915659128415 6.900324861586914 9.578452200298393 2.09851228875436 -0.1795254784645747 -1.395483724289416
Ni 6.761445869167005 8.658245930088446 6.470334565648521 -0.37043503039637493 -0.9224156550111469 -1.4656195618745531
Ni 9.027983492132877 4.979025523888995 3.725595503305515 1.103171663448713 2.7607703561701613 -1.8394687601587996
Ni 3.244792065340048 1.1810312057926042 11.623594169265937 0.08788673381065508 -0.9492731415236232 -0.3813915294078786
Ni 1.745988633239871 5.5619609050103955 1.8420974487922648 -0.2548821981290191 0.17720402942024965 1.1070000360558676
Ni 3.7197384408682437 0.18257932080860287 13.588938094039927 0.0009482228458822379 -0.7382930440941929 1.3583045441359574
Ni 5.693460259985448 2.0389257206369367 11.810689902826821 -0.1596876178030411 1.1686216655224066 0.18249150307143408
Ni 1.201425500930984 2.5100843176536136 10.641085473194094 -0.8417920305208083 -1.161476312726877 0.4595677207989891
Ni 0.3013625622092667 3.921871468529788 12.60113210575419 -1.9653252883450087 -0.9761583959502413 -0.12100074275580451
Ni 4.986685046445541 6.518011128523939 5.436593832832442 0.4178420589254288 -0.1539985378380638 -0.45764787806845697
Ni 8.258215469455578 2.4033547950630076 9.594769502309843 -0.6181628768687999 -0.25603765188970096 0.9329047274679289
Ni 8.554361906133341 4.381452151426277 5.793090030242885 1.6996192601276086 -0.4006033264496391 -1.509907328048335
Ni 2.585839887884009 1.559753079922242 1.8013107244162498 -1.2161032560431377 0.06996357367333111 -1.583180168600557
Ni -0.016007562487846294 8.151943092547397 13.488958467392878 0.8230335189663825 -0.28071844246583266 -0.7946968768052185
P 3.839529268670987 8.234527859502995 9.888958609106531 -0.16343731465346045 0.11634576048229639 -0.09935693923378372
Ni 1.3224664822326029 3.6768973597724344 5.362954194046415 1.349683892346482 -0.6362439027402268 0.8868267021629436
P 7.389274822203267 3.582053624924873 11.529076034098306 0.41833468229113113 0.25566587037257904 -0.31556203250757914
Ni 1.788745748802174 1.2554060094720019 6.555116430730876 0.32457683441167967 0.05934671738943328 0.10713658317920258
P 4.389578149168972 4.611200510107769 9.212997813413171 0.8006350966665243 0.9281762116440079 -0.20422580942473215
P 3.132567465056621 4.688756674556695 4.411810356540773 -3.2113286743816887 1.708647431768148 -0.1982906748872198
P 6.779181255744343 5.290854856325045 6.235856148579492 -2.7413099334527047 1.2038275239995782 -0.6943582903844558
Ni 2.2811849438109113 4.990351541408663 9.56033243816767 -0.3931707814309938 -0.24182279384189964 0.9158230893952938
