# total energy = -381165.6563994022 ev
CRYSTAL
PRIMVEC
9.31511972555640 0.00000000000000 0.00000000000000
0.00000000000000 9.31511972555640 0.00000000000000
0.00000000000000 0.00000000000000 13.63361930509197
PRIMCOORD
 96 1
Ni 3.6323191175333216 8.307065327285923 3.800057408188078 0.7009629401851669 1.2889212684461286 0.7361919385907901
Ni 2.3693006774015366 6.185286008641664 6.973118771770067 -0.23573622132818756 -0.6181536208974193 1.8402904847291468
Ni 1.4484358963286696 5.890229594422306 2.836679352644628 0.36202932283118294 1.7129339749586434 -2.4128826149466835
Ni 2.5247234483960117 2.4849944631822605 1.8134078724285267 -0.06775088229272848 0.4717256963177618 0.9625346345192198
Ni 4.565377390199342 8.650048031991739 0.33719056332107844 -1.2484261365455598 -1.1590895576622553 -0.4912527106070958
Ni 4.189475052727899 1.1501937111965093 2.8174417675887216 0.07305943898983547 -0.06283056217297565 -0.26055816546787386
Ni 0.44746667552611225 8.555052442024605 4.798966124528905 0.21972493350159578 -2.3895758218999426 0.27871426755161033
Ni 5.771322092369896 7.299625824389703 12.238286140421074 0.22116552260286426 0.9627336379039031 1.3472230895108155
Ni 2.3769763359750726 6.802626931753251 4.925921889939975 -1.5329973770985792 -0.4812593468398099 -2.0721898488097477
Ni 5.0871824464053645 3.163293529139987 3.926250265301608 -0.17953216333279404 0.5730315317478002 0.8411965630286544
Ni 7.04447538265703 7.674438292864661 5.774083093827659 0.27619535778449855 -0.2232542868110929 -0.3700982158822465
Ni 8.535369594250477 7.1029370734428445 12.495443990433596 0.584858092069083 -3.232382923948826 0.3629685468160007
Ni 8.582317797175989 0.6500956782597958 1.9816733988542319 0.6706480912517095 1.6609192724542492 -0.19358761298459562
Ni 1.5147595480805822 0.4886544084736202 3.3141286037176334 0.7871648300942313 2.349488981181386 0.641642705158295
Ni 8.718486215899226 2.605820879878055 4.052716055420241 0.9446934925727408 0.07266991686090066 -0.07517005757493504
Ni 4.180281029654987 1.7951167035268336 0.23661242216083622 0.007128383514665142 -0.3148858323761609 1.8084648555781178
Ni 8.255785593733355 2.7206017839352272 12.22229394304359 2.124720314608296 0.26110709599280835 0.18095424049130127
Ni 0.4784403798014331 8.285873430132046 10.850029642937635 2.4557498466238545 4.275586948594656 1.593191272979656
Ni 5.787409303967586 0.7381086545537241 12.487440439649152 0.9115164916001398 -0.5413552836904418 0.9416675612622234
Ni 1.7534222280715583 3.646506044726884 7.0976349073505425 0.3093304497755705 -0.021364324608389013 -2.01870164708362
Ni 2.376445374156272 6.748534032073004 9.468997952237736 -1.6536679902084745 0.38764368096517754 -0.03150809791061025
Ni 7.577439952177489 8.8119354960081 11.835971712756178 0.1325408821849201 2.802949817751689 -1.8597485934537583
Ni 6.5068066777243905 1.7665565467471478 10.539674076241125 -0.14265457358015432 0.6218770924955935 -0.7548776879257516
Ni 3.9806207555467714 5.323218262661223 3.5147194582766934 -2.075342535506116 0.01110228056074862 0.5599705847987839
P 9.205620396849545 6.734654503827168 9.985426321394433 -1.0372254384648911 -4.462691524958069 -3.3161018995350378
Ni 8.156272170746604 5.515230823554786 0.5961303957184538 -0.3829601594465792 -0.7682340546279995 0.6023930156290529
P 1.9127294039509413 2.7715461731811835 4.0423949028723305 -0.018494716370077827 -0.4063877943419001 -0.1153402020359175
Ni 8.784539729181924 8.104545311451888 8.145569098293942 -0.19052208668539444 -0.6619315373143181 0.014035652157459697
P 4.015533823912806 5.068775770020284 7.8426572436922255 0.18417300453891505 0.7856177973220857 0.6519867673967803
P 5.699800603865516 7.503859822235304 3.807379092215747 0.2772376830060838 0.019637828835585534 0.8500624980597167
P 5.2177059026339885 6.304780363230644 0.36082861088928814 -0.44384105409235175 -0.7062691828894287 1.231251681648802
Ni 6.327490624883897 6.062046975962198 7.510419529477397 -0.708776779802631 -0.6178160350523425 -0.08788493403844219
Ni 1.9623883066882228 1.1030033151606682 10.048495270348294 3.789410109848571 -0.5054243741217876 -1.8983683627084857
Ni 6.191890428457971 0.26805653997737494 1.5313283513630438 -0.9397636593712912 0.6028244467395166 -0.14276384546450896
Ni 4.473381268752448 7.163997682604893 5.987667608755924 1.1034462572663384 -0.16318483232302217 -0.9405748424186768
Ni 1.020983686835445 1.4371366562198116 5.756673135242781 1.4095664276347273 0.45115558547589396 -0.5139594081759923
Ni 1.4983742526547936 6.017762897250316 11.560981929239626 -0.0615313837455779 0.1899009081616278 -0.49245058756993904
Ni 0.1351614542914431 8.827631472581412 0.17972964415198037 0.3927102968548075 -0.8566789749349697 -0.7274085359712053
Ni 3.1415427248084256 4.8542951405837975 1.328574526026344 0.20227691322847746 -0.09261319275204695 -0.5778484935204693
Ni 1.6537225026922437 8.535201922097173 8.018504345983224 -0.437247202924918 -0.3879619835365447 2.6787333962720643
Ni 8.255068329521993 4.797994557551696 5.225902276394734 -2.1474383250311013 -0.07239455171232692 -0.06301491026963986
Ni 1.0933807965848639 4.764711635120575 4.600024046144014 0.9976042245288431 -1.8361911178487924 1.8233358591526794
Ni 4.200084973984279 2.906196227405045 7.847443352157132 0.34182687974137904 0.856161668978919 0.07324532974839644
Ni 1.1428720271688402 6.417074130347118 0.2683378565901429 0.3146030110284194 0.2394828328548134 1.118617565690138
Ni 2.397199460687629 8.110190273946502 12.788539571971244 0.5011977376349497 -0.4907621441239226 -0.6088647393963256
Ni 3.865811906130715 5.98867177865183 11.881780676551175 0.12139026488473932 0.12530708344064226 0.2356683442047296
Ni 2.6748924919202506 8.697760074726753 6.2571363208689155 1.1424979718521613 1.766029312121726 -2.990917513446346
Ni 1.523385348856182 3.381826235614687 11.845678998920599 -0.23178032200423307 -0.08719484994995305 -0.24315102573501995
Ni 3.5209568623796543 7.126979397202912 1.939245823484227 -0.05278269101867039 -0.4570531819072516 -1.537134024974772
Ni 8.282566562664078 0.6099987458207358 5.682260233605846 -2.6917686321894676 0.8488947030038606 1.383265070736037
Ni 2.296735895498812 9.239005785596573 1.3086830195725472 0.5666120013747016 -0.19879409688619956 -0.8813926756315659
Ni 0.7966448662965638 1.8352834993631042 0.39623258605972267 -0.5684853071380145 -0.3314769039656227 0.3624137027537952
Ni 8.529482438645532 2.943074786012604 6.5198422561319225 0.9703538734533222 0.16902817847767665 0.6998727924447818
Ni 4.554814044541103 0.7924335007127098 8.706592671158097 0.3054398564719127 0.028041222407932352 1.4296179469689636
Ni 8.16476755984741 3.185174745146341 1.030640671353873 -0.5331665772320624 -1.16891631394469 0.682787811938037
Ni 3.95547924767059 7.860889727340262 8.080455480581715 0.29497855192927264 1.645158924296199 -0.27683196292723294
P 7.594561142053895 0.8435017810497197 13.653796814912338 1.1479163146542553 0.9555785149163607 -0.3532672603678368
Ni 5.262343955891736 0.23919923088155337 6.474837187160828 0.0792452560855732 0.3300507130420574 -0.8254673252188558
P 7.334641359071647 4.2595061220917865 8.06229565486678 1.652560616076909 -0.7914256622531144 0.9824185179273404
Ni 3.734887899758084 0.8329989836690622 11.869905762049303 -1.250014306968286 0.2628616167900699 -1.9961859824796073
P -0.1346929037741508 6.615868098329923 5.63484254865108 0.6848344100544206 0.5199966155090078 0.5333943769721523
P 7.39916719273534 4.088983542180198 2.8738988446305744 0.6079990489619206 0.2746958904208366 0.26600813283885155
P 0.3257907199202371 8.165065643675508 2.434486953046861 0.24679350758361368 -1.5332238912870886 -0.1169481699529857
Ni 4.6893709475686824 6.39808060142547 9.523328387468498 1.3124610034392816 -0.7599162787909235 0.9298093763720567
Ni 6.906155171299706 1.8809275855406844 7.7934678229842 -0.28632139047490685 -1.6110151885349544 1.6369396217102001
Ni 3.8459148106051413 4.332974470598434 5.821882698687175 -0.9010862974057513 0.19181663712710192 -0.41119909968761437
Ni 8.127376669660306 4.029236364885708 10.191921098773767 0.15451815778695968 0.4911591224520251 -0.34101055448767076
Ni 5.581787353297401 4.214216010460073 9.653133647973796 1.3123571308715658 0.029651247207529575 -0.052156884509213394
Ni 9.304286143950142 1.4714628720492775 10.570976604239315 -3.770777839459364 0.8139883780449787 -0.8275424625803296
Ni 7.084698069211068 6.602100351519625 10.460394024598518 0.4417093524613296 -0.38872842938892405 -1.2904883558229323
Ni 3.090141894700693 4.5687401483850785 9.94740200307262 0.4931769242130022 -1.007761367567503 0.5311318061902207
Ni 6.790703578629312 1.9888153010730791 2.826399186623081 -0.6392562072039893 0.2376102984224488 0.8083571479011303
Ni 5.988699724010714 5.687253137726495 2.5558536466810837 -0.09864242966526238 1.4022714366352107 -1.0675708835259679
Ni 3.9472819423978818 3.8189195939229723 12.910546214323917 -0.013558198300408908 0.5384432522499695 -0.5366092843650242
Ni 1.4246916563966998 0.8464882084024813 12.161215635154248 -0.016779790561500134 -0.19271806589544874 1.5369316791559788
Ni 0.9791122241072361 4.034778861064415 0.64772498031445 0.43545720090403073 1.1378949258625113 -0.2055944076374846
Ni 6.492750162205621 5.0810530976900905 12.206492705618482 0.127911868053341 -0.494579975208116 0.21876565491212
Ni 6.48059393109098 8.321587598786095 8.180893894947538 -1.082329272782065 0.389064215461788 -0.19677398113237726
Ni 2.4858607693076715 1.444635327520414 7.7415639764165505 0.8421908086211238 -0.4707558762053248 -0.9153996287046299
Ni 6.333452301445867 2.9447980831437985 13.115187282897265 -2.120091300476717 -0.6063329741134073 0.04561239852247628
Ni 6.144187700842586 3.568231094492148 6.440126256890723 -0.8868398147890663 0.5991565109696263 -1.2779298024316312
Ni 8.215581537418574 6.176846510258626 3.236553218966966 1.039058635018888 0.7846922001840227 -0.20518405957294342
Ni 5.441315349305992 3.7125036672918137 1.442463973135109 -0.6162738873762031 -0.44977053220290936 0.2096125276579422
Ni 7.3894422078436275 9.041208535413974 3.6227795035222075 -0.9402017753499744 -1.3508385747762155 0.9813124293473552
Ni 9.398862553534014 5.520596332460559 7.654991117617124 -0.889772415054829 0.06213353610595106 0.3555383157902006
Ni 1.2244724751108 3.4890618927731163 9.174634582918706 -1.1795020598803363 -0.8834235900186657 1.6480871536865873
Ni 7.270739638423034 7.580989012755787 1.275046122595559 0.35870900020869834 0.03668321435364651 0.021402119824859914
Ni 5.753055142779236 5.428497744697756 5.020416326471119 1.5044740728479058 0.6297642085531542 -0.3656592062742864
P 6.404489403729586 1.8104493904346493 5.151681266222137 0.11751766930321052 -0.8060341561949086 0.030867893223450064
Ni 5.53076844309442 8.456926971862435 10.374721006355163 -0.8275123806733427 1.7808733191130943 -0.6203819960073058
P 7.708773823813756 0.2605615947246237 9.461350239023085 0.11591252959961973 0.5662196510322894 0.11494579481097623
Ni 3.406082807126201 1.7998115238193846 5.416132854903446 0.35110599105045986 0.17361759762057197 -0.19534239089217328
P 3.199119479229573 8.348154319965374 10.689820763478256 0.30356989314270943 0.1132702068807662 -0.25006060837065963
P 4.245281934419712 2.653365250459763 10.253531299993874 -0.4149577953990983 -1.5689231444609109 0.2361964487940577
P 9.20273270976484 4.942201924513965 12.367328492628832 -0.7199227691171215 -1.8097959156847154 0.8501825685773486
Ni 9.689307983537473 1.1710036884456345 8.119215693354148 -2.7905627569412457 0.5399473475993216 0.13554315934635366
