# total energy = -340860.2064286109 ev
CRYSTAL
PRIMVEC
9.34087421295930 0.00000000000000 0.00000000000000

0.00000000000000 9.34087421295930 0.00000000000000

0.00000000000000 0.00000000000000 13.67131360069944

PRIMCOORD
 96 1
Ni 6.484191974722614 8.817869268895004 1.5088482156094847 1.1657320026794376 0.14825983558207367 -1.2034022635367019
Ni 5.826230140215004 0.8804156865637472 12.647851852863383 -0.1629619176789387 -0.5226705627967451 1.6258314276121808
Ni 0.46676254736952344 6.850186105810183 1.4901730059141303 -0.20155649012268514 -0.8449799413304867 1.3471338722311186
Ni 6.021342319536046 5.3819688245941615 11.314542948873422 -0.8434804739668248 1.1345635474964333 1.2541126454073759
Ni 2.3256534832744205 8.652900090467726 5.86646969198143 -0.16730322536676995 -2.4324188852073982 1.2817836289600828
Ni 5.4327084529966845 0.04056648236180387 8.746797359722272 1.4061162643025977 0.4940151038435815 -1.1154170564749692
Ni 3.836586581994996 5.089917053306736 10.199497580794281 -0.935292510973815 1.2687872167004148 0.2912021156059759
Ni 1.2604201947943465 8.072747737659862 7.97084066881858 -0.038388369970211306 -0.06704948535032969 -0.07702947938117702
Ni 0.33654048670633896 7.415701308819307 12.723344797773027 0.4328393036652094 1.4202650449991538 -0.6714032242501792
Ni 7.4732971388505955 2.1941339751912965 13.230400139891653 1.2516279313123089 -0.4303648739827879 0.6388540866695643
Ni 8.288568634979505 8.760254757115408 3.126300906828406 -2.3441030342791245 0.370825066745942 -1.8875828420572072
Ni 4.570284224140246 8.56762725031923 0.17126025716974674 -1.228108250923814 -0.2431505115143877 0.5562885079615065
Ni 0.9632122609741168 5.36297882743983 13.349381392598358 1.5418802814105057 -1.9623106698884012 0.41377637349648744
Ni 5.704985593700874 6.382806126659104 1.380447625406258 -0.18665643308240112 -0.5075936138589645 -1.3400535683455694
Ni 8.502979060301952 9.442316046939387 12.384597062504184 -0.24876734348053284 -0.7916863721136689 1.553087720090551
Ni 7.399504233036911 7.549481308447611 11.277029064185024 0.6423261043785646 -0.31416566638068477 -0.3124029180533071
Ni 6.155141000912656 2.7563331678758827 5.084484400898984 -0.3347316634574945 1.066437798362789 0.844414812855636
Ni 8.250691390286532 2.3731051239748657 6.336845289473578 -0.15242090893829877 -0.4720411706756516 1.6273895161279197
Ni 2.201186335177288 8.527377423591235 1.267382882388463 0.07376443547666006 0.010756724295871796 0.4952721161791341
Ni 5.503745800935048 3.4323228895000013 12.881658603365842 -0.28551457830289534 0.006620076419678921 0.0009505368387273951
Ni 1.5597578479216039 5.178926243116685 9.464458589120568 -1.5040364710898548 2.573601759338032 3.5248281679332845
Ni 7.668969770620857 7.937529243411901 8.69973990391111 -0.3981710628590626 1.7038965473467234 -0.3876161701613518
Ni 0.025280141809386814 2.8416807350176088 11.499925673676044 0.20636959524061232 2.595271788112298 1.3922338498935507
Ni 7.0863140635398185 5.75699558098829 8.628745523993853 -0.6782004496776707 -0.5416285919564866 2.2106267847641288
P 9.366841783778048 7.0888360995613 9.64697086329578 0.14341562011589495 -0.3306724057864563 0.021440172151646945
P 5.100332127988035 4.02285295349255 1.3360794072639264 -0.41965340110255467 0.9832934643331258 -0.02393748465220393
P 5.416371264101984 4.316903671848853 8.934394805786718 -2.0059644020226095 0.9835271776104868 -0.7760579215477925
P 5.869375637930625 7.1090217286072965 12.77742845912255 -0.08075552208251253 -0.9233669631808228 1.428210782208792
P 4.848810409653214 8.645997184468195 2.74585644342517 -1.4907130145080714 -0.1654720856953021 0.2996628447788194
P 1.4313395100574857 2.3512755010778306 3.501783497881232 0.2803183788139366 0.04768676455300175 -0.1885338526107721
P 1.7261655209685394 1.6252280348644035 8.857261603375697 1.1135913161201403 2.070484950303499 -0.5097394565573737
P 8.688983887323204 4.811372186045461 2.4064249561682827 0.4371497581151052 1.6229183677304435 1.2200655831249956
Ni 7.075329195535149 3.909464082141624 10.041853515878282 1.4945015350162263 -1.540325021108244 2.5559501076945397
Ni 4.566127535141881 7.747545204001201 4.89531488571448 -0.29683643107361785 0.5608614720441696 0.1701499507869457
Ni 2.041606841136657 7.974397673696282 10.1622704609424 -1.9611621581062546 -2.6305018149591857 1.553847738185027
Ni 9.338735093449772 -0.07057310649292795 6.300137522224639 -1.7137742114717518 -1.02852148293299 -0.29010656854895195
Ni 6.913582618690875 4.399523703737719 6.690440344209616 1.1352335769802642 -1.3765650330080423 -0.40871104315843804
Ni 0.7719447854547079 1.3261986305842155 0.12077470054420215 0.32474601299969236 0.03087612075356618 0.7080563566968386
Ni 6.486770055989017 9.003603210565801 5.988199029864133 0.5020716555994708 -0.32508616994793044 -0.5388798255667558
Ni 3.8927439174066247 0.9104232447822868 11.481155187064322 -0.5428400957660844 -0.7197088533341024 -0.39924809797332533
Ni 0.9894414355975125 8.522417419415657 3.6318803908307578 2.3629762170345434 0.31277932755611937 0.5907919410550148
Ni 9.088231530397698 5.402836337453373 11.307543831870106 0.051672488673627136 0.9836662742915123 -1.8435272464988894
Ni 3.444727570376023 1.93719454984737 13.590598258566894 0.2083837974571637 -0.17997567862811584 -0.14804052048241603
Ni 4.062103306686107 4.325431889951118 7.0465228737327665 2.3134380010950997 -0.23356235360532032 -0.04615850083393341
Ni 2.268038971494825 3.810936541569125 1.340067960527527 0.5546879962436061 -0.9358000467378528 -1.4929143930347644
Ni 6.389905191015863 1.4172534718338101 10.461562343786305 -0.8628768762155655 1.8673906833800487 -0.9562454590763984
Ni 7.847903555907812 6.078349674495657 0.2957133939556487 -0.6775193644502461 1.010332213618473 -1.001108638137676
Ni 3.7596551424656908 2.0988944223208756 8.099473846788232 0.7309983102049927 0.7559513806059045 0.5714325626917964
Ni 6.036876193253535 6.386906770412548 6.710003871036981 -1.43716464896797 2.489659354887106 -0.9902583256867333
Ni 3.0728019842008996 5.804951628893033 5.554025858329212 3.3900054316927233 0.6968113799106387 -1.7584142187786296
Ni 0.9709091412767087 6.144623176615668 5.2229339035166875 -2.659108937172917 0.42029771955477296 -1.4839178459631088
Ni 8.716025717997965 3.0510937926678614 8.913545974675815 2.2951003791281765 -0.8427600508610325 -1.1539990305132255
Ni 0.09417656139173801 3.585139590653404 4.72667848009449 -1.1431854848374892 1.6417766380875272 -0.8651749282211229
Ni 6.00169846119096 0.9764669613981192 3.7314074049376957 -0.2161331023852794 -1.1150938688075955 -0.6615638695622542
Ni 7.154567830980401 3.3485912935868534 2.8858229040054226 -0.37126781071031545 -0.02457820355999638 -0.28172811467726966
Ni 4.442790632817338 2.9965150649881958 10.641983196238517 2.0033945844129044 -0.36847276446368155 -0.09912271173579058
P 2.59577288204912 6.2111582232119815 0.9618260752497179 0.2849813315072447 -0.44218912031122554 0.9978443655641072
P 9.22160053156324 8.855952012819357 1.0214853043815435 -0.04795570194367225 -0.2603033691445904 -0.24394086862616698
P 1.701505613202954 3.097583323330483 13.018002672949315 0.23466767085435716 0.6629093278465551 -0.4495370760358645
P 2.4249096120309033 7.0445043108281675 3.6625315352784824 0.7255797102925826 -0.6169562581552085 0.9583954155398655
P 8.704732601146226 7.60221988391901 4.844990926211794 -0.47013366924029354 0.22786221789674949 1.331405148641952
P 7.687081725604748 1.2476979241971011 2.012595020102894 -0.23622267404630287 1.611096178284535 -0.017583003189085848
P 0.0517886085699761 4.503478292193478 6.820249538235211 0.5248081779650381 -2.3397473284135897 -0.05653855851667682
P 5.595893524460618 5.220399724358806 4.882449699742685 0.4136663302811843 -0.38406033448929344 -0.36553579332254466
Ni 8.578854981051895 3.9236061656102215 0.5477572671556574 1.537631790546797 -1.7679897782822065 1.378456079383168
Ni 6.596880280512019 7.2640989213058775 3.4366673300688553 -1.731081849512264 0.6795819034062297 0.08607384897163242
Ni 8.412615443739725 1.5503796102713585 4.132974387064537 0.6515008288992973 -0.2402446507215024 -0.2073990649463912
Ni 6.354213710874839 2.590065607941252 8.198235843301987 -0.20556741105429113 -2.0724636712964246 -0.9687425631021446
Ni 2.1528099479356335 4.830203388339181 3.2617977591261456 -0.8863124815306865 0.7531681614338126 1.3840058055568036
Ni 4.384064557013459 3.3050908426533945 3.4136999886999075 -0.07536674696677342 0.4478535176858545 -0.8082717872761759
Ni 3.854156766277975 5.308605598991544 12.980338400187046 -0.1761845870167998 0.48600611749617595 0.03002225739370313
Ni 5.622561720169234 1.9358774865917079 1.4130668920381526 -0.28119975297762534 -0.4965026461521255 -0.4000091445090659
Ni 2.1701746329872336 3.792030612282176 8.082603293979359 -1.4882861502341336 -3.1778662809581846 -1.2167923116903623
Ni 1.7982397059379558 5.957441399451057 7.346458342805857 0.09631069620829219 0.179630122363239 0.7831240843659545
Ni 2.2121898849302655 3.6343286339464242 5.453281728320056 1.5606470204950478 1.1628711361918749 -0.25368123584238245
Ni 3.8681493957601143 7.693153293804608 11.58325280973834 0.5296616494025975 -0.9863852158845722 0.7195751559697156
Ni 7.794016052915515 5.657888906218266 4.2863945086882635 0.9351531571824734 -2.262478479328097 1.0110505798417362
Ni 1.4897573370142936 0.8382201557495503 11.42169865490163 -1.074177590209208 -1.4456027524329942 -0.4894279986935312
Ni 1.345506217459771 1.7672653672445158 6.193651556873247 0.33110692222071364 -1.045162691034097 1.2969233128149988
Ni 9.453992139631426 0.4148095394144435 9.08510700799331 -1.7491659607074843 -0.633117184185787 -0.18295430164046556
Ni 2.756277122630961 0.7867893026596582 4.381778845108066 0.9832201878930293 1.3414157388004189 -0.4730503286664563
Ni 3.207674866105177 0.17280897410441876 9.315769620255656 0.5301193057653064 0.5577290970627748 -0.7648029174592635
Ni 4.4716352522037495 7.32517889739647 9.318462594274148 0.14147238034659507 -0.23347159366372694 -0.8552378716130691
Ni 3.0458909257642888 1.4185705350894722 2.2231467303124743 0.12496821204398478 0.1912417384602384 -0.7299223035319945
Ni 2.2056045686519554 2.8846394152501578 10.786475310346205 0.6735701499945108 1.6494207848963465 -1.0551851082671053
Ni 4.275943938685181 0.5915071194290187 6.534942812174122 0.2207132655567941 -0.9196290934049454 -0.8720397736617562
Ni 8.551990626986052 6.348263574038976 7.057173338442737 0.6533214270478039 1.9798445650071061 -1.3797390598606496
Ni 4.291935515236197 5.946577962810385 3.195997839325723 -0.007183919342948918 -0.24386322131069615 0.2013585151792661
P 7.78193830263487 4.178060918429282 12.339426463272057 -2.6351161738027455 0.5695821397466191 -0.6828772863280497
P 2.4797498841868704 8.884273543253167 12.856804405417861 0.17335483087748854 0.6646173116765973 -0.4165207690108439
P 2.1109441499790593 5.938273925687807 11.560695532744736 0.35170428675609106 0.482719219214788 -0.6072667987815865
P 3.9608949352315164 2.395168268725742 5.374343869022552 0.5438605666107988 -0.27894052462980345 0.8436740780348696
P 5.678709714706709 8.890167634844106 11.0166727470757 -0.6393325689678796 -1.5412868708008811 -1.615724935305798
P 8.391439682033443 1.3091795578763001 10.780814740609102 -0.029176878674272332 -1.1172235135560888 -2.1942861386225756
P 4.025122785911883 7.087014629101342 7.101755462603187 -1.0507424991147194 1.0179226243712212 0.29114657977769215
P 7.502085712992087 0.6015709772421407 7.589793719032435 0.08749515479919126 0.4389215053035473 0.7289126313205576
