# total energy = -340869.85834347544 ev
CRYSTAL
PRIMVEC
9.31442983390891 0.00000000000000 0.00000000000000
0.00000000000000 9.31442983390891 0.00000000000000
0.00000000000000 0.00000000000000 13.63260957892195
PRIMCOORD
 96 1
Ni 7.262255826853284 6.664325334330705 12.279967916868557 0.2714691559534228 0.9696509338490269 -0.33243618255509844
Ni 5.798297615178263 -0.19550521969035553 11.916018689749519 -1.1614524014674772 0.178526347776099 -1.3261891516586517
Ni 0.12821312318243616 -0.004341455627703123 4.58205665820988 0.7437358123763191 -0.5765855676476457 -1.0818885857002207
Ni 1.2047842085837548 4.79132394760616 4.79029470313746 -1.568225347062938 1.3496900629940691 -0.9782756994035603
Ni 1.7319622940090744 0.23140861995327006 8.51762670249144 0.06793780149255396 0.23465070157349263 0.43883074536195393
Ni 2.5301530225231086 1.3426098230937809 3.247900611403813 -0.9521118965239991 0.7837411491246632 -0.499604682116217
Ni 8.35317113380934 3.85904269084408 6.15360957174684 -0.5894796500014945 0.06717881183934236 -0.28946379275863054
Ni 3.5014710536591513 4.3130466174810795 10.971033482481916 0.5394611519915226 -1.6392908955511962 -0.0781049718335429
Ni 8.878551534325528 4.332085311544639 12.159673921715884 -0.4868394120307487 0.44970059819692226 -0.5758998544345307
Ni 1.7398981880120845 7.304422249566462 6.031066141850359 0.111088368738099 0.12108044695380436 -0.5571809378687889
Ni 6.880494616046504 5.132138925974874 8.030125292752295 -0.46910162843135345 -0.5806078014331613 -0.5707998142038041
Ni 8.206888017239768 1.5937734167453896 1.2798706197650536 -0.18485563242823647 -0.443977579670216 0.2915253032733495
Ni 4.295554118727966 7.309265752948581 5.404620454608511 0.1971539901796153 -0.9490047183535848 0.32834787141833777
Ni 6.502170429755112 4.773123552204891 13.523193707776048 -0.9055654162230274 -0.3823482368941931 0.2900276356819005
Ni 0.9455263756262593 8.476699098912533 10.720329090208649 0.4865419353949879 -1.446897817095334 -0.03627852271606011
Ni 2.5978130389994774 3.777820864897778 2.879711455939505 1.19710048968839 -0.3302114069896377 0.45962762750264713
Ni 1.910827285252977 0.7924148507308576 6.252105007351103 1.0083645483691408 -0.1206104492959213 -1.3089902712818617
Ni 2.806549405909641 6.25227359852652 3.717299427252286 0.19923941195373426 0.916347594440196 -0.5996437350186898
Ni 6.373305296502005 3.116747854245614 2.2450318129480564 -0.5680705881980991 0.3011926511597845 -1.2098007108638777
Ni 5.557659326953181 6.812117388492398 2.592568083702418 -0.5313431508700786 0.38163706975978146 0.6797621377378358
Ni 5.41502746677936 7.154851139354798 7.642522071712315 -2.043522562782042 -1.532391110973148 -0.3868013875695403
Ni 5.1318036065099575 5.8548641460236635 9.864460619400203 -0.6414781545559727 -1.5450831046185198 -0.3670329466933614
Ni 0.44299240798634415 8.95520928977714 12.968647033912884 0.40398047045198815 0.9840275142856731 0.12152087692533266
Ni 2.236580830989217 7.408008020936739 13.076044269867705 2.0922961326413194 0.7784585605694851 -1.7876463761708696
P 5.838247203651163 8.467226324028658 4.3621895479504245 0.16034813420517546 0.0379422835717282 -1.4339998780867433
P 1.9522858113179988 8.445616847400744 3.8000898031400276 1.0033179870841686 -0.34710175498707313 -0.08474201753408632
P 8.847534483820803 4.041000072708874 8.441979562649365 -1.827532156622214 0.7616543445279528 -0.828580931147173
P 9.221108311025887 1.5360239533432025 11.994624092426518 0.19494592678470296 0.4184452397270665 0.732118796962681
P 4.743475722848573 2.1121959383645708 3.2425299113074098 -1.3343107523245215 -0.08580696846349094 -0.9360705267904201
P 7.885931402737742 3.5837826678664295 3.631413866414779 1.8763738607152651 -0.0979870554694506 0.3317998345226802
P 9.094264408991856 6.708950766453266 5.028347305710855 -0.39722361134412876 -0.046449292601474845 -1.6577159350256032
P 5.68468020314925 1.5636412370508612 7.988490723968194 0.1027094006457844 0.2608489572354153 0.5633983795334103
Ni 4.00428259130058 2.25835796734959 5.220826267230345 0.19198041639847582 0.4353769824853986 -0.2354135478814462
Ni 5.553737952099581 9.365100077918532 6.3362599471724605 -0.9721158504497517 1.615034594106993 -0.027597964222926666
Ni 5.545578511786627 3.3972891587956897 6.483914147776357 0.6055084213295829 0.41081934775069245 0.4562648816780013
Ni 1.2227144855271759 7.024523640657475 8.591052350878446 0.8275203510931425 0.48739168498979296 -0.09582295793859627
Ni 1.7572975424693886 1.4193700372707847 0.7720115927336817 -1.1434443949258306 0.07249353918403645 0.6994051087797438
Ni 1.1442124730185255 4.860623303688785 9.615556706364945 -0.16979822387448176 -0.4413787085947882 1.7604523322545809
Ni 4.12309745503579 2.1041575856361696 11.400351376400396 1.6509547050423699 0.03218995446898327 -1.9500850743564866
Ni 0.809387604313352 2.5898957738556296 4.831478453529842 -1.7300757768452528 -2.080247686117217 -0.3614030021010938
Ni 1.8282921247357546 2.59717965778797 12.04053864160309 -0.5980959309155958 -0.3227428665267345 0.3474588812161758
Ni 1.7079776378380047 4.998886696389118 12.718160599291812 1.46722830112257 0.14677630905801173 -0.1566359754609109
Ni 8.372722121499853 3.7859896196403136 0.8026691062565782 1.123354309044175 1.1000909676408603 0.8152453903805315
Ni 6.263357769727907 1.609058395687807 10.175339021095589 -0.057385994118636645 0.16770380323929826 -0.08799857679817102
Ni 9.556697894399662 6.704368067099415 0.10393692536548133 -3.1958596322118122 -1.0049724919684562 0.49773420456638146
Ni 5.011200372295197 3.4649119175537346 8.941192004700696 -0.22694253429595757 0.48483369445462954 0.525135736507786
Ni 3.9552793772749504 3.0194120651241856 13.460129430854943 0.3011402006552943 1.0370074089168142 1.1216183001896747
Ni 8.72250689555507 6.4118856638265 7.069462037613957 -0.06578810213940282 -0.6934836010889863 0.9200582105225639
Ni 1.2853074523114818 4.886517417923959 7.272288398954977 -0.13757921593977596 -0.6342376709434755 0.07161242213066377
Ni 2.7881627219167506 0.4373776698349186 10.54193354621563 0.23233413762517408 0.9365217553952259 0.8308936384407496
Ni 4.625433956768587 8.672544295282595 9.547870609485749 -0.6656048724008472 -0.07309903397851927 -0.17169826911067204
Ni -0.11932902024808036 6.184846442789675 2.589554865732965 -0.8966907394412169 0.07584265816192745 0.47732247367924896
Ni 3.0608892200483697 5.269573334442497 5.900588680836782 2.262852574838064 -0.4451474316086011 1.236713990314954
Ni 5.574332155903169 7.939340341955184 0.39699682327241836 -1.200188127474778 -0.6678047082656434 0.038428222069211246
Ni 6.544942290391055 2.0235877697605376 4.482470502901683 0.7142984809518085 -0.6177949520064198 0.871787291331318
Ni 0.5697142909928625 2.7433510012025697 2.5688740377342754 -1.204137084820197 0.6577146710194931 -0.8574965857402587
P 7.174616358925674 6.567492524406651 1.1216333642712286 1.106432593588172 -0.49289693107873817 -0.3312478186739521
P 6.3236593868352875 7.461137527266752 10.154426263800332 1.5718742566694348 1.4048790494613868 1.0592590212261628
P 2.192141687458276 2.6954375754379165 9.856689590800777 1.1163933043453096 -0.6829942715218883 -0.5431591696684
P 3.727960723350696 6.780606673219882 1.1779828689073915 -0.1183972436946864 1.0956966952279066 -0.18675953431916867
P 5.6524150190806735 3.7806617659199824 11.729388258563938 -1.1858197745682482 0.0916459437427712 -0.38396083279695165
P 0.460715904593067 6.442781626746669 11.508798348568996 -0.7807666398773715 -0.4360426410938555 0.12653375675889178
P 1.87977297702993 3.6032870834090396 0.6781286626579295 0.022617480289199757 -0.9800212213397573 0.9164769209292087
P 5.666330776874684 5.604762397344287 6.12301819067397 0.11265777010774791 -0.9501509161428863 -0.6916684022571186
Ni 9.42722732322379 8.828505104186824 6.967899360348672 -1.1242534238196769 -0.2638566337134875 1.3618562660429578
Ni 7.733621850229264 8.111964665379817 3.0618160057916786 0.26422224458302235 -0.363081161134465 0.13056164697136224
Ni 2.613973574322509 6.344030044328929 10.81446257844013 -0.2778676032805989 2.665792776950996 -0.5520803834174298
Ni 7.415049729699973 9.158543287530323 13.442747773813844 1.3161605637780558 0.5642900381097443 1.1274629318959097
Ni 6.036458265134798 0.3304265950570263 2.3506574443965724 -0.2019719803935489 0.6108563159050576 0.39528165712640956
Ni 4.489508485893085 4.8422831918438 1.5144740890646058 -0.006154963857802303 -0.5759481911739629 0.4971017131887051
Ni 7.212265283292068 5.6023406456532285 3.9969307120322983 -0.06595033874887997 0.15731860335023232 1.2161526212238345
Ni 3.707403777265434 9.426109591674068 4.660798051558762 1.1314990496384965 -1.9411648890487216 -0.14672025900909572
Ni 7.34127944741847 2.4667310715060937 12.603770089607577 -0.7200510671648696 -0.7221647710737628 0.00874355052058494
Ni 1.7194250717930513 7.9060598850622785 1.60144943816309 -0.1326360130018877 1.171037731163067 1.67532542057725
Ni 3.7147062900569363 -0.03365955417685213 1.655830803828788 0.290606391003506 -0.3345475724711464 0.34890512674439916
Ni 9.33622534621744 2.7100426010209215 10.114319261467514 -0.10899754764734132 -0.7249649595267192 0.5143702704611658
Ni 8.137448944713428 6.256725895866237 9.768718529180083 1.1280797395443025 0.5366175118951404 0.3742670025479554
Ni 6.688570794530043 8.728421558339003 8.310902252370772 2.479636937654097 1.315988814086882 1.3206412252572288
Ni 3.4332614858375035 0.705229926966801 13.057217944798593 0.6273401724926937 -1.879568199282847 -0.5996244517449802
Ni 0.48080433487040514 2.277536377856865 7.58444753471775 1.8148301356745131 0.4227996600410202 -1.0276905023912624
Ni 8.127901654392906 0.016290937337165336 11.038977589060506 -1.8009202104616404 0.15043293197399255 -0.8300454315078415
Ni 7.869044341907393 1.4647778814781496 8.264809797589203 -0.5319512167677226 -0.2583940679370195 -0.05662931845827021
Ni 4.561937490314925 4.498748400037435 4.282875317182311 1.574151996960018 0.3628795866466202 -0.5995079807717739
Ni 7.234051734082022 4.044930761992055 10.297554583070822 -0.5187365178496615 -0.29480217425240846 -0.20965752196326473
Ni 4.16855187139106 6.0377995429944615 12.643100268513342 1.1939097506652343 -0.027938121171164787 0.6106899655305225
Ni 7.3713184828171885 7.969658810241332 5.9079908580248 0.07560997332583108 -0.4549181378421198 -0.858520913239715
Ni 3.53814196291954 2.071510509954772 7.55654150369308 -0.3009715362879139 -0.7358206712943005 1.2448872701543656
Ni 1.8832472592636424 5.58135523580724 1.6217763178377016 0.4859675509487566 -0.8082357918319176 -0.9986483495226413
P 2.297953607498412 3.0811946765349445 6.111362113496309 -0.26860803235554387 1.5152068858843777 1.2837896036465182
P 9.137893197149252 -0.3229573539760241 1.4195088222715415 -0.3362074766720726 -0.26948760674701977 0.6277762315888479
P 8.828793851503836 8.40041392064416 9.095131582385848 0.0793298453795795 0.37049802242382646 -0.743115662293817
P 3.875491973484122 8.195785217179218 11.637027306281722 -0.9927597519523482 -0.7980133427729611 0.41612147668989624
P 3.1847711334756417 5.258880369283512 8.88484902016524 0.14856502552731835 -0.06576393376968674 -0.5036847657228616
P 3.1144006179912025 8.069444294342563 7.695225908610474 0.34978161581208145 0.23204154608541974 -0.29219713252939356
P 5.485165121524275 1.0550454386396326 0.34042097799743715 -0.07292882694924215 -0.0985912647123528 -0.5720231450879438
P 8.194835145361957 0.937404193031629 5.935528969081021 -1.4521333544626605 1.9420778877812936 0.8349449256919879
