# total energy = -340896.65927667724 ev
CRYSTAL
PRIMVEC
9.01718356589816 0.00000000000000 0.00000000000000
0.00000000000000 9.01718356589816 0.00000000000000
0.00000000000000 0.00000000000000 13.19755961958068
PRIMCOORD
 96 1
Ni 6.396898063754474 2.0121033064625875 11.399206668447063 0.2353454136476721 0.19306696459443523 0.6318480876653763
Ni 4.7006847238690606 0.3460091623513549 6.008241231103866 -0.21286034517127855 -0.506452815386302 -0.8395744540441993
Ni 2.7498892468983156 1.5044629362754667 4.674390617265412 0.41020973919115156 0.8290051631687853 0.39410332054759223
Ni 3.5253129105726013 4.22726456443669 4.863590961428337 -0.4695245749013849 0.4299802369498595 -0.3341850469254051
Ni 4.984825187925163 4.538555767513226 2.772648617634808 0.17116245121186005 -0.1450960931421114 -0.3158818777408431
Ni 7.125270064788896 5.984434063663895 2.724899926723181 0.26205557594900675 0.7496472927647477 -1.173875200611862
Ni 5.08968601292305 4.608240560322898 11.621915767599639 0.08042616376755182 -0.1862255161925696 -0.5676309295575193
Ni 5.641023653549568 7.79332612649828 12.426689461309664 -1.1193942959551626 0.5012630436552464 0.14893243616906607
Ni 1.790154355865117 6.350441535214692 0.36134919464015064 0.04847069390687781 0.6667307584751743 -1.3967703043113235
Ni 2.575262474440746 1.5108020161596798 0.38958920940740327 0.13267843620404893 -0.22442645274232317 0.3084225932493204
Ni 0.6060530073824457 8.985244471213703 4.763025922571047 -0.6946100013839457 0.1737528376468556 -0.4640923481422201
Ni 8.510570923297823 2.3045395791865073 1.455255265100304 0.8664463387343787 1.1329962030093135 -0.3793886400452369
Ni 6.971409865550874 0.509521354630715 4.863630637035009 -0.15518098818193918 0.6502566720795511 -0.1969357035212221
Ni 0.5636397838498926 7.089336589200575 2.2628269907990513 -0.13027651163077564 0.45678090208247135 0.9339915327742044
Ni 7.4997627058575365 3.928110490128504 3.913392643489795 0.8654963161162835 -0.7526315722040522 0.4072290592962728
Ni 7.531007246111874 4.107642610320088 12.600884310685506 0.03859020156837225 -0.7813263690355835 -0.7971386534774917
Ni 7.99853918482676 8.472022464542473 7.03637145772989 0.4521248913676988 0.9179758740722384 -0.15878747458627493
Ni 6.909443781675608 0.604492132947229 0.4233829073904267 -0.8328726165439914 0.43772105723754295 0.17178388684594287
Ni 1.9319315294347938 6.458828078896402 9.202750655582223 -0.4198050961890705 0.7379896539211613 -0.6954677213985506
Ni 8.968373321194694 4.963454463422197 1.0919736880715518 0.6399928282596978 -0.6628123972573746 1.0426985457643203
Ni 6.492453155551068 1.7752038658963754 6.883094670253618 0.6265901817005467 -0.04041234237877556 0.75129948365619
Ni 3.3618944969999207 4.4091952553952725 0.5176016526168364 0.42416105916492114 -0.017818516238659637 -0.3656365805664671
Ni 5.820700048674504 5.586487728741999 4.795729443088918 0.3782262443060196 0.171588225895369 0.8840357696813678
Ni 5.083166589372144 2.9555892331268643 9.575885308840677 0.8045609140834917 -1.1406943429845193 -0.768374693970922
P 0.13983757743440764 5.707597518108807 12.097357579535624 0.906384312579897 -0.4208492211828687 0.6579198450517637
P 3.8714915959706464 6.260738595402243 12.480034216198735 0.27225385663824725 -0.19032334041102705 0.7565517331940648
P 2.126756792561833 8.427107874352906 1.3831962479186364 0.6964216006713877 0.029663845613019883 -0.5423125053973885
P 6.367484011717059 7.595444038220816 5.76262217425311 -1.027974095069952 0.2662588153970769 0.38671654116521786
P 4.766735591794895 1.0446767580449876 12.63356168137171 -0.4014101386216506 0.5869381145265634 -0.5743168262181271
P 4.026307616642133 6.217086410879517 8.10037113794256 0.0015022955771393483 -0.23377215562328124 0.02997957708122579
P 4.762236017310936 1.1548757555769484 3.6537708026387627 -0.4813922728732483 -0.39221458816531163 0.8605225170507761
P 0.21174330249938725 5.387433406631039 3.636851861548081 0.05815372552259662 0.21381422444411563 -0.8011380044448719
Ni 1.4769244583716445 1.1795738207303763 2.509727389401651 -0.621643893438865 0.22039753408858817 0.684667288348937
Ni 1.6407306108277122 6.747648461103154 4.681741425119765 1.193487575526151 -0.5448895220959454 -0.4585207675917136
Ni 5.939808023341035 5.57126672327322 9.129398574310375 0.5423474724003821 -0.057223500398843385 0.1890313610724809
Ni 8.586811208391739 2.1485152559481864 10.093071269305788 0.8928052883438818 0.8745291157425132 1.1049827485155228
Ni 2.4584628987078694 5.137873840663071 6.97872460467189 -0.4628461344399448 -0.04941146055359232 0.31034115042827204
Ni 0.5769789031567439 -0.034356370223101555 9.033531487970405 0.45690200104136797 -0.8570317302886982 0.9002157218753399
Ni 1.510360174176285 1.1292579377233931 11.432597298335029 -0.6048314498672164 0.1658706066853014 -0.5379287745073961
Ni 3.8685880629369103 7.013898833423439 1.466050636988469 0.8674452123125382 0.15969790221568625 0.1547639552491786
Ni 5.771655588517698 7.923570322583022 7.926480167645093 -0.5724427491238657 -0.28422774117067184 0.47495371633675626
Ni 5.439615846588281 2.8085099557564517 5.064774240524592 -1.2528489482036036 -0.4335378723941308 -1.4455158491461426
Ni 1.1452814725089504 7.383251679991367 6.9290877155700015 -0.5147610781416813 -0.26670387335429546 0.5994691571140386
Ni 4.971362533206627 4.520773881977425 7.022856503348016 0.5577218979739234 -0.12737116505852258 -0.13618696357793963
Ni 8.127611147078007 7.110806502720221 9.200453978986904 -0.13506647682025125 -0.26305804907159214 0.10129323702454814
Ni 4.548988648631341 0.3531615921723476 10.34858939002125 0.07956227310535975 0.16697720948591888 0.4533988729841159
Ni 8.111948299625833 6.942275346196831 4.73281655496352 0.7083587184286058 0.5942832420377249 0.33612802958438887
Ni 7.247416830239181 6.0636951051748955 7.125216863407221 0.40841639473615465 -1.5548538108520382 -0.7151646856068458
Ni 2.363890679894744 5.401563332916333 2.6219462360005585 -0.8096655822999088 -0.9023433097413041 0.1216841419760743
Ni 2.329769658156675 5.357487340776883 11.257030033655665 -1.0905112943722253 -0.5478668595567144 0.9106744553148188
Ni 1.2782849266940761 3.357602317732659 3.7705424251033026 -0.8217389685246751 0.19127207747754157 0.18284322998389801
Ni 3.6266209653366612 2.653892313118326 2.323351227059118 0.12651858725024018 -0.1164303497763027 0.8073230502096613
Ni 1.2543172533907496 3.1408652991025785 8.17828952085504 -0.9137140134720908 0.8491800954547633 -0.0029675672687561796
Ni 3.6422747956055006 2.4587875173079143 6.984940149144419 0.43099196604382545 0.6097306869410467 -0.375773669000469
Ni 3.990969275153895 6.87062480742022 5.9095373388868335 0.27826766693249494 0.3923187178433437 0.002763678788066208
Ni 0.7944553308202602 7.61468670745682 11.253189615273463 0.20625003894361255 -0.2534092131279184 0.36412065814257294
P 0.3205302091211521 5.49969733914662 7.915988674835304 -0.16262613160607475 0.3790155729765343 0.8032519654640812
P 8.634160438081643 1.4810182596055461 8.00154821890551 -1.0060826943134995 0.5185624541656424 -1.6464416476633643
P 1.7533462134933417 3.328161214145239 10.426863951675449 0.8247214481917666 -1.0196267515465214 -0.34779081063429784
P 3.9332142158958794 6.297204084807303 3.7440418250012915 0.14865732813080848 -0.5544643102685741 0.062257463278325036
P 6.871201907153634 4.030816208309425 10.38295567914602 -0.1578536499180959 -0.5954916605235293 -0.14252704686335455
P 6.1845704477750045 7.826572481452894 10.228807831759626 1.0848499823213897 0.02799417122008082 -1.0768937035887904
P 2.5472280514535224 8.562212332254992 5.690998687026504 0.41795030236851893 -0.24941423303591237 -0.12117737754298484
P 7.000571436454923 4.0545584520293865 1.6641987321743026 -0.6397501161212724 -0.3024599479079823 -0.16730888179372477
Ni 5.472717926609543 3.002000675749972 0.47039759957861843 -0.6748963250051022 -0.4891906858717446 -0.1518336689762611
Ni 1.4674383815036613 0.924026845028243 6.908671910782168 0.3204319590053707 0.7559974033524915 0.5896616841053135
Ni 6.838117861499042 0.898028502037968 9.122522070299421 -0.8658385299470508 -0.9580858547192469 0.41299578657672104
Ni 2.8167155925909237 1.6828498741835578 9.101129704556453 0.12068321151538572 -0.7324594681315514 1.245529788834371
Ni 6.4119297083732265 2.046810445117404 2.6582917968672697 0.31931481468179207 -0.059635709384761815 -0.05539493183053686
Ni 4.253621791323681 6.805340400077827 10.276701699322938 -0.8818572739728103 0.6714875564338694 0.6577293263075124
Ni 8.09120877795629 7.098380824085163 0.3302290915158315 -0.9838956166934991 0.0962153082810085 -0.11361627736627532
Ni 7.707527627069705 3.5084056918202546 8.15647424921368 -0.2523578890452686 1.1146045878760031 0.06067314951034067
Ni 3.096464688363082 8.398126647115552 12.366707157768005 0.16149176089131542 -0.36141945716132595 0.05439682958332567
Ni -0.015342737443796042 4.6340297046598105 10.045520054709188 0.07498210993384505 1.0534223599397277 0.36183109077744785
Ni 8.841799118727128 2.262880192180725 5.717446987465175 -0.7091742723513658 0.45359941903069617 -0.06001803242484502
Ni 3.4624721599138795 2.790836276420665 11.803580451649852 0.5265400730544804 -0.06959719147284787 -1.026196177233923
Ni 1.0468679335952917 3.2716324918207267 12.605080907809423 -0.5922027053596124 0.5011967091936852 -0.1425213904363997
Ni 3.3069527989422953 8.354411342309485 8.021212892321575 -0.259344861886063 -0.07279461536422302 -0.041335882634309457
Ni 5.547082637569864 7.894011995612254 3.579454784468449 -0.4498594923722897 0.19036884893698183 0.1348255644540388
Ni 3.0942284268961058 8.536026431851358 3.3583300044277595 0.07989265986158499 -1.0044798686027538 0.7768601057341137
Ni 3.4469085014783865 4.433640839415332 9.324432134372444 -0.511393447221029 0.07263597829917169 -0.5181001698172432
Ni 7.186145069480677 6.252343597717744 11.379978426704392 -0.12732385676035493 -0.8107531589371326 -0.6207162394182729
Ni 0.30364282817214167 0.03658181107007708 0.472806089247286 0.5114502686008934 0.3224780429011221 -0.53157814969902
Ni 4.544227575830679 0.3923646984377885 1.5300987884956914 0.5127581887790396 0.0003722957377541975 -0.2672954841917074
Ni 5.715361312959885 5.588805144858987 0.5864676851797275 0.3682753037408948 0.576708209268439 -0.23272931618106368
Ni 7.784958180363785 8.876100484131888 11.244954221733988 0.4288342962708743 0.09136055129186847 0.3148845468245803
Ni 9.333956985128767 4.890992378145473 5.7838964148943965 -0.8050383679405425 -0.6980912750643268 0.26188665447131027
Ni 7.836770915804309 8.617424545812653 2.8215983973666017 0.025308911078433832 0.03740363745943881 -1.2264326629936042
P 8.524213921683051 1.541225992730569 3.5574023609053884 -0.011324423873883724 0.4404816507018156 0.5260034838247198
P 1.7076200768036622 3.429496320459303 1.5746671188452102 -0.29363412208623624 -0.7850616677082995 -0.404088199674446
P 4.830451009237071 1.0144331251407903 8.166187559101694 0.024755609678125106 0.7549249962239192 0.42008946019870874
P 8.435006926954003 1.6737785877489655 12.42340359970254 0.27343399298927745 0.2895296129995595 -0.31443228977851007
P 6.221576968180142 7.805832959783349 1.4282001082232159 0.37506995806522503 -1.4125789892088059 0.563665517151868
P 1.8433557375391671 3.211929720962441 6.043320779430402 0.4126623144967022 -0.4472739910333007 -1.217946994120096
P 6.955269107381968 3.8272172257978347 6.084180342274405 0.5243844601640582 1.1131318599852185 0.431536782803702
P 2.4171371474854673 8.593096185175943 10.082024318002587 0.4730485288942434 -0.25488502634249655 0.7271719944803671
