# total energy = -340894.25219303527 ev
CRYSTAL
PRIMVEC
9.04722376037538 0.00000000000000 0.00000000000000
0.00000000000000 9.04722376037538 0.00000000000000
0.00000000000000 0.00000000000000 13.24152648070499
PRIMCOORD
 96 1
Ni 6.0433735118712155 1.992967665341605 11.326443679048758 0.8956350444831931 0.4003207622122138 -0.6865159115219016
Ni 4.92700944200946 0.3158476254158965 6.2136920210020605 -1.2423732454832606 -0.688754056823801 -0.9093901892857564
Ni 2.787069628208022 1.4696129179143365 4.8355139643493095 0.12137458115545549 -0.2552462663366572 0.0872059056935466
Ni 3.6232502283466266 4.44218682017717 5.087791272673607 -0.40278233637882893 0.01913903482229607 -0.06919147139399696
Ni 5.118629639262724 4.517351154397194 2.6991921352920447 1.0324370159373122 0.736291697393448 -0.4323744482136489
Ni 7.220191130271511 6.371199661421357 2.5656777320359048 0.40491378089953495 -1.662602573693943 -0.7244851916768232
Ni 5.104769292605877 4.639389154432571 11.336296105621411 0.13806155489283317 -0.0930847330718268 0.4986865411773218
Ni 5.665018618144516 7.566247435509346 12.239434303392295 0.0028397834416402706 0.5407654726252429 0.4200812326685926
Ni 1.760861142181431 6.424976358894133 0.37612113420347765 0.5739753837183083 0.9617337358844792 0.26385251994842945
Ni 2.5818785954552355 1.4337044871825988 0.2474949458942661 0.8830075855271695 0.3483819072510774 0.7615329884587402
Ni 0.6416779574252421 0.00950772735096576 4.867505851955886 0.05619685890654193 0.3452636733370699 -0.5653128229473038
Ni 8.34640762670592 2.300075672695809 1.5046084837781397 0.991165667992351 -0.1794725137394522 -0.629558006079619
Ni 7.018646128656263 0.6948548239689394 4.70059633670252 -0.7759687042680958 0.012290387331578834 0.09976548752611206
Ni 0.9958007672839931 7.7362628626473695 2.6501851341361675 -1.2642726166595128 -0.5853064924604113 0.0643696245253214
Ni 7.737936599025644 3.6697348635443254 3.7716373625878767 0.3748269888164835 0.7131767086425396 -0.5359341126748705
Ni 7.376834760830671 3.573309553708382 12.726748530622297 1.50629415677578 -0.0705533847385301 -0.9242552793230469
Ni 7.949677821712866 8.884617915393333 6.849245912727552 0.3124137166865846 -0.44889867112091725 -0.42074791971831405
Ni 6.684695008684003 0.5824014526856927 0.4049627785294304 -0.07200014448738568 0.757973810352572 -1.960499584821591
Ni 1.7449289813049913 6.475876039241011 9.33227001879243 0.13920081070359897 0.551940772515772 -0.8369259606777587
Ni -0.024594877536968714 4.8716404331714065 1.277196564978434 0.1402161393419908 -0.8550710070179014 0.1424296020535418
Ni 6.516787584660238 1.9334550280643639 6.857839870488216 0.8967951262295651 0.5970080971680557 0.6033139847814254
Ni 3.4645800196862044 4.285253678460688 0.4473282127918411 0.1722428287602324 0.32098243219220207 0.31431093370929736
Ni 6.153984868415993 5.612608051445359 4.923940623741834 -0.20080829910275091 0.12515693101602315 -0.5430390991507681
Ni 5.126274543260789 3.147022468997368 9.05697928762804 0.6230091492175077 -0.8576475094958261 0.34022996756790436
P 0.09546630412731061 5.618841588551472 12.506740859671133 0.24271856618329168 -0.380996350851989 -0.5182624064267203
P 3.878960958052304 6.1547629296513 12.625623188091685 0.40701848594736356 -0.7092483201224109 0.5470991281527545
P 2.524700141883912 8.39655638748849 1.3225738199993722 0.12840449141904337 1.1714164546587245 -0.1813180515886232
P 6.32691350157458 7.7828922534237295 5.81064634916753 0.8333030192131907 -1.351001582716641 -0.24489217679584277
P 4.64102670191618 1.0590408607117698 12.535739925688878 -0.32471850219586657 -0.12740150407582573 0.668827493103203
P 3.9158464889400073 6.20800584092776 8.117399777651471 -0.45815309983964964 -0.25687737418217693 0.9799903681018218
P 4.75084190277832 0.9648140262267492 3.946981604465379 0.18617023747460193 0.4971215106830471 -0.12405984129710247
P 0.3241846420244368 5.627291695455842 3.2599318203533985 -1.8016941125131876 0.8928757365705011 2.0945975270809862
Ni 1.5056299153300705 1.2870218498800887 2.5788930116453406 0.40572573527786904 -0.12944141732398998 0.34938926546966925
Ni 1.8122584198299576 6.461518095282515 4.680668017132653 0.7966599140688603 0.836992552249636 0.6119757742214816
Ni 5.948649080084545 5.5007662724819575 9.224457873250019 0.4497911010281996 0.8050242268731554 0.4366237104083061
Ni 8.534137517782654 2.267650423075615 10.356091847215836 0.40014309898376893 0.1415950219673884 -0.21119529876402982
Ni 2.1342038739969733 5.355856891018051 7.050702251550869 0.35166906264278147 -0.28886498283236706 0.30553421595793184
Ni 0.8116400059436338 -0.0023224223151516897 9.121650651839833 -1.3879131110310097 -0.1841264675716958 -0.33822270732988846
Ni 1.3483439318905996 0.8229960810896346 11.52008864495855 -0.18177416528943532 0.6412794082816052 -0.5333527251009396
Ni 4.014443132455874 6.7193730169971175 1.5218751101453658 0.7579943791778623 0.7448876665925752 0.27282644131226563
Ni 5.658504617104745 7.672561360812608 8.077516901563106 -1.5330171745929209 0.01686232297297741 -0.7840679363364625
Ni 5.482726108491257 2.9814673231268545 4.905680612216043 0.2727166552072787 -0.2292161608214827 -0.3718349960676951
Ni 0.6611638677578238 7.3482455340450095 6.9452469077735435 0.3339598182884765 -0.13159445911125078 -0.0342316674893604
Ni 5.178169418210964 4.741061853994998 7.158541538764278 -0.16765263828638868 -0.8342301590131503 -1.1865096015464212
Ni 8.099916017916252 7.270466552185411 9.013493807075735 0.5340009002078997 0.06244926757415696 0.7032018568180147
Ni 4.594931097336134 0.11723030537907883 10.230456671050721 0.04600526308552077 0.2585156811165483 0.2995142350160971
Ni 8.204963331906226 7.3563880353447235 4.4583958260978 -0.5049314936457691 -0.6949720127090547 0.8529115374727375
Ni 7.222480077859098 6.140938771889118 7.092068872320516 0.9352783699064279 -0.9248492041533041 -0.8670443773296939
Ni 2.2518449233305042 5.229440034728161 2.6213986778745793 1.3741800777156332 -0.4072537418866212 -1.1522535085770285
Ni 2.2495107396245864 5.256256005675219 11.484389205093505 -0.689957847323915 0.4263781214208979 0.9792835718427844
Ni 1.2725372447902645 3.450692531358359 4.000516741066264 0.2744315810158564 0.16673424023717737 -0.41301429851948224
Ni 3.692950039472176 2.83482087471901 3.035130025581435 -0.716284658143902 -0.8050653645237361 -0.37589862461410745
Ni 1.1506078114388845 3.3392397830126104 8.282204003957677 -0.5361380011555605 0.17733901233621716 0.023652863532249588
Ni 4.0089424204667345 2.524256827924261 6.802727802802287 -0.5665227840950049 0.4458115475551612 0.5336175487265519
Ni 4.016352096649474 6.822945633529477 5.995511889231498 0.38554103279987795 0.8593020143801136 -0.42117729394624887
Ni 0.47618704684275986 7.35488619621611 11.271822875607912 0.8392142424913032 0.7309695138495863 -0.4256034480384025
P 0.002476225117479616 5.417332775830889 8.194399793553396 0.9215005993960451 0.6548779729016464 -0.8551949341902756
P 8.723984459197313 1.496410794414061 7.987222895205847 -0.5783406026655394 1.3203869431545776 0.5669459876753526
P 1.843797041530849 3.357388513687306 10.495604559762766 -0.5254995476051079 -1.8350374638603235 -0.36749703081397356
P 3.9956972850192 6.098308253973284 3.7366399872793403 0.2787579763053522 0.8722014960506012 0.43222635267155884
P 7.01107360244753 3.9063197624193418 10.468075667590801 -0.8179159952341591 0.004489403229921301 -0.607467859048799
P 6.283613489107436 7.66465408732822 10.177556649551214 0.6135739719465368 -0.4045952212178516 0.2279108117464978
P 2.4130483546175037 8.429415903844669 5.90431677939707 0.34350375322316967 -0.28407733163573656 -0.35240851191196726
P 7.030905116724165 3.9950006487968914 1.583050627132482 -1.4891531262201192 0.9969604202972573 1.0951590775568816
Ni 5.372322838090805 2.7595660682623224 0.6723109520371319 -1.069298407740036 0.4720319147042709 -1.3468875605482675
Ni 1.6177973943454604 1.1655357304883596 6.923159920636887 -0.19355624552602793 0.3990745485099385 1.1020203234530892
Ni 6.855886574898652 0.42546288263500975 8.921544158787535 0.744761425427356 1.6055449094490026 1.0800209363638626
Ni 2.8027122779271387 1.6957573206783865 9.227900341855065 0.43418630461140706 -0.07545570713615392 0.3691903593559964
Ni 6.199438120115729 2.065580682487719 2.657852656193398 0.619622749243778 -0.25198893574162406 1.2574530226345182
Ni 3.9730792258533283 6.764446285302865 10.603747833691365 0.23202072014981331 0.35098232098840193 -1.849902296787298
Ni 8.039516752719708 7.462973377357977 -0.034887903902173535 -0.46715144668351805 -0.5249164214081282 0.70863871156287
Ni 7.590095917093841 3.6029844473340056 8.275146264775557 0.4161597861269994 0.1723482439898451 0.001267039637881689
Ni 3.305457449842465 8.371649380735033 12.385991184285844 -0.6234773471031778 -0.2920369528024454 0.4986299769077735
Ni 0.09737979193274333 4.828648026308918 10.346252991478682 0.47353523872267483 -1.197188421416506 -0.5214104651373987
Ni 8.893104211192368 2.3050064095939686 5.5741528272515435 -0.22921050439452784 0.10267109120868124 1.1817744008542808
Ni 3.651568038422298 2.895554887191208 11.739924418660056 -0.6400573629490461 -0.6891777746247808 -0.6849151426936849
Ni 1.0818579587983013 3.296844492912101 12.561944304316091 -0.44706264635344295 0.0388838215493911 0.5804576490085422
Ni 3.088685970796752 8.380886596098374 8.067121641570472 0.6629278397893164 -0.17489286478856977 -0.17445834835431243
Ni 5.549322721899249 7.8612683520453075 3.7142879164892593 0.24327263891454876 -0.16290843873318395 -0.19692876154268665
Ni 3.220178319563463 8.386912047060163 3.440943243135502 -0.39145585562241614 -0.33787252307932136 0.5905466578134281
Ni 3.2894981472950264 4.550482087463363 9.51999538625733 1.1618367813900894 -0.010782949548116913 -1.4203563191613795
Ni 7.375341968925723 5.975238870439943 11.264539860556502 -1.3299810146009161 0.34321321856594444 0.715437222541942
Ni 0.5732655662274138 9.084136338907319 0.5811266988711041 -0.4725325084897733 -0.17741280299694606 0.32601150997567724
Ni 4.630631441923546 0.6036787133042113 1.6535619742209031 -1.0611780926257466 -1.2907632067508739 0.02292292734476052
Ni 5.9445235460926895 5.462704602517628 0.3388483821428546 -0.13179577648877946 0.555548030251056 0.39709608462732904
Ni 7.793034191153707 9.14285282050192 11.207707010929234 0.06088783662430804 -0.6594352532550255 0.22455680767260033
Ni 0.13890654856128348 5.078206643921479 5.707058352354938 -0.8435581212822956 -0.6275008664402743 -0.23096271119894415
Ni 7.641565572531698 8.910284888934763 2.363930072610531 0.9189384950958238 -0.4882979988541462 0.9185119490813665
P 8.592962566061253 1.545510077251335 3.491843828204746 0.4307135155714582 -0.098445740273424 0.9342553279585524
P 2.005498070119498 3.232066371461045 1.6424257466099947 -0.6463023154174934 -0.5273186030917176 -0.3244845318081896
P 4.878163481434844 1.079469491750385 8.27425873213389 -0.5961951143484571 0.5432758977519224 -0.011870526185340846
P 8.59754950846009 1.5594156600265128 12.675424535485469 -0.5152727276707771 -0.07042997178678838 -1.1496759776578394
P 6.155332904742279 7.658112944617449 1.2087380329399076 -0.10846532929295513 0.04793873266280776 0.512811153504162
P 2.033526369037846 3.3174450212003768 6.148570105051683 -0.5997527497927284 -0.46883474792321195 -0.24705421744416808
P 7.273506419337304 3.9146613026397157 5.963599617193186 -1.1992350195328896 0.35390437973120337 0.18667031703947204
P 2.466589824274955 8.476705741948672 10.259746152948157 0.027679211082823296 -0.3391665593003966 0.5773044480915411
