# total energy = -340869.542199985 ev
CRYSTAL
PRIMVEC
9.27626539290717 0.00000000000000 0.00000000000000

0.00000000000000 9.27626539290717 0.00000000000000

0.00000000000000 0.00000000000000 13.57675206179526

PRIMCOORD
 96 1
Ni 7.450297426202706 0.48233240212288053 9.691886533173754 -0.7761311979878891 -0.2589885069879088 -0.07732669890662167
Ni 8.924407300850781 0.5378499224409261 1.65861757475702 3.9978026490564824 2.859167245483521 1.032766888472905
Ni 6.110572807256067 7.160302819745999 10.932612065737949 -2.409623741689753 -0.26654626473050863 -0.7878654557056819
Ni 3.289066842241107 7.823834078137919 2.892011147211711 0.6795482219548168 0.01628151076884293 1.1621707676907405
Ni 1.1872599221350968 4.1314259434860885 6.131220846233482 -0.5858088860181266 -0.5110969990265326 0.32870525475775647
Ni 0.4723613445296263 6.914620932726427 3.8147954687874335 1.435671095141579 1.3169357513811837 -0.8210607115107279
Ni 3.0957309204264227 6.7184186449276355 11.232467342230596 1.5444817235890946 0.7199376815154569 -0.44803529467935743
Ni 5.197241000042169 0.07413498481675364 3.5701562339899113 -0.5431540274620775 -0.01555208880198612 -1.256586303758849
Ni 6.407784348132303 1.48963834279498 7.626686538902946 0.25904224304397966 0.6711697680831344 0.0057739263692997336
Ni 6.768167255842719 3.0294056233831923 4.201203866481694 -1.0496430954029536 -0.4014178519311345 -0.022468099195529046
Ni 8.455390049969278 7.757907660503481 8.331686413784665 0.3409167092222838 0.38817307110608634 -0.14729207235216568
Ni 1.3592882625080616 5.581825683974374 11.992657285264537 -1.6517931417832648 -1.1801484352150837 -0.078533060509897
Ni 3.260579431441141 9.15711169268665 10.339905093069813 -1.3923611195000343 -0.42624468116682723 0.42653984380974275
Ni 8.101491251718054 4.356941229698391 7.730114114349505 -0.36384786409716047 0.3409485909014838 0.0679686547304894
Ni 3.800356034189183 3.769466070671147 11.5192226768373 -0.606332202782459 0.6584566913918402 0.7458286903496059
Ni 2.499545348263012 0.7495073958905877 2.024266618290016 0.7261065293303302 0.8894787950738101 1.0097971670506094
Ni 2.4494164104697798 1.1296728670239962 7.219790581621318 -0.35839712539523433 1.6629702414460068 -0.28831888052090987
Ni 9.234512850522833 5.788723505687969 0.29094542365208137 -1.5051438452214208 0.05118192219045379 -0.4106396276397186
Ni 6.811227679461554 6.954545978666855 13.434182422720479 -0.6146456077441608 -0.8916930291163094 1.3079086081819087
Ni 0.9819390655260272 7.604997702956544 10.08805634486502 0.41386301967302275 0.40236813165954577 -0.28236909069537824
Ni 4.015333482997134 8.394166698852452 12.741469888882602 0.40867427638323167 -0.023811500597300927 -0.15393091782492202
Ni 4.422162651168453 6.809446636519973 0.7917106925937873 -0.40831097950654194 -0.8184831805915389 0.20716123790397226
Ni 4.455139774383653 0.2597076001845183 8.290426513264583 0.25557048244529534 -0.39065984208368204 0.9460700612052931
Ni 0.5255764957950664 5.645247509972215 8.767825797489898 1.441758953206872 -0.14836190837757676 -0.983383967164403
P 2.1057029515407173 4.852646295907637 10.075050093258822 0.8048308799154268 -0.7102806180416671 -0.21682035826029109
P 4.237286683326276 2.406782695055698 7.650798335351124 -0.06057056249420535 -1.8335997029725326 -2.2388518410480924
P 7.295420900407773 3.0646090502753687 9.413698757217274 0.015004443828632225 -0.17043765723069357 0.3664174245965496
P 4.551037805269376 7.250820616745697 4.7648557209122355 0.025339250095737006 0.7481210859282084 -0.17792419541572582
P 7.158948485009172 1.1414351714506836 2.9457615389861567 -0.15520669921355204 1.8102954810289533 0.028777072132692375
P 4.517095950460819 1.9892023353776511 4.5352329044159125 -0.01798126706876903 0.6627920855424005 -0.612674342950403
P 0.461590672865725 2.103977566191061 7.170195029084027 1.413564750160843 1.1807007081741279 1.1248805158807145
P 5.377599426673151 0.07234095510372418 10.329342209749099 0.4632677953583957 -0.03326081893565885 0.9233420234801581
Ni 4.2194391488491885 5.809567273863652 6.600392083119309 3.019275752874065 1.1370091808234482 -0.28337284936954427
Ni 6.975454680699783 9.26782391928958 1.005198373191229 -2.9613171740814095 -1.9713205866964951 0.5099842255783281
Ni 7.631778280937496 5.918452076198397 9.554028243736235 -0.41390698553708066 -0.6646260534273457 -0.4202774078397988
Ni 3.523023529895275 7.075026112652515 8.511781394480536 0.5934741158728682 -0.5512275484988314 0.022873305053747704
Ni 8.432190110402129 4.327359219590578 11.383766940117852 0.7049550920636957 0.12600848038304108 -0.1010852347788001
Ni 0.4205534027133412 3.1559246060926487 9.260878779443948 0.04666346549480996 1.8708053654885521 -1.4825322784694919
Ni 4.564442008657832 5.475668103643923 9.778044485472709 -0.6688601461133513 -0.7588981219390544 -1.1255801130509002
Ni 0.5082929582494796 0.8216544770491085 8.832614017369483 0.5212299736954765 -1.7739891903987512 0.6621444246560725
Ni 0.5532717135366422 3.100471092005316 12.914016772486995 0.8596043761118808 0.544203037551882 -0.06324116734783301
Ni 2.7189661281595936 3.34630139927002 2.6479006595374703 1.1362152241672432 -0.6164204402563964 -1.3244909380206222
Ni 7.166471536184286 6.867822174183337 4.587000958291319 -0.16243098487613314 -0.8912564557995231 1.3441048555968078
Ni 6.137065821012075 4.565620094353565 11.042732466613417 0.9089307331508346 -0.431270930736825 0.5646201677556534
Ni 8.130906289050092 8.623104926968102 3.3461260778554585 0.14628008614788357 -1.6670598381343482 0.9554905831882448
Ni 9.083031437835288 2.454731710498559 4.06509693593673 0.556883461233028 -0.12563001399769977 -1.02311882386018
Ni 2.1877793470985494 8.372692144634957 6.000462610272452 -0.08732057689453994 -1.272383161581789 -0.5714667583638415
Ni 1.926003139747508 0.1668494014444003 13.324807833576799 -0.3118521877561597 -0.1654296624931409 0.5228392271641253
Ni 9.047790905881829 8.303027392076263 13.547235978690361 -0.8044971507250919 -1.148269584228616 -1.9596791458028249
Ni 8.21863193018825 6.778918447349446 11.601687747912072 2.0753453637195935 0.4936692904683885 0.5061594525155992
Ni 4.995315256540487 2.760208403775566 2.3705412540741317 0.4250899987370937 -0.9818485043564832 0.4301794974448591
Ni 3.613541326894972 3.5832543206227845 5.864559757564544 0.6585860178808528 -1.3228078938912444 -2.3506927716815
Ni 6.58264194942809 2.3727388013286137 11.595347420565354 0.3463602488353583 -0.1504301037605151 -1.1819451221041901
Ni 8.726702258070032 4.904955156051242 3.4009358191295322 -0.45910877888469964 -0.523394585446963 1.3335250231984324
Ni 1.3616073288382444 7.9760483157858015 1.7002438877572703 -1.2428684399521241 -1.0370966261965107 -0.05881244215251807
Ni 8.103587687680537 2.6567316641228067 6.164714657427047 -1.703401609988176 0.2338570020276037 -0.6541421231768864
P 2.0781709960687866 7.098745523077626 13.393208231172274 0.3400067958135048 0.1556946945935641 0.12562255779853204
P 5.93395271554934 6.5453513628387485 8.373014031041587 -0.5000474260805904 -0.24325618385431652 -0.19574991074323705
P 1.1647278736710402 2.325235046621148 1.227729484849852 0.24346752853417422 -0.14814310749855134 0.35322380872441106
P 4.643206777496163 0.12820633537129725 1.2177584272565978 -0.4688666296024119 -0.30242600934625335 -0.14673388585585054
P 7.475807155834717 4.759002397494854 5.498978430768389 -1.0177935549925248 -0.4127546171001924 0.29700380988941755
P 8.852831637636017 8.856699840274763 11.18786798619505 -0.48078986340255914 0.5368260283615206 0.6545709831841888
P 1.3613754222052261 4.045360753840342 3.9391725618343325 -0.9737202188223939 0.6731806278655762 1.4566528395995688
P 8.263853723626815 8.126129012409915 6.119150569798147 1.682568989513541 1.622321357576393 -1.1295838348936547
Ni 6.686081584019566 4.596918213545713 2.4546491517372044 -1.5292942172153792 1.836046364740812 -0.7542498245337655
Ni 5.734039921622257 7.052039527187742 2.9162184891926914 -0.3387212442328618 -0.4617259047925726 -2.071172977509459
Ni 8.289808713994221 3.1009070764753908 1.8114913548692064 0.5359099443051545 -1.1350140047702904 -1.0285263680289964
Ni 1.3456243236906242 5.29643210511675 1.9579032885589711 0.6887106051803752 0.5879143623969036 2.1495039493108785
Ni 5.314381678512365 4.354640715898849 0.46543846772076447 0.4826557129667042 -0.16277345581721642 -2.5018052462210205
Ni 6.776831287652282 0.5400391210566188 5.206494074699599 1.7816315374353573 0.864133631440802 0.30999739393560805
Ni 8.885298566258577 1.929036478507387 10.913808148306297 0.5819455464079785 -1.2502711601740983 0.9040335529595334
Ni 4.360336342805778 1.3484443083481266 11.989860491270337 0.13564626058312124 0.21910118387466784 -0.7780237870249116
Ni 2.216461559470251 1.853564783857916 4.725035496769931 0.06989646788082157 -0.4412218713019498 -0.32621514134605106
Ni 4.523338877021671 0.2967801945388215 5.968448363397544 -0.3220399269224389 -0.12525257605362297 -0.6828528608480176
Ni 2.559980216827578 2.399565760636169 9.7943911202209 -0.24960063801510562 -0.3405068753783749 0.040793894087910385
Ni 2.6328823859832062 5.877627232521858 4.718926148429698 -0.5709805627560425 -0.06540346510647446 -0.5529159919448478
Ni 6.527012186299663 8.280189226856624 7.012880700762806 -3.738521807639136 -0.044846466890729214 1.747663408020029
Ni 5.67713931014489 3.9907606561625166 7.237155750301727 1.1140944810088038 0.37944289032194006 -0.07752930183573101
Ni 3.3920241110359055 2.413136936800399 0.31104894585517057 0.7119803743415931 -1.659743506978593 0.18164689568295167
Ni 6.583198525347334 8.995973687800223 12.248497610436843 0.6643884834952429 1.3736478593612471 -0.8033982612339583
Ni 2.443887756338624 4.369825962228886 0.2528394533410487 0.18240999910122133 1.3922541616085249 -0.6828952840501787
Ni 8.340902383380811 1.3390103465169427 13.169626118652813 -0.21278449762802065 0.1528381989813755 -0.6776903428104716
Ni 6.050573923161575 1.9554089008142266 0.17612010100593928 -0.7689511352996822 0.4160715972885673 0.9790498585654235
Ni 9.032364476653454 6.255588663015061 5.869786933072776 2.063556084394149 -1.826438666447719 1.8547827648080508
Ni 5.062280615890847 5.077363823302357 4.5001639833708875 0.8975055220330285 -0.5073763556418358 -0.9946639109535967
Ni 4.867349176440997 2.7344482149798948 9.499993070616442 2.2272271123249707 0.4157023868746066 2.1613443935892325
Ni 0.14333963461553853 0.7134412763235838 5.597518342017455 0.08364492781516562 -2.269707135866052 -0.5577828331188458
Ni 3.053022994889775 4.129700558136432 7.902225941110356 -1.5840129489144976 1.3717231315347087 3.5243466003111754
P 8.050768632944294 6.580081700199568 2.088158750939618 -0.4551719057241386 0.5555786263786754 0.13098330788981313
P 2.0758519297386036 1.4304464937833927 11.697376135201546 0.2066385326312828 1.3076514978657803 -0.9934917450223664
P 4.278092974472173 5.012272269546783 2.123933595775551 -0.1530066062384397 0.3203951922301643 1.808703453951485
P 2.2735476962540324 8.612131105093678 8.343565599154394 -1.923844909713035 1.7084674545468574 0.6467111208201378
P 7.59620380343249 3.807916190425579 13.36924485496923 -0.39787898553994056 -0.49422079209648434 -0.29694878828176596
P 1.4981446780940908 9.051028322478766 3.8503940645822725 -0.3020380298792153 -0.0783980775939295 -0.07740511755304089
P 4.85939941706113 5.7486314869717665 12.267749571483488 -0.24951810560362833 0.7928621375893249 0.39986259162887267
P 2.24891921182749 5.997671382037445 6.855702733541801 -3.366123739979119 0.6370378593964319 0.6716266531148949
