# total energy = -381170.7071827303 ev
CRYSTAL
PRIMVEC
9.22549487665668 0.00000000000000 0.00000000000000
0.00000000000000 9.22549487665668 0.00000000000000
0.00000000000000 0.00000000000000 13.50244427930051
PRIMCOORD
 96 1
Ni 0.4767901875430741 1.0492432229495963 11.240677072146685 -0.1473056991989205 -0.7545989803430682 1.600078744128109
Ni 3.5296190344154983 9.629663937001732 8.92882891316119 -3.744491652069325 -0.9850749817135808 -0.4749519165645433
Ni 2.9089369562427088 6.60010363362085 3.15387384851946 0.11872145980332456 1.96186844014466 -0.2668092885839082
Ni 7.823376594269455 4.318601817891669 3.7573116314363664 0.416082910142477 -1.7229059985696906 -0.8707920172975843
Ni 0.8774211462043303 0.6001230625630443 5.031699369687553 0.39232720248377595 0.7803025557567594 -0.4522789004470599
Ni 7.920022879900009 0.5929926774767655 13.071068788217596 0.13693952547324803 0.2168103309579621 0.15487476979543005
Ni 8.299707352161478 9.182688704202915 6.60138597742599 0.5195019352607763 -1.0045449175127343 -0.47621150000325724
Ni 3.7413533701836235 5.904547438019883 0.4882095052553213 -1.672628076250745 0.4324677792584036 1.699092698200177
Ni 0.743843358985741 7.099396648570383 3.0936258308658795 -0.9370686290376313 1.4788550867282209 1.9114331663122437
Ni 1.1027972214304453 1.1783632509836988 0.1968646829255012 -0.8493952967893629 0.627040638974404 -1.9515760570797165
Ni 5.159275049858486 3.0179546306696152 5.174379952823636 0.010533038320839924 -0.4804749032653015 -1.055456616760937
Ni 5.3966101342544075 5.635744190175525 8.759089953187152 1.582410123203752 1.0073242800300846 0.27733769891905785
Ni 5.373168151456847 8.325391130244284 8.154639210919134 1.119388896638524 0.12457766147378548 0.03593528044402844
Ni 1.6288810738629032 3.1544273782195202 11.709062833743841 -0.40137157207423135 -0.4064191618004678 -1.4997172748892107
Ni 3.177832459037077 1.3750323534151785 5.491241571776743 0.15571346364664151 -0.6954175848869055 0.5299971783651454
Ni 7.918998849954898 1.906771434283254 4.715444788305511 -0.6730009077546022 -1.3465959974497776 -1.0321289977785904
Ni 2.9465400738668155 3.1847977077628373 4.017477048311282 -0.9458031806971519 -0.5955739358246903 -0.4989493079204052
Ni 7.675722546778328 3.455446054607397 1.1330051822617446 -0.26098908235770535 -0.4612973018955862 1.4610591961973807
Ni 4.425230089113315 7.373947379800369 10.274374739454148 0.5777739315287921 0.18753086526755444 0.2959838532653354
Ni 2.46488620535921 3.4519495920020153 0.23071855938119865 1.1652221529225544 -0.8275692020532069 2.542498867285641
Ni 5.035948632685018 3.463518362733279 8.051345956140352 0.7598154915470011 -0.7640668106241874 -0.6382179957474622
Ni 0.13241352974946194 7.161668739827183 5.703378139126912 -1.3194829432830695 0.4665912033046738 -0.12370348639894825
Ni 6.605389842256428 7.941020106522303 5.893317242955157 -0.16204686206383703 -1.8959790365407023 -0.3878869073242352
Ni 0.7074321753157643 4.757689252464626 8.89971786368551 1.095353710066191 -0.377847263700046 -0.6870805257761199
P 2.5883786814426974 4.620146347494603 10.36669057773123 -1.1461859622267099 2.4295852724133447 1.1733257558662955
Ni 1.7614514370273824 9.004295307368432 7.164167926422957 -0.25431269877879426 0.3588799785689239 -0.10955599125397261
P 7.7689277227735065 5.909962803585475 5.074096977063683 0.04367430095949898 0.8084278532380658 0.7042328691856904
Ni 0.39685773120584406 4.246772113813824 0.07579389927977806 -0.3283334732406345 -1.4080731309186525 -1.0417621499929801
P 1.5725317503967489 6.917183896805481 1.1704053389958293 0.42512033775439684 -0.4074640581252144 -1.4012265403104642
P 2.108865127775326 1.9136628790490067 7.625532163774846 -0.614660005921864 -1.0170656756875645 -0.02830038960658997
P 7.027788356372562 2.3464400750412735 8.443321555391663 0.3042813173874373 0.8072765132424419 -0.995366593447576
Ni 5.164413650574048 5.899104395969289 12.237009313617003 1.3089139095179716 1.8078611605558477 -0.9615193058808279
Ni 0.5754900683608539 6.403379178219366 10.447314023644035 -0.05610661318558079 1.2598307788380756 -0.1801967934999864
Ni 4.7510468960639 7.823450398229463 2.1626866656112043 1.6447717161601094 -0.991333561028783 0.5909225530956081
Ni 7.115578166802149 6.263142428709049 10.838871707971801 -0.07620595503861714 -1.6249742218182077 -0.7212283753024223
Ni 4.758657929439732 3.687144361557703 1.0671342254050504 -1.3529610204358569 -2.296264060418974 0.16993680633487507
Ni 8.971360290214834 5.745444551232506 1.5715224812436388 -1.734939275585141 0.03203208873488032 0.17860090976777626
Ni 4.137154782211852 8.064586386565798 12.664266895950167 -0.45807776651702403 0.15474955707147542 -0.8934038411598291
Ni 8.51644190622015 8.567781785900756 1.7941235275734506 1.794237656235142 1.415386119640298 -1.0243619522386616
Ni 5.401324362199923 1.1556685332812198 9.34651319933181 1.8049067059132142 1.8586772147664505 0.5402389106978115
Ni 0.34770982913747617 2.4486862361374406 2.250344551462278 0.33696415233243904 0.3907048363890045 1.1189361253718215
Ni 8.385319945770828 8.72539936799297 4.0441442641611935 -1.3474917697911697 -0.36723966338752884 0.5941294900686801
Ni 1.6767060399481266 6.1246585232489235 7.017490858852437 0.5807795511243353 -0.9354912572481824 -1.2915679620403564
Ni 5.9476028231895866 0.12810891378199182 4.045481038386839 0.5287836176730184 0.6806301421650859 0.2890117928228764
Ni 2.091235206828401 4.692824797112541 2.3765520907245623 -0.6895495561419027 -1.110263794408804 -3.0135984999836296
Ni 5.933164923513009 0.2875476085874054 11.548708047284826 -1.5042737839116416 0.22656638190346143 0.013355852481615709
Ni 2.879941225454542 3.5301264366405536 6.487276752308028 0.1937393080711115 1.3439071377637046 -0.4081248316376649
Ni 7.26829701104883 1.9354627237363877 10.638468125163913 0.9646277696028225 0.48646351674856864 0.6658455276567435
Ni 2.317758011083141 7.701129560011102 5.2713408278337255 -0.5132613536677032 -1.7404041553544543 -0.433998356970317
Ni 6.582593644108938 7.587185471253658 12.590732320396137 1.6689742815482418 -0.7043642525572321 1.172662668361
Ni 7.955679418078904 8.450046018697899 10.79683850764821 1.3268782073058762 -0.09830073005512747 1.5783457233263913
Ni 2.38467975182045 6.48409303398318 11.90362022036959 0.3774826812717757 -1.0926635648285374 0.6378683257175272
Ni 7.591632159844144 4.4271489920735245 9.189521105800662 -0.21571169857714464 -0.6157342128226493 -1.81342374224529
Ni 0.5013281591467541 8.209509687536627 12.943821535668699 1.2672406981489015 1.1127816757346511 0.45293581730476834
Ni 4.629620930860638 7.5453294004340865 4.5767477739108635 0.1183350229981833 -0.7761839056026956 -0.12715416395171006
Ni 4.036633788680874 1.3765361091003427 13.597231979907063 -1.0972637826047102 1.0119108709595026 -0.9707739917098767
P 5.954448140480333 3.090550050832544 2.8736033103888494 -0.3919680193721443 0.17240249426654825 0.43497563328192185
Ni 5.732372024816079 -0.10698160768018433 0.4388595648464314 1.066911395565098 0.7732327933941715 1.6056258991985832
P 7.148374801530732 7.4269478485811575 9.04255989298411 -0.3133827654680732 -0.7928842490765119 -0.8982192602706015
Ni 4.099680821517759 6.798248815252492 7.141442764586975 -0.32751252000123593 -0.5196459170378083 -1.499610316997701
P 2.216895674237125 1.3979392575026803 1.836791441953111 2.3226188962634193 0.143499695189269 1.861657123330381
P 3.663019692130068 5.558268483157063 5.280779431769257 -3.154895273984309 -0.30780681404219246 -0.47303541626812073
P 4.712327493544671 2.2270344932432327 11.420313143157804 0.8431739984699994 0.6372016386678058 -0.5200747770451108
Ni 6.224404575199817 2.530497925806376 12.909984265104004 -0.14354777481838504 -0.7391739040372496 0.1657176260472049
Ni 2.927858446489775 2.895864429826281 9.317672456859658 0.4519801382597184 -1.9497791130802937 0.1060711180291657
Ni -0.04793474947573534 1.8986160967023633 6.982923851633162 0.9655374259012854 1.382589384825251 0.6399282935703495
Ni 6.560258720711499 6.371403612545873 3.3634457282593493 -0.11410350141533897 1.2533307729360286 -0.09523854619003598
Ni 5.623132938509148 5.347991775599097 5.63716214875718 2.103994394914854 -0.4039470461108914 0.7857473809214145
Ni 0.07937892663716963 2.4930700925872884 9.546322660261632 0.5762968327626333 0.1997253504512173 -1.738040025997652
Ni 6.003979823140743 0.9299391215965662 6.559176570147881 -0.5849933320953667 0.8771164168537153 0.09672567225852374
Ni 9.006352592753656 6.242707957281816 12.581848168710167 -1.1433538920945534 -0.7580229184229526 0.27853634721284937
Ni 9.373840960623793 4.360651624106262 6.545472097323883 0.4681536626957873 -0.3901325088253023 -0.6041598777214886
Ni 2.4350601800209524 7.299377703707224 8.816042624026371 0.25138009851303156 0.207240684991656 1.2061327750939872
Ni 0.8117134806091538 -0.23350834906950332 9.355371519631776 0.8604692952153374 0.6118513328284753 0.8133445738133928
Ni 1.3682147126094337 5.0930913487212575 4.413814461599069 -0.4090278030679085 0.12817849145116636 2.2423020043802224
Ni 3.1922980351986565 5.076900604994489 8.33542385605788 0.10627937738522987 -0.8518489005361781 1.258370392242465
Ni 6.020013733452495 5.365833882931046 1.21994347950274 0.8414058508259832 2.6254812218161425 1.577212895273529
Ni 2.695385197959385 8.94567651213203 3.467697511968735 0.33619539248721453 1.9406774078893416 -1.044457437436956
Ni 5.874038726051551 3.9501355475514264 10.589480746708563 -1.1059811078730502 -0.015747492642243847 0.7862549166854523
Ni 7.5379582299282815 5.696392594312148 7.193899851712204 -0.4869764518292452 1.0768661927849648 0.5200698919491042
Ni 4.7546909665892985 1.0574815899854961 2.2535983835491336 -0.9248188651360008 1.1182784371831644 1.1444224425683838
Ni 9.252525701360543 7.098391069615273 8.294173900259874 -1.3124304073116624 0.5277420637823814 -0.7694059634489137
Ni 7.1688000474629625 1.413401187124369 2.1985221783931186 0.23173378503701383 -0.7287971887886159 0.20839973829676367
Ni 8.829352245664325 4.376934622783041 11.087747886613982 -0.2019310998532845 -0.6210857069425497 1.0940306203793932
Ni 7.053250722575342 4.754857025499316 12.939648844279743 1.3193713574058696 0.4188293625393626 -2.808712688377395
Ni 3.0228810450001533 1.0406542871036584 11.397237412511783 -0.8650985664572327 0.39472809861578473 -0.06795939875910877
Ni 7.829723734830147 0.34300482668696236 8.858467907887505 -0.8294587057664361 0.5279482662559166 -1.2081685745770934
Ni 2.9696683898343417 8.620053440576466 1.0913880517626993 -1.3032713665202136 0.14195986150597487 -0.4052189708447795
P 3.881922237513976 8.721469307122543 6.215877450170386 1.744911813416821 1.7045760899122515 1.0889020409035763
Ni 3.901775502756144 4.3169135523064845 12.153158789552844 -1.689746995319219 -3.0467541607999915 -0.9290858679424708
P 7.108345378721359 7.26545555858852 1.304153797871937 -2.074923959911459 -0.759799293597085 -0.4997808026827651
Ni 7.2430745077160745 3.2881048007841205 6.367253062344919 -0.8032362817347972 0.8187480042171512 1.5374407575819133
P 0.4857924255650573 3.0172165910695345 4.689479632625177 0.882976732289234 0.12748969291425785 -0.12200167321649312
P 2.506161069993718 8.339995088830879 10.873059547346536 -0.688396416374066 -0.7319239073430556 -0.8966604004239138
P 8.460839847849076 2.6090899177199596 12.402129990793537 0.6410176699797865 0.4507300679027011 0.590064575970687
Ni 4.3331965509832635 5.00796770634696 3.2019156137372073 2.618071045395001 -1.6079285791898308 -0.019419542177192363
