# total energy = -340884.7217058419 ev
CRYSTAL
PRIMVEC
9.11202045346318 0.00000000000000 0.00000000000000
0.00000000000000 9.11202045346318 0.00000000000000
0.00000000000000 0.00000000000000 13.33636299078994
PRIMCOORD
 96 1
Ni 6.9273952524879645 2.344732414364734 11.66667731891408 -2.917671412367001 -0.4996730734603072 -1.3214297825967953
Ni 4.976794166651702 0.3527472656723724 5.956326331823697 -0.9117250080665201 -0.15111941651805585 -1.0710411014627554
Ni 2.9470096239117463 1.7795957997934941 4.784980670921332 0.4076417213536592 -0.2804585039362267 0.6060820344448659
Ni 3.389379988211009 4.340948274108924 4.331250350842802 0.10100373080858734 -0.7682654220865672 0.4949805530806443
Ni 3.8796431315074886 2.5708654235683017 2.6290374727304284 1.7868999849231484 1.280968075037323 0.35706143730294637
Ni 5.003328369931744 4.73445998525311 1.930118175275408 0.44816796360247974 0.5271059728602793 1.6405795324556327
Ni 5.903021923936364 3.0849747241394616 0.6326038356997025 -2.550066909440886 -1.2287597684648837 -3.0970541946061245
Ni 5.735707006138245 8.513369731712228 12.290871671026164 2.1777621728256236 -1.5229453921792158 -0.0009420521982951518
Ni 2.456117751210622 6.536052202188782 0.1126455292612831 -0.15274332527472403 0.586593329592635 0.4269309086005744
Ni 0.9156395896296446 0.5660095461214556 0.4468735247597695 -0.10025091180296283 -0.1095989286767661 -0.17905368103447872
Ni 7.665733150008046 0.20968490125686323 7.066192280174288 1.5800750473126723 -1.2799650876941053 0.30205448493944753
Ni 8.4505696874107 3.022120007715792 1.201213041229055 0.8188613898665639 -1.754587645943688 1.1747059240432736
Ni 7.401083630754775 0.6775743897683798 4.737956267464152 -1.3166274761121455 1.4306502448882201 -0.6466424723657316
Ni 1.2424786478205123 7.7095346318649 2.145727712168495 0.6805213845013635 -0.024325978339874234 0.5844623992925613
Ni 7.925662642716309 4.101156346389978 3.649095348440879 0.10454593963389092 1.4430524752073148 0.45383930295564423
Ni 8.11011727080624 4.20115165778942 12.429823603058558 -0.21583408308762184 0.5427274814476202 -0.4091347609594179
Ni 8.301569930530468 7.345026481517546 8.99909782247695 -0.9395206901225496 0.30354161100793525 0.4232940831789355
Ni 7.06141484790103 1.124778680867114 0.3833272059909917 1.2560345450204369 -1.9511474541827303 0.5314444523346331
Ni 1.6970864554594367 6.602360374327813 9.511640766748714 0.8887216051928114 1.467234471770157 -1.5283303106402129
Ni 0.5183491236433454 5.0276027921632105 1.307933023652079 -0.33834920560542375 0.9713535183624304 -0.5814819765079985
Ni 6.378696722641035 2.05425942941928 6.897313739682881 0.19710308233702184 1.4678142555330271 0.5729243167459747
Ni 3.698778639438278 4.37637580925755 -0.012880751976877264 0.45348397649875444 -0.030893347144746792 -0.2435786001907418
Ni 6.336043355349183 5.593996865543738 4.640294544478177 0.025392729041491754 0.5789324706132675 0.09337012552272952
Ni 5.221789057994585 3.3731788160159835 8.92792109786109 1.414872927449305 -1.5374469282295005 0.8193167322364278
P 0.5824212059867312 5.600439063936248 12.272987508671171 1.1355575359785863 1.4513669086102812 0.45055574710836604
P 4.385624509920064 6.468422787097961 12.452615499577917 0.3296444787425742 -0.40937567332563046 -0.48793804441156613
P 2.9540896637292575 8.642960885231716 1.0712984109868877 -0.7612982467401147 -0.1522419601582733 0.7580231755332687
P 6.58737110084029 7.914436633636291 5.680636688705695 -0.6470114256693761 -0.711983973886019 1.5781073820633402
P 5.009770568324254 1.3554130281271173 12.668064664912716 -0.08621628808676765 1.7044246519360515 -0.37761123642984
P 4.2706763731145285 6.259338367982634 8.01824805916131 0.1248118889717786 -0.6699785759885107 1.5659589196262644
P 5.047968157661456 1.2386971593722922 3.741836580433988 0.6241985415399185 -1.2841022497909305 0.9497382540854998
P 0.4985031433054573 5.99374119861222 3.4605731144635126 -0.8463063734513941 -0.7629815479798085 -0.2049295203599761
Ni 0.7229868768243795 9.528621927886313 4.497582081644383 1.346366655047791 -1.3316625160683968 0.5009036034332986
Ni 2.1044939976482873 6.674445567373283 4.622783063755793 0.6567808463513141 0.8127069402293939 0.9227069609993205
Ni 6.214334099438635 5.742440789182185 8.954087175518701 -0.04298935907733241 0.17211195960932293 1.6150453927402704
Ni 8.584443490498051 2.645456422211989 10.007939712329776 0.3171676864318022 -0.3683094994129399 -0.5770319111564449
Ni 2.684601661666336 5.573841076513706 6.752706887816834 -1.5432025997663552 -0.7394418129866556 0.722179426361782
Ni 0.694587442977228 -0.12075522737915291 9.303473016881318 0.8618270947948125 1.0678339073793675 -1.3598940001102644
Ni 1.5507929686252797 1.3463647919124602 11.391254657992544 0.17827849343135102 -0.22192168404259843 0.10970100147226915
Ni 4.638647091197603 7.034233691175631 1.687876936484458 -1.5020068422543358 1.1788747107089825 0.6682903896528103
Ni 5.866491834324521 7.943750003125266 7.918651854253512 0.6267462476624367 -0.12950363802049308 0.4787489217131304
Ni 5.430645676600983 3.0960093807919793 4.949737844605196 -1.1030191970312488 -0.4751162100565494 -0.8013619475302199
Ni 0.8361609032663776 7.782722379373586 6.759002382681594 0.06903951919716497 -0.03820222210133421 0.24547401744124175
Ni 5.522923106757913 4.695688338633407 6.8619991935866835 -0.4459753268265351 0.13486953031809676 -0.029945638519496817
Ni 1.2123360844790365 7.744825486708169 11.750295596125605 0.24758386469539295 0.6505778028643957 -1.579052776695745
Ni 4.85955891273652 0.7583232917694346 10.367955636641053 -1.6271845992059655 -0.15362932742410315 1.5342849855617513
Ni 8.320204012160854 7.5627764319925275 4.639107248225639 1.728562682634836 -1.1301237665575246 -0.3973683644521092
Ni 7.349445811390766 6.245205624408684 6.943337643304846 0.27105135168971384 0.8714245086752607 -1.1888799015508107
Ni 2.5285674250703787 5.509136619957535 2.4698677899295727 1.1596806542790352 0.8681550938953695 -0.30170584335077716
Ni 2.5036916094953394 5.190006330988822 11.249768673098824 -0.43442747408793575 0.25752760617166615 1.1944054593547302
Ni 1.0673911766577386 3.6977672051786334 3.472521706757853 1.5661854338147736 0.1567673588324526 0.2569071989788479
Ni 1.9034099324065445 1.4154976903622112 2.603578487852531 -1.4606665887446522 -0.9013236102275382 -0.3261632050621931
Ni 1.3255711614574277 3.629928213619599 8.053856012313009 -0.24906559144724202 -0.17445937679557696 -1.2052472871652404
Ni 3.8427121129999313 3.1109439821573597 7.066298890812466 -0.3521598862362709 -1.2643052696696613 -0.1068722737742224
Ni 4.409352210930102 6.89852837199649 5.955793278632803 0.9103659229354644 1.4535546602902192 -1.4652554936669153
Ni 8.99320872372012 7.5306930083149775 0.20825704766689673 -1.5083939767276022 -0.6483980216042574 0.6344186766060299
P 0.2088584410104691 5.884160041797049 7.880923533964703 1.7218793570773894 0.03620961715133764 0.08984488597829042
P 8.942190521740397 1.6530389490529391 8.038039367377056 -0.6139858626729747 0.19315078255749316 0.45145820431797734
P 1.6014011296889301 3.1855896529231904 10.134502030282546 0.9587270878476712 0.37742997365696934 0.8571960237807044
P 4.412140489159392 6.106739363061325 3.836458533428814 -0.6330145971696517 1.3868232204009407 -1.5948360076719308
P 6.901763139223281 4.1083457304517745 10.250248380071369 1.0558147714313044 -0.077985158426227 -0.08558276826782679
P 6.663520254965052 8.039207528386845 10.277268254036446 -0.31484598027716104 0.47627757735450227 -0.18498907268230724
P 2.5371053881450343 8.78544554755658 5.6714617954080735 0.5708005855347524 -0.5093062256746971 -0.20811923094186738
P 7.13141338828471 4.629689975186518 1.0593844443699048 0.42741479021552836 3.1128672503789807 1.4180071022029126
Ni 3.110278804671287 1.7597771555166775 0.5470665670009617 0.5480100700027981 -0.33660471211049126 -2.165152968702045
Ni 1.5927082622682023 1.30219882924132 6.897940646683454 0.42269167370824623 -0.1079549653154399 -0.30907976721734515
Ni 6.692624047985811 1.095301295011711 9.235204849163463 3.8655247907249626 0.020922094864647838 0.034107226096354165
Ni 2.829291432917634 1.5393027109549045 8.98436095195332 0.49481883069179944 0.1970640015689703 0.1883289356888176
Ni 6.426981318513611 2.721067967135679 2.7161237848898856 -0.20550030526178156 -1.7919357475748428 1.0601784477166387
Ni 4.363646316818602 7.32241044699108 10.165963102969702 0.3031101798974715 -0.8433735160753153 0.09820945589290182
Ni 7.849732177080119 6.55794838710703 11.496225132506993 -0.5841844630408262 0.3476820529705754 -0.27894412417422926
Ni 8.102162477034442 4.104946946858555 7.838406846978208 -1.4954181332932246 -1.340140471632421 0.439516715685385
Ni 3.4996172104918952 8.81496849351377 12.125007386868903 -1.9417824680280622 -0.26834192317835076 0.924527302037511
Ni 0.13704023016146408 4.965149004635256 10.000565354254729 -0.6641637690789465 -0.15385712716419309 0.6044015614186494
Ni 9.03567985060483 2.3530243528897468 5.371207056609212 -0.1856681010272028 1.8819518690236752 1.3710104217384
Ni 3.4538748682989664 2.7529782624264434 11.191728748231876 1.0723194539545469 0.051853237225865545 0.8293723167002168
Ni 1.4969773763959098 3.4250717719499932 12.813271087718265 -0.8666576834142364 0.01460592283863291 0.12371428503222565
Ni 3.52739064854051 8.363449660775922 7.934162335305465 -1.9735355920699433 0.1737268695049266 -0.36588289224931825
Ni 6.05338848387017 8.072830883504754 3.5854278398013504 -1.5743150049004433 0.001151082885307695 0.36394350913476026
Ni 3.4837987431518704 8.417438381392078 3.5066361997730136 0.14008064220539101 0.6077311400125146 0.40883574166176045
Ni 3.24757872741293 4.4372532172637165 9.228882929439665 0.34953684679112706 0.9271143460383968 -1.0710069057907103
Ni 4.975919412697415 4.623949402361509 11.07564889849798 0.22116706526476104 0.9255462302203286 0.7346611037685605
Ni 8.521606998115097 9.120767896699963 2.59358897993498 -0.6531861870215202 0.13710613295809934 -0.9557127265013798
Ni 5.0205774244678425 0.4501228712191317 1.4885113982820752 -1.288966005641135 0.2867978158906932 0.44802321049449934
Ni 6.339150554290973 6.539368977598786 13.624428607124603 0.9893993201205477 -0.7271835644445928 -1.1328427081505843
Ni 8.518554471295449 0.4725767117832382 11.056671293700129 -1.8849834567611472 -1.521826448083424 1.0885271740626608
Ni 0.2008061486208494 5.291149756953265 5.801904922830956 0.42708183235614194 -1.0773217922651444 -1.162138628901224
Ni 7.765810469590702 6.541063813385217 2.3585489708322913 0.010713786873078323 -0.8712476167777641 -0.13130546711592225
P 8.749735539776882 2.0524188013071347 3.206421553863723 -0.25030332050908505 -0.7080686979920128 0.24002302162899955
P 2.3300893976507826 3.5372042944651683 1.5992698281273912 -1.1003177389396857 0.5782686117770235 -0.95398134563257
P 4.985022321034215 0.879361902981695 8.157652858605458 -1.8485964334916807 1.9393175514273373 -1.164165686633582
P 8.776652447911925 2.0265588875335228 12.63684414956299 1.267200331829269 -0.9404043782790836 -0.5132240726718645
P 6.724352102869433 8.350009430749115 1.598029682156782 1.3292348804635108 -0.9922689283588588 -1.899013452491652
P 2.153881147984079 3.6017356226345547 5.912703445565843 -1.6934110744343676 -0.7530673741898901 -0.6088819657875062
P 7.231007770788438 3.761970500615162 5.816974382097622 1.3980679400768246 1.2130999504404398 -0.5240183350738911
P 2.6453379659473466 8.754027301365102 10.09113245819062 -0.242981075816059 -0.5397308607131414 0.35644282988234094
