# total energy = -340895.7414090799 ev
CRYSTAL
PRIMVEC
9.02432848738808 0.00000000000000 0.00000000000000
0.00000000000000 9.02432848738808 0.00000000000000
0.00000000000000 0.00000000000000 13.20801693440031
PRIMCOORD
 96 1
Ni 6.440681145840917 1.79615718025513 11.28512737295969 0.5534618371459886 1.8140395214524176 1.1831483983836721
Ni 4.804633598022728 0.40756934807814976 6.051200161377726 -0.9524075733875468 -0.4287545920728745 -0.08622297295498699
Ni 2.7856477037481553 1.7231052427860152 4.754806671828537 -0.3404775648023362 -0.41586333793250313 0.24462683894959808
Ni 3.3118833590460546 4.534589598414847 4.937895853811043 0.4677080905179365 -0.22416934242619457 -0.7535494560326312
Ni 4.988395994895314 4.680485913802516 2.410740107032818 -0.679970654204216 0.0690027524219586 1.4790245224265495
Ni 7.233784237190289 5.907677244329078 2.792544095423745 -0.5355217077278003 1.3908711652180692 -1.3628672238059756
Ni 4.965997612091318 4.4657339735983745 11.52442999826386 0.12279511565206595 0.07191812629654065 -0.19270443904869392
Ni 5.40458899108285 7.891089236503187 12.657123075151405 1.9546253854290014 -0.656062994348683 -0.08416429065374538
Ni 1.5922434583215763 6.699480832405373 0.19555809637423918 0.8980356835048856 -0.4929930903369703 0.35480143762417604
Ni 2.7676441688190776 1.508831591980992 0.36259299833728237 1.1402551985645717 -1.1226176879884666 -0.5795068550594987
Ni 0.46697289144864956 8.996190429658576 4.776467767011628 1.135806932985231 1.3516942379082915 -0.03658242710972409
Ni 8.745115568106295 2.4468744199197956 1.5408472014385803 -0.6560601661352056 -0.043391993832389786 -0.3548271486557889
Ni 6.834277224002182 0.6233987930795505 4.86968998063111 0.05597522981403908 0.8348343682560525 -1.2216172438828317
Ni 0.83451122168625 7.424847315645644 2.46795795809263 -0.14386736294133287 -0.18406501820614105 0.3973375112141737
Ni 7.681553358047921 3.8575754661269572 3.787385143157096 0.2142554257465923 -1.4507218188271145 -0.11830699797372529
Ni 7.83604083396315 3.5965648191326136 12.589446027608988 -0.8958649011058121 0.5922767531306574 -0.1219728768610867
Ni 7.925823876073122 8.873937854378267 6.766110155433875 0.29835389615940877 -0.6010447291312745 1.1910835940703486
Ni 6.99108395228672 0.575282879528244 0.43607449383277525 -0.40619213339132626 0.4573897393110639 0.331231620724036
Ni 1.9501122208015291 6.524345693373488 9.042512306746776 0.09651072803424025 0.4830385502274197 -0.023256913645411558
Ni 0.09779303589596174 4.928844452540936 1.4141952661192114 -0.6193342714690817 -0.3933751841323161 -0.3258996669881613
Ni 6.329194594204913 2.0626997404883327 6.902707802956419 0.7039225370341232 -0.091837490928287 1.143117350603715
Ni 3.312966278440285 4.331054898269273 0.4050235850688802 0.35400619541639033 -0.6217991880698066 -0.2063217727218124
Ni 6.097278381602223 5.589912596748785 4.87859248048451 -1.735083514472489 1.0260791920400845 -0.729295468581273
Ni 5.235644541254648 3.111398881860896 9.22461061748356 0.13458439497751015 -1.6342972989913465 -0.10044091632658186
P 0.16140462354587448 5.340832111747544 12.44996871693062 0.3355161070320028 0.460747085819071 -1.212716341848776
P 4.012793912633292 6.064068853512496 12.651734648732281 -0.5434031673584061 1.2873436395463635 -0.7297492682892399
P 2.397718903750028 8.533747751009123 1.249846004253859 1.2390297829323242 -0.6108475741543092 0.5110514905005779
P 6.308601077057968 7.636774641096501 5.840862020137901 -0.220959063019013 0.05114592674619579 -0.09522569067422955
P 4.800599723279221 1.0210666481631219 12.617222007638166 0.014543187921497532 0.8332670237689327 0.13648341177243592
P 4.087731934714024 6.28569733187 8.026392795349627 -0.5228412840466543 -0.10024911203074993 -0.6390808579683898
P 4.699825049317811 1.0790028357544397 3.7175548908858156 0.5215045675131018 -0.6512756002623687 -0.03462401783177262
P 0.163929630600088 5.560547432508575 3.6287970124690485 1.6631617886315226 -0.5300673694814484 0.03451757416089539
Ni 1.5916388283264642 1.095345894279031 2.554694386973501 -0.6815896778648778 -0.03305615912402049 0.5460658017922337
Ni 1.709451434090429 6.7920523919554885 4.791102520191821 0.34615276081024254 -0.8262445697045124 -0.8985177653476266
Ni 5.810638642277763 5.635106432801327 9.239786830360869 0.47284849706829535 -0.4824459109487433 -0.10361468606887315
Ni 8.897942567617037 2.074792340390571 10.27904652434706 -0.2485079191715591 0.8493801272807115 -0.21233995389143434
Ni 2.108895276980538 5.451172573691321 6.845266148555134 1.0283785295972225 -0.3496193792026044 0.8992862680825351
Ni 0.457445908077909 -0.14308704199247 9.08937383866643 0.16539212438698614 -0.30416921728960516 0.4626327328775581
Ni 1.439506702093686 0.6840883032306987 11.57166243007604 -0.09118880160069456 0.06305990457496236 -0.41863730113321446
Ni 4.0737442258718835 6.926162934602619 1.6225787378524508 -0.29126613607469193 -0.051406893717066304 -0.7727753941417788
Ni 5.783358097871447 7.900799413738118 8.03969375280926 -1.1076929483578344 0.06870681844809458 -0.3494180618250757
Ni 5.101118879506396 2.8345776117107917 4.996130746668603 0.11820132563379643 0.18835516094106272 -0.9898472062912437
Ni 1.0651324431800073 7.719735291022823 6.880069373020037 -0.8386532277815105 -0.5200616644189883 1.007085424546401
Ni 5.007708057425753 4.324575430560462 7.019822828143934 0.42622745477564655 1.504802659831918 -0.022249555426819747
Ni 7.8002142506707 7.13825269796261 9.05771469017611 0.9154569643051267 0.29712310907610123 0.9352896827603377
Ni 4.676894231144986 0.4207466722402748 10.512947186739677 -0.5723663873599756 -1.0009844538549857 -0.5640231576016028
Ni 8.254598204161423 7.060589328739732 4.843908377152973 -1.0019702148070229 0.14788111208641627 0.4487086665972982
Ni 7.080316510371293 5.9285956372942925 7.120574038851802 0.4367586933242736 0.043388908508596245 -0.7110324086060271
Ni 2.2296859110786356 5.264305807888609 2.400622932592222 0.5182881174583333 0.009268826896435649 1.1170304237086763
Ni 2.378072941073034 5.288328569783949 11.315981551366967 -0.6764965796126865 -0.39810524261813374 0.19265764497115853
Ni 1.0870435122565991 3.3139499302233775 3.59279174747655 0.12723901035603247 0.434538031523871 0.8098771840900827
Ni 3.6524885815163204 2.697001727002125 2.602520619586851 0.40317211561807986 0.1843164720953148 0.04937058001332788
Ni 1.0018538532438204 3.3322873652990093 8.121014682286152 0.12428121327928919 0.6177522716939426 -0.3309428858390236
Ni 3.61183398259126 2.507978146739237 7.118552589315906 -0.5952576901358523 -0.08697347796776633 -0.058463543453531566
Ni 3.9358976113146595 7.018409618334464 5.844666676942963 0.8172516221772829 -0.08788776225191962 0.2373552449888493
Ni 0.7103527082720961 7.165776899232629 11.042298040161644 -0.3823770332495995 0.09702520577681355 0.2920752622395486
P 0.16347390202168277 5.747531514578997 8.033498551441435 -0.25296929737702234 -0.5561625239066035 -0.40982201683442965
P 8.472689145831108 1.5168271468417254 8.026261040156664 -0.19032308330071093 1.1666655702373003 0.1625104319638169
P 1.7400980529471448 3.444342449616983 10.137271619687263 1.4042416729877043 -0.6152788704527855 1.1595395007154805
P 3.865444680391697 6.306778162744348 3.7280285262936794 0.04547355895176684 -0.9685972957735319 -0.2849887877064124
P 6.791050691515825 3.913968493581497 10.388105531674327 1.2049680653619248 -0.030799758989675987 0.5392166400808843
P 6.289965839148923 7.765759365277607 10.554644998014512 -0.5864020395174352 -0.07506567078658685 -1.2245403310668976
P 2.572014780251385 8.835656653792228 5.815912459727665 -0.3742824291669231 -0.31751787068236925 -0.635166353405332
P 6.882945426444547 4.03459668977046 1.5751486732508233 1.1532788645177492 -1.1180028149242744 0.32960256976104524
Ni 5.374601148190958 2.858474033010139 0.5608412469733552 -0.40758027198810454 -0.23282161878455387 -0.8367215579764364
Ni 1.4517166182636323 1.1625229940344468 7.225881632910893 0.39053900023510163 -0.27652368765819474 -1.2141810993197606
Ni 6.881600801530045 0.7108084368505013 9.232549319076098 -0.20676734489966328 -0.09362723583885811 -0.2754849619810353
Ni 2.6956661264159076 1.514092775371294 9.345886760443404 -0.1233263055651876 0.6166850067716928 -0.12426810065316664
Ni 6.414528642470256 1.8747229823065341 2.612452795297599 0.28652373629370004 0.6492832524226883 0.21072504399583064
Ni 4.115129795388049 6.948741803972319 10.281899114518026 0.020038920928746134 0.16887005563325755 0.26713864689886896
Ni 8.196490554332685 7.184493356096241 -0.0912810806053239 -0.5086752769589176 -0.32514247710716265 1.0179334230044983
Ni 7.626974220578718 3.7681624214766805 8.20393472273519 -0.14567690534624586 -0.12090792593168209 0.19339143781338952
Ni 3.175949902085304 8.168803915153532 12.252535365138705 -0.9181229411730639 0.14468291686409276 0.24813665187506942
Ni -0.03841476064466068 4.736906014241912 10.175535674049561 -0.281840728995734 0.4714037942019688 0.20647346780832826
Ni 8.719531597417605 2.362650364033539 5.887513285208511 -0.2895995470055464 -0.05402530517651986 -0.6517864784605161
Ni 3.5890295050144285 2.6549844545059917 11.422503820013253 -0.6817611704457356 -0.6244286552728536 -0.1094559753409986
Ni 1.3086358933009619 3.038798160806044 12.491891233979755 -0.6514712612129425 1.1913437897102708 -0.6465504268725575
Ni 3.338830003305817 8.53772747978292 7.9070054442998865 -0.2653514730914591 -0.6594794762293996 0.5961573191319861
Ni 5.659084073055242 7.819156315741444 3.6101870426792018 -0.5809682700963736 0.06735107575114853 -0.08131370857882769
Ni 3.1236809926571243 8.417749035230493 3.4720841371986766 0.34181428133588876 0.21382142353296726 0.5146739177445137
Ni 3.453736775361931 4.511045125918624 9.095872257464642 -0.9203937394851117 -0.2345095480099381 0.19475592226108393
Ni 6.935385798110146 5.903535077646148 11.47126768033544 1.0851639140173828 -0.32010491468325514 -0.3539776561713
Ni 0.45403471198608375 0.04337814120154927 0.5933531944866326 -0.45915840117571244 -0.13687781899737717 0.13917895632672805
Ni 4.722945378384626 0.2814363116351827 1.4766427154203265 -0.14740802910473969 0.08253755368359977 0.7802434203840499
Ni 5.930716354441326 5.626713807496043 0.43078082286064645 0.713691700605745 0.39465610772726867 -0.04805340386380111
Ni 7.93594014808089 8.81765311886315 11.450716577531436 0.623595617848597 0.05286959430552186 -0.745023420839491
Ni 0.04345575042480244 4.8058428580129515 5.893297879639358 -0.6651479873690866 0.13837831480230364 -0.3982109149580626
Ni 7.860298228393908 8.73687635638186 2.7948425918379987 0.6809538440530918 0.007483452861238724 0.005777525913725534
P 8.541283065127308 1.6117269830894352 3.6290614252878064 -0.2418590463964738 0.42444156651981735 0.30259853036837564
P 1.8638486667228054 3.0788571540642775 1.4537534091576136 -0.8303416225920216 1.389689229094826 1.0326118509522797
P 4.831724631535054 1.1092343355100338 8.361427299969407 0.19324591337446073 -0.11832319592364138 -0.5118624164376475
P 8.649954026338312 1.5639973107887373 12.563161769045363 -0.6077195700482888 0.2800864653087886 -0.8694501585577091
P 6.65335749053945 7.593845911443557 1.4720204544726208 -1.396789330474717 0.15432635349112778 -0.7225031282497879
P 1.7997488629126603 3.331339810829058 5.996558756043354 -0.11174605692675595 -0.13202768999392747 -0.09251086284622777
P 6.88430810001562 3.9390380775579272 5.810668422561105 0.47579935216650315 -1.0200432702586497 1.855119065101547
P 2.406788353676706 8.475450590286394 10.04165886150502 0.16200366753072742 -0.419166177053491 0.9170240516819304
