# total energy = -381172.3050700215 ev
CRYSTAL
PRIMVEC
9.18652630773159 0.00000000000000 0.00000000000000
0.00000000000000 9.18652630773159 0.00000000000000
0.00000000000000 0.00000000000000 13.44540983967265
PRIMCOORD
 96 1
Ni 5.208953380969195 0.4841547444472165 13.292494887908864 -1.691518999617977 2.0434616276371194 -1.0955663402976294
Ni 4.496023813839414 6.902700811327917 8.565451982989469 -0.6999362986928656 -0.9919508828978078 -1.442891009928786
Ni 2.6887401038095713 4.852947923723873 4.910398622470314 0.36829073035986254 0.3291713957608976 -0.49034973917685226
Ni 6.630843935827678 1.3948637942150302 3.6699915710841866 0.5186167044423456 -0.8372362928293259 -0.1578474792705088
Ni 1.9366851207788842 0.3782726785653978 2.7552873009887597 0.7742218967803182 -1.211174965503585 0.83672464330023
Ni 2.9176775280092624 1.5798069435263817 0.34443686456065065 0.6639961331528306 -0.4803334925914308 -0.8308087920364272
Ni 4.52068045067389 2.1324959308112437 11.87762100190812 0.2868029580970158 1.516826937986304 -0.05965396421720694
Ni 0.1723952729133595 1.6078809681784523 12.111974802068172 0.11949021964854906 -0.12565675347057714 -0.26625161630822536
Ni 4.802743556994958 2.469944604745968 7.258329620991192 -0.5909986577491823 -0.5174977603465539 -1.3452160863831155
Ni 8.873532250703578 6.987676180448223 12.383921705527046 -0.2708960570587721 -0.10352289768601527 0.7146790042196789
Ni 7.8419404561094535 1.7924107238021916 1.5564814343660174 -1.2956986963792783 2.041147377681646 -0.9423712721974674
Ni 7.211257859761737 6.175385143869229 5.644799857734677 0.5170388184322644 1.2134879299074777 0.5497591914834209
Ni 8.043088637975206 1.6642403075895957 5.969802625714354 -0.9499403427939769 1.083706869855882 0.5293096653798174
Ni 1.0889524653819285 2.869852471615715 5.198492683367324 0.14271499450444455 1.850106442378304 1.092334463623893
Ni 0.1570335634816864 0.2608955122100397 8.063172221972051 -0.1474676786980815 0.49298511991717037 -0.9337025407788758
Ni 3.2997267875741585 8.678153207411613 5.848322756672603 -0.4551040286006807 -0.19930986018035352 -1.4683855546554647
Ni 6.240664600406407 8.147778292731424 12.202677970393506 1.6822661135611414 -1.9271081538453394 -1.008411342446676
Ni 6.48428209377953 7.666137900557529 3.375510118387245 -0.8233898738645369 0.005836661286435109 0.38240325850184465
Ni 4.276732242350676 2.0769174461433675 2.172280939307051 0.28559891048658553 -1.2701141630419543 0.6550330104222718
Ni 6.953291012165272 5.621373296784007 12.04917111439347 1.1703898131664232 -1.0073805871893167 0.8511454467112503
Ni 8.21443572822731 8.905087968857982 0.3594375435051423 -0.6077349966672566 0.25428570219560076 -2.3770311524657126
Ni 1.5774643792965786 2.6283478793126096 2.947153416588659 2.117276970956373 0.11098655305291208 -0.550263127703033
Ni 6.206784691074981 3.4916149508373966 2.904356146089116 -0.03106972482161101 1.3970862928898455 -2.1581171449011864
Ni 1.11477579106811 4.159300875489609 9.92433950255056 -0.30185959531982204 0.36695452804694223 0.21702527518224557
P 4.573447858266002 9.307512943958969 3.43519498035207 -0.42422199430984364 -0.12532430983182286 0.25244273544959106
Ni 5.449814916424903 4.873415504523877 0.5667820374218847 1.6662545686242334 0.7396071349199262 1.1530438656888078
P 5.262373031935096 4.1553690421940965 11.041585550565312 0.3920243265313764 -0.9663398671979228 0.5061661373838185
Ni 8.939849784722982 7.240792542110039 7.512448232682307 -0.04457778661037484 -0.3065238335647108 -0.3775927244870787
P 8.819304185415236 7.0413346811003 3.775807493975987 0.37585105920562367 -0.284290218977491 -0.35703238383722385
P 3.9093630519592124 8.189558614759441 12.4829203071838 -0.738882855159392 -0.9033218716044894 -0.538528098654292
P 6.221014620455236 1.1815434648806922 8.434466815090554 -0.035783842467828696 -1.139657931300205 1.0825784126783937
Ni 7.3590415098199395 3.5960198232754808 10.48415264105194 0.09860540577973985 1.1672080730043317 -1.4634114984796411
Ni 3.379925162970945 6.2576872338096425 0.8807251462789738 1.940516456831445 -0.650552348943099 0.7080545569246258
Ni 6.988310050769229 3.065865385228685 8.02743387835165 1.8855699253922364 0.5955952759809291 -0.6501772249918674
Ni 4.449337886718398 9.215004623197729 7.801874339906069 0.08400076849268759 0.13051356734224617 0.3829565599021534
Ni 2.0457475620974 8.190633438347232 7.704434691777934 0.4958274744619719 -0.7678687008687808 -0.06283570437929824
Ni 7.5903582443549995 5.564223916103204 2.8697073244987314 -0.4952991127623277 -0.5266403460777704 0.5164487502567493
Ni 3.343537331934671 7.34166060188744 3.589185047640291 0.8307177749845178 -0.1518131001509708 -0.12622265327637616
Ni 7.022713592104964 2.630525086067368 12.432218030724473 0.4045332576316646 -0.8516547822475009 1.1684206052551942
Ni 8.556211256092375 9.124958291509378 2.5830913756980936 0.667551968824889 -2.211920049654255 1.5020549218834518
Ni 1.4406586282760814 3.3592830381695036 0.6370424285684712 -0.859970758312364 -0.3050824731324939 -0.6312125109639065
Ni 3.5410476493494363 4.01299625618042 13.203097124983744 -0.3442959101071619 -0.261524128925569 0.17556983625093633
Ni 2.6460227560896334 7.328376884725498 10.752549870713185 1.9064321135532265 1.2510808005595875 -1.1013389811153484
Ni 7.1910383151743 8.225468746423362 9.607283079899432 0.5967404453289658 1.5565306843338291 0.17845384266695072
Ni 5.4225401195688825 7.757736755206024 5.679906168339353 -0.44388219174293236 -1.123881899412871 0.14505752659469212
Ni 2.423221931519387 2.8555214904451556 11.506138084998593 -1.488456871484043 -0.12588686720351222 -0.1319973509766243
Ni 0.03840151762126522 4.094260268638607 12.185682896569444 0.25559825035943723 0.27952545059899603 -0.31882219131608963
Ni 5.4442203218525504 4.855639575956549 6.795256117306924 0.07309954819915153 0.5145908711124041 0.12061893393635353
Ni 4.961753142303431 2.798702824714443 4.72705668470898 -0.4675980473026334 2.049208043202593 0.4318872241645852
Ni 0.5906293412812796 2.6916706057284228 7.785819966384486 -0.26448603976737034 0.5483844226230814 0.26046226331995787
Ni 6.251394463231543 6.024597499681044 9.838033005756142 0.3541805162107255 -0.4128556614544309 -0.030468086681870107
Ni 3.9291324567534716 2.1723746418762433 9.489757091816532 0.19041332902167207 0.2679328606653902 0.14440755171551903
Ni 0.35348651170880346 7.965021536701223 10.174585074715068 0.2637561035798812 0.09920987213295818 -0.5241044670297942
Ni 3.095473559788117 1.5437773870193718 4.6566566583612445 -0.3308600963172302 -0.9835037805717192 -0.40729436531656954
Ni 3.473545053425543 8.389163460191442 1.222352771069139 0.8286467513881018 2.478440346242835 0.47410293830068667
Ni 1.4656184204814728 8.455131906207972 12.35820035028381 0.9573916568656995 2.0484503391009623 -0.9309424615352354
P 6.7764228195519465 6.996816774207651 7.945887839533246 -0.7501327170415985 -2.4248904380408365 -1.395859619571596
Ni 2.2585993785857776 1.2709283666688627 7.131607001337878 1.7392993523260496 0.8717127293396407 0.7310186219199668
P 8.522487517709603 3.8168179850924058 6.567034323513122 0.30640222038518194 1.603116759623484 0.09030254234099933
Ni 8.368291672230217 5.143526940009755 8.705822106249824 -0.056610035184560564 -0.2447199128840366 -1.1850700408864172
P 8.775282350947721 1.694206756678292 3.805441390809315 0.654919110552227 -0.08983665844817432 0.24499065004692
P 5.493120201833889 2.6619338197995113 0.4231323242398063 -0.436103576238778 0.3286517758120017 1.161020199026065
P 1.5514573230825692 2.0611441803293604 9.650940209269208 -0.2094991420085295 -0.29540766904689125 0.2001999760947907
Ni 1.135518967659856 7.948743011935688 0.9655911957352223 -0.05183318262120751 -1.6801529238728807 2.1931661660855193
Ni 7.99380292388543 8.51735224945682 5.034606889850305 0.40319885509095715 0.5323875329741928 -0.271151624713004
Ni 5.070301138144029 5.33976951678251 4.560481076264563 -0.08177290760343336 0.7254069321601442 -0.9817063223516642
Ni 0.7854599489476781 1.203140988426837 0.9355301254246952 -0.43141388407259246 -0.7795780188859089 0.10643415779553929
Ni 3.5748448799433397 5.160448521622685 10.113207135936312 -1.1923156667052368 0.2653257620598463 0.572811188206878
Ni 1.6948130674201232 6.355606418615409 8.969702320884425 -0.4740610293191578 -1.060895014167689 0.09152613033545529
Ni 2.7266896443323803 4.28186751060346 8.203246539082604 0.5437839477365926 -1.2563114528309074 -1.5491395340760803
Ni 5.111539455114954 4.021732642778627 8.861063378432553 0.2578646777961108 1.1501842847528256 1.4318180399440759
Ni 3.6710002516819604 4.278312324889995 2.569162764383476 0.09692261876067824 0.7889764293816734 0.15822028922889525
Ni 7.8621324411177165 4.236963769602373 0.5809871631808825 -0.19434300309338143 0.41932455700822624 1.3567896501533279
Ni 7.04160109036565 8.868902241402319 7.009468458353866 0.4000844778316916 0.2721029328826798 2.311703534902496
Ni 4.774844076344323 6.129443325385915 11.841950638583013 -1.3339888502087283 1.2296185169207534 1.3136390829077829
Ni 1.5453850291378641 5.407244553127227 3.1359402085421655 -0.8490728804529377 1.0465832255307073 -2.8088214460411174
Ni 5.72775327239624 0.8772471273871958 5.642607952537693 -1.1081601178022398 -0.44810085780997017 0.14680767651657944
Ni 4.928203947922095 8.413085174914608 10.12315706267082 -1.3601809352230638 0.30767645911191527 1.2322374426008393
Ni 1.3170171695744384 7.360869628571825 5.0749697308561315 0.19152867357303788 -0.05646425363531566 0.2002758236380486
Ni 2.7121014404228614 0.322183423030161 9.795613301491285 -0.9587772243593164 -1.372069973351166 -0.1318489983242181
Ni 8.832101016678434 3.591729715450704 2.766392892743305 -1.1449790864028022 0.6758985410173715 -0.2552362390343282
Ni 6.09788760723151 0.09759765638206826 1.6502088071793954 0.7392556651177784 -0.8375137148604286 2.6725959159157586
Ni 7.124261454835327 6.956083716188252 1.071332707763253 -0.7086968184943149 -0.3523468054360964 -0.9389784444658346
Ni 8.492374084198646 1.6086067037633718 9.651908469150857 -0.3578142563085709 -0.0038083180024966676 1.1698907620428176
Ni 3.332568619423358 6.2354558399424915 6.584257223191689 2.440899668984899 1.5954821258963618 -0.23474146151508601
Ni 7.049988388960983 3.9812200613926216 5.1084491076368925 -0.7185999365406399 -1.5249336262538382 -0.6283776126182726
Ni 0.809533241356301 0.7325262652278818 5.438063511865044 0.9306593830771779 -3.5761797829323827 -0.6804211114780733
Ni 6.185802664797058 1.1157403763392055 10.700999677867932 1.1640816115602082 -0.09965210187669934 -0.8438998208924305
P 3.141387818692256 3.30006668905064 6.144256599192023 0.05997226678857413 -1.067361081508007 0.8459862711078141
Ni 2.2240488528277806 5.902903584574376 12.318509963009832 -1.3798539881719591 -1.3610358270241916 0.3054635106209965
P 8.900751928401249 5.6872039449046685 10.69724881914233 -0.29698349817444336 0.07327464032443509 0.054402743120596626
Ni 9.257997566709406 4.950582326211507 4.7902232401761395 -0.653843618099861 1.0039306809675033 0.5207304083512387
P 5.196634249078348 6.083620931745689 2.475971884711355 -0.1329049503925582 -0.3232668573510046 -0.6013409202154547
P 1.5448430240807725 5.371426286727219 0.8708670848083793 -1.5371767052872494 0.8979989167296794 0.6172835595876401
P 8.12564795065458 9.071768303703262 11.471099754689213 0.34878659888866387 0.6225715474594569 0.4406477439660347
Ni 1.336409926786651 5.604984533701778 6.784016402267065 -2.9690258555795768 -1.2180932898899732 0.08433938277902894
