# total energy = -381164.54893675994 ev
CRYSTAL
PRIMVEC
9.26803437980682 0.00000000000000 0.00000000000000

0.00000000000000 9.26803437980682 0.00000000000000

0.00000000000000 0.00000000000000 13.56470514212718

PRIMCOORD
 96 1
Ni 4.976665752657913 1.8240418696365428 1.681969388399718 -1.0748918426674134 -0.5233652748709244 1.5210024095202321
Ni 3.4593865568849953 7.239372963139775 4.208191843365168 -0.9401400688741035 -0.06254902637681485 0.2817491977231922
Ni 8.871492374382774 1.9316252140943497 10.721651565235899 0.705853435508249 1.8741156608087077 0.4124208879098574
Ni 7.7493280253470385 6.607459834967636 4.492535141777084 0.9478101838248516 -0.19438696895743943 -0.853476408837272
Ni 4.908758863887897 6.5659205043456605 10.743097797065273 0.1072772225221249 0.918626877392676 0.10915824159492167
Ni 7.5538837138440895 1.5187157411201755 6.965354255159114 0.4766799549992436 0.13845750477967123 0.5494676283849311
Ni 2.959107322694096 3.1814103981735027 5.706373327250616 -1.6204971598834608 -0.7297405265384916 1.7536666767913152
Ni 5.517437029572466 1.3603342995764587 6.230784669668534 -3.359793169775401 -0.7841468692035141 0.3641191154806761
Ni 1.7846897951561975 0.8379980700827392 9.412385989352705 1.9736566910288396 2.809092183204001 0.3688566301656615
Ni 8.072810233445836 3.075319207269944 5.194088281170446 -1.2356490393855493 0.8455268149728923 -1.4945681265881032
Ni 1.3305190325950007 8.861056567537538 2.711611875841049 -1.602486325128337 -1.9210475494735562 1.0115853692992838
Ni 2.829799705371963 5.200359033312086 0.0062614841071411435 0.060839242774559744 0.9612917632510541 -0.4945411515503805
Ni 6.38124564892989 7.152466603647971 2.307098315319005 0.5867385969212476 -0.5669344177111267 0.7534841500123347
Ni 1.6992385170806479 5.482533611651368 8.002660480327199 0.05331722336590172 -0.3479057389456073 0.8110848312449386
Ni 5.413357002155066 3.483511250684416 5.218858030170957 0.7984342323604635 0.5259304644949394 0.5870733545528469
Ni 3.4929275737348235 5.280397779240551 6.34552849757983 0.7822329400102528 1.1571262632882975 0.6396228465147887
Ni 2.823775482947981 1.1259920472835876 7.054867712755326 0.08092007268483484 1.8947415645891754 1.5290589612761214
Ni 7.091473668613786 2.328686348076204 9.348985218955827 -1.4523012474990924 0.3875938015638486 -1.0694439321789646
Ni 1.1940008844330867 0.5446249256590004 11.736345639834708 0.009249029402093748 -0.913626595964607 0.8018674264117287
Ni 2.049690705569884 2.666534009647572 11.108571615869568 1.7948740042675606 -0.8744756367967584 1.0802253390651848
Ni 5.462727821928218 5.417444205368875 0.8923254347056521 1.2955819682957557 -1.2885271183315035 -0.9180604633662447
Ni 3.879256323767493 2.172566306950105 3.9773343720437073 1.111996717939511 -1.490074609593124 -1.155691844834616
Ni 0.7158259125209492 6.185022822529072 11.483499756665717 -1.914637532182154 2.8434439212109934 0.12567552252365452
Ni 0.7446355977593273 5.568846816935272 0.776132086198801 0.6938744087695018 -2.2956552231903817 -1.6100530817320013
P 4.577185661671968 8.686233632793602 5.390559490895821 -0.10395664278932419 0.18251078634514376 1.950470996940996
Ni 2.8834616251178877 8.042225719601008 12.051182625353368 -0.9931919543937604 -0.2671057367784045 -0.9341285725727009
P 0.5928539235819446 5.698469547430352 4.902134999631868 -0.8899325947817769 2.011885138382419 0.8581861556081155
Ni 8.172525016614474 4.7691544602380045 10.525248012162361 -1.4430702158191278 -0.5444634903021204 1.3691851956042032
P 7.17932536762443 0.4364651094553909 10.573538179112997 -2.1769077952451283 0.12778202734369606 0.0798756905807205
P 7.760412594607165 3.280643243548222 12.49874991333443 0.17343376374454 0.24048350620518585 -2.2201905171931635
P 3.423871448687001 8.624323162344071 2.354574748840676 -0.29840377556073766 -0.4244554504768883 -0.8175010191839276
Ni 1.7087845926140337 1.373383692150252 4.082189207145175 2.0908156914410507 -0.22157792754993452 1.292638569396716
Ni 0.41359716113395806 4.0808268060739055 6.3631757620682965 1.332846509074169 0.7643861416368191 1.383988836275939
Ni 9.011356282998621 8.538593843233569 5.285772312446191 1.3142867437941108 0.624603233177505 0.7192329421389484
Ni 8.57601816653824 2.629007737963418 0.7631262533871505 0.6855216659294323 0.03454637051630179 -0.5402016297019729
Ni 5.568198054520382 6.61435525263447 7.46033032001001 -1.935147222099732 1.1843845847836183 0.5806006023443098
Ni 8.600522849752096 6.482044792134844 6.847558463487483 1.507523915417823 1.5195654199633895 0.20029870645618408
Ni 1.6875329895091273 6.895612295558408 6.297997382654618 0.02102391054983476 -0.6197356206725585 -1.4996128881008626
Ni 4.404188529724223 2.186635183318726 8.358449203080633 1.4885242343868688 -0.681630301294826 -0.09569414567021585
Ni 0.13710388794221484 2.1231769511079572 2.8975842560865996 -2.7546542159700946 -1.3541992637183322 0.03149961327017801
Ni 4.496572297604601 7.053650819825682 13.31965865460551 0.3945164968256109 0.56059047777097 -0.4656172694271788
Ni 8.093505754480836 4.4362466610543025 8.15143838452364 1.3019187091470612 -0.790187161860323 0.6939026909042759
Ni 5.469363734629095 6.079580394040404 5.014112319245382 -2.134488706848969 1.4278788527906698 -1.4484780170982603
Ni 0.5476926450779817 4.210579289051964 12.34270216287742 -0.8362574738558242 -1.1783617756283062 -0.25839972436397435
Ni 2.1048355108355588 7.294239727370496 0.6753227481558985 1.5212446074380253 2.069569637578081 1.2665518996119929
Ni 7.713794381080048 0.6407993196492368 1.621836526966987 0.5304000702305188 -0.05573071790340079 1.9404038425129808
Ni 8.886571466511723 9.02916017727011 9.621268950878381 0.506452815386302 -0.21858696324241061 -0.3837731422661777
Ni 7.094365295377297 0.9970922234793853 4.702503390142527 0.9538337643111122 -0.708808918592147 -2.1384428064007106
Ni 1.6552153532130924 2.7436255206055353 0.07026282313951811 1.3870433068315466 -0.6577090145925382 -1.8068391470492364
Ni 2.5518698868329626 5.578309480158172 10.744453710512394 2.8537252485323434 0.12250998031147933 0.1420295384016457
Ni 6.762588196402403 2.903063518082073 2.8343447494899943 -0.11012523349388131 -0.8244789931636575 0.5830986861758152
Ni 9.109977438096443 6.4776795478860825 9.190575973308615 0.5803517195582973 0.4766930676253662 0.3363851399005175
Ni 1.256161591814075 8.490650300773176 7.9750834436771125 -0.6758872281634618 -0.8279258140616773 -1.3448247644819677
Ni 4.000750988007447 3.477904089812864 13.274610446122427 0.7101821447905898 -3.300415599148032 1.1223718905262479
Ni 6.9319151866887685 5.246578721355769 6.346315353708747 0.12303371402543324 -2.797657459004498 -0.44512583434204633
Ni 1.1167610849231486 3.944744255533418 4.038620176968043 1.1831023756370849 -2.3879004910800488 -0.04485366597958081
P 3.8170863483520066 1.1749365374698106 10.939812756097957 -0.04712626406384142 0.32651596041592157 -0.012328439658365864
Ni 3.6160256079430066 3.907236519918261 9.483845315745972 -0.12852019106130125 1.1932042399577774 0.48363941703621227
P 2.0590606884477998 3.3022192278605735 8.080549042252027 -0.17818027729058988 -1.378918106621251 -1.2297606989255723
Ni 5.395673592332057 8.909991789689263 11.953815435323182 0.18080357384604992 -0.9703446174819417 -2.1123003436773877
P 1.5920722341752702 8.162302374562701 10.123434230089712 -0.1422722505400711 -1.859734195276055 1.7126426689704697
P 7.975950004902716 8.591180670977677 3.4404565964219462 -0.7783755139373756 0.06288147001556912 -1.4665639280656937
P 8.42593161587062 8.844679950578808 7.447986224861547 -0.01410301506028539 -0.21624545959342759 0.3039236769377024
Ni 4.0119653097505505 6.414712521503731 2.047958509922127 -1.8339578576428996 0.8308126486911691 1.2991938540167303
Ni 6.386519160559499 3.4668843967942276 0.5345348165005567 -1.0212912837331378 -1.5913398215932142 -0.2223934814726944
Ni 2.202529862483538 8.952263295036614 5.644396126952697 -0.025380901966949834 -0.2905886503916931 -2.4288041712729465
Ni 8.54331127279327 4.4389992673003364 2.354127102774402 -0.8354146662395548 1.1256364202101323 0.8542755076997997
Ni 3.8953827037947657 8.51871390923443 9.786365083416214 -0.9425741322368928 0.37609274290278455 0.3266118625638375
Ni 1.3162277233984174 5.97238630703153 2.8668597949208454 1.6318660638420348 1.0862252654023614 1.3351867271715714
Ni 3.669094373481032 0.862066228871719 13.184052481038242 -1.041170024934936 0.46106924504518015 -0.5148803773283649
Ni 7.045930547088488 7.4872280097313615 9.915487340048376 -0.75784576941514 -0.17925936928738162 0.8735207290826569
Ni 5.895118703418098 0.7117164660243441 0.23182876133689626 1.1836088829598583 -0.46780836354122657 -0.5404656819966369
Ni 5.253724375954061 8.935636441146427 3.417030712423708 0.5274800683702464 0.9456136903941651 -0.5727849629546329
Ni 3.9326309344439667 3.660688266190954 2.1480115763499574 -0.8057387364416768 1.3117048419995474 -1.6456312359469274
Ni 5.787989492650714 -0.0275418181189925 8.60718563975302 0.8387779262848329 0.3632074022996841 -0.3916551161174158
Ni 7.910777186309736 5.319953750479862 0.19054059444982838 -1.830403821743054 0.7858715652041046 -1.4127995898600443
Ni 7.937830579010662 0.7981269856704816 12.595954912760893 0.5192121719344993 -0.028029652443706567 0.6440942520225811
Ni 0.22360801473678646 7.745565203340676 13.119565496998147 -0.2879357861498783 0.41844806794054384 -1.1116051389280468
Ni 1.006962680220216 4.1186589228965085 9.86845855259298 -1.4065818910851067 -0.045345518014334806 -1.2035074216559984
Ni 3.499192765055764 8.103329871049175 7.448949173645935 1.671282360856128 -0.6947820081854357 -0.41553320828659407
Ni 6.108654218261987 5.2589608154456755 9.098539756721928 -0.5371669566407072 -1.410897744851641 1.0275264660095724
Ni 3.6566103310116436 4.615147530977549 4.069899793400253 -0.6338206380107149 1.7518152254048733 0.14700282324652103
Ni 0.06022461497426563 2.059950419759649 8.258192239893837 1.3041051752754187 0.9939776835198494 0.8856910458966036
Ni 2.393191868185296 1.2460687022452819 1.6470668972820703 3.280070716943093 1.5145669383075335 2.006951705636544
Ni 5.8377403018383 2.1267173402863584 11.568835184310034 -0.183201127543949 0.35027243940557096 0.3489151540467281
Ni 0.6383636801830486 1.782854724325508 5.99196410310602 -0.1616804798633538 -1.0147359991131233 0.0933906943480198
Ni 6.691761876765379 8.225788410876966 6.326673608196218 -0.2913340131981499 0.4482641228607119 -0.9318703726661435
Ni 7.359310597583994 8.041169163668187 0.32642666265894915 -1.1782283353742353 0.016635551674151997 -0.8539965430068002
P 6.705200526788108 4.772046087001517 3.809280809697426 0.10960535643466929 -0.0243822854991064 0.4632744802266151
Ni 4.768672522444087 4.521855495716325 11.597402973848004 0.9375892774277917 -0.20602403897573554 -0.8729185767222838
P 6.227526028738885 3.5116304673526604 7.483919321415422 -0.7174462825521708 -1.1820947603081768 0.14759777651804257
Ni 8.832937350869292 7.1229015735979715 1.7603185716391188 -0.4740378893907062 1.299299269246343 1.8737330806583086
P 1.23579045198652 3.5155601139799963 1.870803737698385 1.0235361139032566 1.8208503737266641 0.5577974884068653
P 6.572806653977996 6.862312247605539 12.387668812656916 -0.9630920496845865 -1.0666506857045437 -1.1859604139111704
P 3.516236680498382 6.309260824980563 8.87689193128156 1.775558334658084 0.030776361950908288 -0.34611933646914583
Ni 0.8009444681580051 0.5241629590933606 0.5237282882753842 -2.353313497133799 -0.7365297815461831 -1.1244115466640958
