# total energy = -381164.0675100993 ev
CRYSTAL
PRIMVEC
9.26691043917947 0.00000000000000 0.00000000000000

0.00000000000000 9.26691043917947 0.00000000000000

0.00000000000000 0.00000000000000 13.56306014140651

PRIMCOORD
 96 1
Ni 5.155089656532 1.4969025910926443 12.61599237735697 -1.3066834775255562 0.8806740522979866 2.1446489352114226
Ni 4.456021727178957 2.787838828833475 10.795029631932842 0.5273936793040271 -0.31886949961425726 -1.0477245382240021
Ni 4.4122355749434075 8.516522446195907 12.989532273751205 -1.3585511129291248 2.6127774010962295 0.5999250137045345
Ni 3.9971521186609267 6.591071577826443 12.55152711428256 -0.8588114478969403 -3.9091479267315514 -0.9884456979580267
Ni 7.683093581125779 5.700224935136957 3.720388422272256 -0.31733789346107927 0.9411273724880374 0.38916037472002013
Ni 0.11696138451338868 4.586110617143537 1.9704685930139247 0.054850886401608755 -1.1284201536028566 0.6926464498996716
Ni 3.831960171623699 0.22713661044855668 3.866353383350052 -0.5880943396181936 -0.6758764295301843 -0.11482032497670547
Ni 9.038147572796296 7.988299279300978 7.928693584106422 -0.016267112591139728 1.1912250047442194 0.41300324277588873
Ni 5.686954719263665 8.06853219063545 3.3422502848750004 1.9100195737941683 -0.028274678574977112 2.4231572573998137
Ni 3.1947859376740912 2.794816812459585 12.979075491913619 0.20486704255315685 2.2693425534377822 0.19790423808207852
Ni 5.7224933211310365 3.9908691533242697 4.991531465820513 -0.2766591847947945 -0.4231976668103873 0.33402435297782473
Ni 3.192932555568883 8.17558354103229 10.349415412231263 0.29209480262357435 -0.8468671310508705 1.73368946233844
Ni 0.9607562156979483 6.994376790830325 10.005781689486673 0.4688244635105668 1.8377579481152801 -0.8480020159862621
Ni 5.755900533577418 7.847636844426184 9.937708818144472 -1.0683812952424052 -0.8553872527067397 0.26000769228104254
Ni 2.318886821663111 5.82215894383862 2.3066563531508404 1.018974205564187 -1.0645544652971473 0.04583042807055332
Ni 1.0364576077851868 4.1722503930504935 6.429202744903854 -0.036389594372627655 1.5371427667255204 0.48640129605206556
Ni 1.725545074501683 7.007545070687831 12.931197998680823 0.07667543847586795 2.5882968994563615 0.204319397579803
Ni 0.8384941583636635 5.316769444479858 4.212022119646162 0.6983440145050812 -0.9232381509124423 -1.775712343737445
Ni 5.859940138053294 6.614572462920486 8.037171112033219 0.36551085362188024 -0.8516455262761203 -1.2402721399798575
Ni 2.9946299372221064 3.424799923840984 1.9787689647721007 0.15488402576681068 0.5328721859200951 -0.7356946872393975
Ni 3.0979745234085287 5.465781365738616 8.11689434328876 0.3519925074204712 1.664759472135946 0.7859795515368787
Ni 7.8904314372354465 4.736178966202264 10.406420812332213 0.5817902517770367 -0.8401910045822757 1.5744006226357146
Ni 7.412629530512713 7.404094705918227 5.878420211024328 -0.08956720683687155 -0.2270759745500283 2.2900759293303916
Ni 9.059804342695656 0.7824830977621594 12.294330499469627 0.9448012217951988 0.15508534314433936 -2.1641083294876147
P 5.480135810143455 0.15775710472218413 11.171635022329092 0.18277818107391747 0.4373999264526983 -1.2996797925142132
Ni 8.19874155043687 3.7193579418217606 5.20616701396944 0.483600850488793 0.7052857359302369 0.43037747238827817
P 3.908643856226698 4.977646853779345 0.5479589062422419 0.6531481346947332 -0.24950345031560903 0.08094578371644769
Ni 1.731781705285709 2.44701112659617 8.103575939480733 -0.9417786329187909 0.06875155564310095 0.4514507481188096
P 5.96753823617117 6.016059779685527 5.56664612666827 -1.458664727823275 -0.35874730964580154 0.05827611003307383
P 2.6516523117427595 6.988056757851563 6.4841332837380214 -0.04750550178013109 0.4454469651268909 -0.2922048458388774
P 3.14746909252812 4.459218811310442 3.7933848031769433 -0.18827288563990155 0.046530796571687606 1.56189940484491
Ni 5.772747776913763 1.4144826888740252 8.82698896947674 -0.8042187002527247 0.7510225758457195 1.4928285181891774
Ni 3.3534632466115113 1.0649440907422403 9.132809063819817 1.4855229856666996 0.35980403304509 0.2926676444079088
Ni 7.527548487946161 1.8996703232860153 0.19986687284357238 0.09364549067130325 0.6506359097958407 1.1774174094371659
Ni 5.244913820260927 2.75635913377651 2.160120550384641 -0.018953144063735102 -0.017436964529524805 -0.9856339395408444
Ni 7.129692218331592 2.242221670881164 7.032975326553395 0.029644819449626367 1.2149192630373655 -0.25317524274024145
Ni 1.5279374744443595 1.238670862373953 4.810112231761133 4.381367789076913 -2.788773012030674 1.4896565482190989
Ni 6.5731030383164475 8.971425817008793 13.035172734783014 1.8548419001807603 0.49882718052024416 -0.0674192099849226
Ni 7.654051083537163 0.09656862120978027 10.038929428438324 0.36064144134472087 -0.2843899777801489 0.5857021852369332
Ni 8.93930670512553 6.02258368469586 0.2664978129079208 -1.3898239549004774 0.6669323329630191 -0.8889751159645143
Ni 4.5411012327185505 8.149886398143575 5.786937270311238 0.324007592171771 -0.8972782365135707 0.9644796740607324
Ni 4.009078632507943 8.196063413294844 8.276490929750363 0.8469427214838122 -0.8009274310959625 -1.5105639877957275
Ni 8.663634650796826 1.3125096054454573 4.0882050747256065 0.002696830105872775 0.8485092946399838 -1.1431140081696056
Ni 3.3994085889996284 4.676722468267178 5.973972252149401 -0.22128636445144473 -0.02103702317595732 -1.2894732842948566
Ni 0.4140863367098789 5.549480101609829 11.626377148898824 -0.00039183612177997034 -0.3325696228091692 0.625711121529703
Ni 1.3269289182239787 4.713169227366101 9.502144562908386 -1.6936370744022446 -1.4247547053393914 -1.4924256263238038
Ni 3.6790098133913727 7.701581067625233 2.0282060790464302 -1.5927205039908248 1.3683267042586498 -0.4798699226914509
Ni 9.238794719506162 2.2679836821435613 10.377260624979915 0.24493511421863623 0.5227651793930803 -2.1907508717758075
Ni 0.7800885280822302 7.363959716429939 1.8707529289895006 -0.1454370214212979 1.3225924354463285 0.4041889869183684
Ni 5.3747247029097265 4.361425104529118 7.273801017231021 0.662950979717768 1.3454747393611408 -1.743997272022351
Ni 1.8612682460660965 7.852696577573403 4.1515573818458416 -0.10092711193438102 0.1380049906232849 0.16348205184846684
Ni 1.3488173608864902 0.3850716398528408 9.814556210708634 -1.407240864825344 -0.6783061220175997 0.8156382549435759
Ni 7.284662763058595 0.4198800091707604 5.513722800654043 0.2101025799204833 -0.3756587406891595 0.31113844951858677
Ni 0.36468165662239027 3.2043215886053886 12.345571881223377 3.2471605964786336 -1.090526978101509 0.5256124190338883
Ni 1.3396709201972867 3.026406173415905 3.704465089915358 -0.8491898656467762 1.876563608128568 -0.93895350476517
Ni 3.9726226064984926 2.3754149758719683 4.5827003940699536 -1.6823324480227027 1.4945699263603163 0.45706500898179353
P 3.2303708740940933 1.666060775835018 6.734818967215357 -0.1519128589536287 -0.022300463269413207 0.016143699639398004
Ni 5.205779657109451 0.9978053239810649 6.152773583985174 -0.7768423651223008 1.2418777939040806 0.7920843788830358
P 2.2719869874908114 2.577340956234427 10.93509527776976 -0.8450275067389705 -2.2936351074365597 -1.1712781293086474
Ni 4.055172245464477 6.701449749102132 4.115141203551653 -2.1081588107051887 -0.6219706806506643 2.2130202246969692
P 5.163281605437021 0.38294673726921935 2.054424022306709 0.037435776248954875 0.43864382616212844 -0.44986283480639944
P 7.762974349860262 7.2278010000708015 1.9762057373205975 0.8060619241090505 -0.6211078184297368 -0.017881765376427265
P -0.01939193696679585 7.891209857719635 11.803321391865175 -0.34867012791545754 -0.4891652319504479 -0.5131104299121356
Ni 6.684046491134224 3.8186992226609324 8.895970924741546 0.08645540068076724 -1.4405605620233963 0.04120732747624516
Ni 6.3895811422587085 6.639037106709237 12.610649076747656 1.387055391016405 0.4345377744135548 0.16327327827177043
Ni 5.464205990949189 4.8686957867246665 11.666320313339222 -0.041519202289709144 -0.3916430319325578 -2.1885844602521085
Ni 1.1723661175601214 2.4240013877600073 0.8678591444385859 -1.1221649167217642 -0.572877008447807 0.2455578354042997
Ni 6.033731778058689 1.4784243715037162 3.8551913896214343 0.42764181862467 -0.5956901496875806 0.9892411972761285
Ni 8.850270228791317 1.1045323325094927 8.31243356891667 -0.008778003302946173 0.35512745350502706 -0.6183048017633029
Ni 3.9090237995582653 3.3050343722024147 8.4098028511959 -0.3950870246171002 -1.2176600590072963 0.6190568494379789
Ni 7.156177048615022 1.928444080469376 11.552567133249948 -0.7046450170224445 1.1848311854027336 -1.674883447943825
Ni 2.7486397973083165 4.54189818702379 11.153135488845953 0.9363860011483099 1.9865708279873466 2.134857403042297
Ni 8.209472632826026 8.066456402677618 3.987539552372263 1.6674056515095412 0.4814771192775708 -1.8284744659308252
Ni 5.1292349761643425 5.237379822003255 2.969116279161807 0.7867542249193741 -1.3354389523916936 -1.9517125826575805
Ni 6.782266475799745 9.105341941020628 7.65962976367384 0.12094674958941752 -1.8312327454022528 0.2952207498470657
Ni 2.300834879958381 0.7852177630583945 12.336173380567866 0.031067667939081983 -1.0806847952001064 -0.6870632993849393
Ni 5.768855674492825 7.448826083027432 1.2190046248555864 0.8432279916363865 -0.6936298968588634 -1.9341007831130883
Ni 7.119035271226644 3.551719530405658 3.2658353406772562 1.3668557761400781 -1.2182514127343922 -2.1421171699285044
Ni 5.639443268996646 3.5721252673840023 13.466043299837661 -0.16788069513679474 0.3275824540072229 0.3824824484792122
Ni 0.22578086143859669 2.1074437241904067 6.192622225938209 -1.5850102798307606 -0.4563924083948011 1.4904469053308782
Ni 6.880143584775803 5.034295477825041 1.2761675624354776 0.5648407684068917 0.4999975466792614 -0.00989591895747328
Ni 7.4132596804284825 0.35431476381690685 2.2319511539451518 -1.268005601339384 -1.2396406770434458 -0.42294209915615544
Ni 1.800977726183666 0.8790405986793084 2.643793044925623 -1.0062202483326284 -1.0032809631986463 -0.7250544339167319
Ni 7.786984915033238 6.836598372213931 9.653400003205498 -0.3081220312897661 1.6104220350356457 1.223395933049809
Ni 3.4965258113125506 1.3061617717351182 1.1452455772146062 0.41323361361913996 -1.6159666190029587 -0.8224416510186545
Ni 1.8270548124039487 4.845000296509577 0.03258153071851168 -0.003581546703671251 -1.080062074014443 0.4175718359831776
Ni 0.3000329087195622 8.925814083399613 5.870960348050863 -0.9375689657128176 -0.16269786538427464 -0.3505933130800994
Ni 0.4020514000097079 6.553003109385462 5.829335239349986 0.2764300995031239 1.3289715994997953 2.1264180140256927
P 8.93357048750991 3.508498659712197 8.184588197990445 -0.23903880333885932 -0.2836728971084663 -0.028104728656016115
Ni 8.674208195707042 8.78819119517736 0.40858549862162025 0.4036868504709693 -1.9796764148603583 1.3649493031459847
P 4.148758774866977 5.838394571080245 10.106310988255283 0.5830161537643378 1.4157802697549229 -0.4561738646260918
Ni 2.0122447523563753 9.040427232785701 7.462436394517031 -0.3799568538438811 0.4243358941798886 -0.25381210499329193
P 8.51108276971712 2.1225673221689076 2.1162713831575144 1.3165521427895197 2.149753860538156 -0.09394605263085756
P 1.5923425026003526 9.19943815050206 0.5867001523874138 0.14769933509291336 -0.5175227000472183 1.0674158460053425
P 8.018110930463257 4.197650994802375 12.664602883212378 -4.367076055044588 2.1110716134766094 0.7664183415754995
Ni 8.911617176473715 5.816969473944036 8.10609839252592 0.3066271919117945 -2.7869896948780064 -0.9811185681689942
