# total energy = -340890.2391914786 ev
CRYSTAL
PRIMVEC
9.08952076863515 0.00000000000000 0.00000000000000

0.00000000000000 9.08952076863515 0.00000000000000

0.00000000000000 0.00000000000000 13.30343242774243

PRIMCOORD
 96 1
Ni 6.4719024214103795 2.3185458762993885 11.217002222826592 -0.15122714574051374 -1.159062818189378 1.3183611709738006
Ni 4.8903530706662375 0.6110930281855662 5.861971033983131 0.7093802177145847 -0.6730412740742344 0.006326970659292329
Ni 3.0630139879527394 1.6923142512204024 4.600486434430551 -0.05295804025427009 0.5916895131686196 0.6345773136710813
Ni 3.574354070111986 4.243079204933834 5.018733462454087 0.1952107504103154 1.6453314453183212 -1.009358536851294
Ni 3.837859278121737 3.483895159104292 2.8402425584588524 -0.11723279107294005 -0.13851175505637434 -0.908609859476306
Ni 5.776999466682767 4.86069396429384 2.8272718122763787 -1.1881443089363668 -0.4786021117226209 0.4494753695599937
Ni 5.359935894267471 3.1180146783172447 0.5327895333445313 0.05806579379448064 -0.45750338207079266 -0.13544597164685707
Ni 5.843816534088068 8.061150596272638 12.576120092154788 0.10829615070494253 0.26177558281474267 -1.3474719722968278
Ni 2.031017064813619 7.031180636272055 13.336957521817963 0.619804526237281 -0.1422838205042969 0.7216104412321894
Ni 0.6829002425104035 0.5757884204439079 0.49622966278030844 -0.38512554252901415 -1.7556222578557892 -0.4827287322964848
Ni 8.11296995435693 8.967003149740862 6.856190090770746 0.7771791796364292 1.0342213615312446 0.30786594941490203
Ni 9.067678682128443 2.6584394171174854 1.3051479306224811 -0.7127108247497145 0.8004147531256022 0.0038186024151418106
Ni 7.256455319794431 1.0304698836446176 4.487088299778352 -0.9906270218800617 -0.9791799563853846 -0.2787399785832232
Ni 1.050857678800391 7.687216800056248 2.3656959475484047 -0.18732414857338706 -0.067010147471962 0.13360171934926668
Ni 8.007667855881836 4.364896962703641 3.7031171307255404 0.0558063083363426 -1.116026407924194 0.7398863567232419
Ni 7.699587637865881 3.9376985745956627 12.608766924014349 0.8977297222286926 -0.46453586343754194 0.3864522317602377
Ni 8.474387480430876 7.371637727379789 8.747978420720987 0.08744758939070746 0.2579238131688203 0.1768682433473857
Ni 6.921815521999087 0.8434339051783378 0.44267602412726087 1.1469187266276764 1.3111566828055612 -1.260395393092294
Ni 1.9915412759765598 6.778655569389444 9.150526937369785 0.6979879167172431 0.4818707551715637 -0.7351141321455792
Ni 0.5276912211274678 5.038275932175402 0.8732120842732238 -0.40105969726076734 0.8162301228913039 0.17705002034088863
Ni 6.529002791079826 2.3804636919931594 7.116937538169592 -0.08054237763044195 -0.2839744875092851 -0.8519412031396684
Ni 3.6394168600027688 4.7139800090511566 0.08973538515196501 -0.4873065814751543 -0.3107173028207681 0.5214019804969665
Ni 6.387569847422299 6.047476337146588 4.899813443915516 -1.2211590732994906 -0.38028698348979023 -1.0941568615446124
Ni 5.460911380841473 3.241459460310361 9.273955358225459 0.03496777432443655 -0.26051342827286744 -0.8330407666907396
P 0.2786065378678883 5.972433253416732 12.107001743066467 -0.6460251504967067 -0.3358426371334861 0.890786201031324
P 4.286736173339175 6.52492159624035 12.479152175301778 -1.166322585075585 -0.3064446435873432 -0.740246311165822
P 2.7403996261766066 8.633472273483193 1.3543958632722788 -1.2754276048350681 1.1250067570459334 -1.033792244413626
P 6.793835069126466 8.216554133400706 5.419206841504104 -2.054376217667094 -0.7587042607606934 0.6577768917159962
P 4.787732380827324 1.3193621232504786 12.592231267773874 1.47619399495629 0.3020269741356218 -0.4611504919050768
P 4.372214026948133 6.276314112822803 8.185482515495893 0.07153580325645745 -0.10835040098164565 0.4751151816152849
P 4.907677697312206 1.6954592254174143 3.305117919237449 -0.0664301065987759 -1.408334354999839 0.6321661331264274
P 0.566140803066138 5.865013296595095 3.5433688026547787 1.16614492184714 -1.068895258764346 -1.8390404143721293
Ni 0.8216690476212717 0.16733989584343284 4.668320619213441 0.24608516866267943 0.2746089871339851 -0.08822791920015773
Ni 2.138427932114455 6.892738144957929 4.795394846862241 1.1619195709118828 -1.1078215035158985 -1.3373842490435226
Ni 6.44980579634409 5.935375277112636 8.976079036260272 -0.38965351230635475 -1.1807382462802827 0.5859125014755263
Ni 8.743528191337006 2.5558096377577715 10.01367964897297 0.6611324384517905 0.4312213084458122 0.46309141768153145
Ni 2.8613629689911555 5.193043202847429 7.056579484245206 -1.4970039897231056 0.41054269705053814 0.4058630321866817
Ni 0.4510311116471836 0.30509612833711275 9.31465096075396 0.6479506496541938 -0.3499441095318747 -1.3267128853726053
Ni 1.5233127909746176 1.2406832312003786 11.197991490072111 -0.10898803456564456 0.8472085735506893 1.3872430815471786
Ni 4.318649480870125 7.0468873282155124 1.540790121570035 -0.018334793753445842 0.005636886570803195 -1.3308137949148564
Ni 6.04054103277572 7.917745226601378 7.788760381680289 0.6148312413924057 0.4424189769338445 -0.6582489462564083
Ni 5.784261993802456 3.0790479026450197 4.7687616419643675 -0.7822745918814656 0.033943189714664125 0.04298447398132597
Ni 1.0499123686371272 7.696960766354504 6.719683667387151 0.16978408280709467 -0.2620311504689745 0.7182762346526339
Ni 5.22274775682383 4.575364816841819 6.9370877348482765 1.0340555253773416 0.5346866134210145 0.004344135901308647
Ni 1.1252463170326021 7.7503344324957 11.247746617982584 -0.3925465175834336 1.3077635979636124 -0.5327549436159406
Ni 4.960824125433385 0.41638367625940964 10.114439713903998 -0.6131960197818279 0.4731819691483141 1.1705589917544357
Ni 8.470106316133787 7.344114658395536 4.392699988928554 0.13704159826875106 0.9006782633340553 0.9698031431561749
Ni 7.817760497794643 6.284612845313763 6.666097306459221 -0.052757494207689784 0.15190386009256418 1.2016827097424336
Ni 2.516651982148734 5.5495887457722475 2.4071759757219993 -0.4442722280924994 0.23409482907002263 0.003169398866917122
Ni 2.31633712274484 5.573912303434686 11.348080384388062 0.09436874199057296 -0.243175194104736 -0.1142575104947
Ni 1.2947477009224204 3.583416322350196 3.4928428833804146 -0.4022197790071395 0.7272103039174702 0.48448042488026877
Ni 1.9502112248961758 1.4936900426854223 2.536618932491439 0.020705865088783696 -0.6303087682027145 -0.8615401596820131
Ni 1.2023345429425951 3.51473590318077 8.082021044982923 0.9153276378161139 -0.3871569711367462 -0.5987785588049171
Ni 3.6885457199300786 2.708013663564025 6.764834953012112 0.3502310446446742 -0.3693641659296994 1.3113240616213608
Ni 4.37052337607922 6.975961797408335 6.081877446520665 -0.032475089809569875 0.3689119088836292 -1.0818500191528013
Ni 8.27981719817297 7.4950097932065 13.452829824032088 0.3943501464510757 0.04240623288035278 -0.34948902427232714
P 0.697158064838244 5.699647644669556 7.689996375517076 -0.3184488671370709 0.6901190554921276 1.1700967074060362
P 8.707142839572155 1.7982435266307386 7.875007208748978 -0.26863117228399547 -0.13038218397070447 0.1665702038554873
P 1.8511536272111029 3.5252797473094803 10.2940759134865 -1.9875658449107643 -0.20745614343657173 0.1997171229211012
P 4.312068667810482 6.24020144668197 3.5195297164510126 -0.9035985223046438 -0.07975973382814651 2.241733533471262
P 7.247338530431415 4.157755873178487 10.305317832812698 -1.4129474282918182 0.15853473514552052 -0.6042591223035142
P 6.819758382449812 7.819469327705157 10.173121660192752 -0.6369208742025935 0.791074963781915 -0.31590038968360434
P 2.8212327346564523 8.733402465165124 5.657217761572298 -0.0023895832780991104 0.45889512021199685 1.2118077139915775
P 7.217315843226994 4.422660867391532 1.4394583257806488 1.955354293175226 -2.481454193368494 -0.9100445350403036
Ni 2.806462263355457 1.6354592986125727 0.2880550947401248 1.0940036237961996 0.05022290071129414 -0.8461873313750266
Ni 1.7588313644392835 1.061128837305083 7.038925816946256 -0.772458120011676 0.4823924320029886 -0.6616039787715703
Ni 6.873368376131824 0.9154238188712673 8.968814691236423 1.8138793417254697 -0.44366621907738424 0.2562808782487586
Ni 2.8297677946882267 1.9373768215257112 9.06956203083833 0.9110254108963342 -0.6542171993891959 -0.2976553274304874
Ni 6.761003719994655 2.3686564044731644 2.4786286987356125 0.8919547674181284 0.27185533564824793 -0.45216474346669866
Ni 4.381421711519154 7.1996094567074005 10.357467140502049 0.29123913949149843 -1.493745116466176 -0.9028487886228128
Ni 7.081545671028247 5.99467531081583 11.434406290287717 1.4937217194274082 1.3186835873102256 -0.2709688192782366
Ni 8.026746760042322 4.073995939000844 8.064527353250066 -1.0280283453466554 0.12802833902654726 -0.5881676160582903
Ni 3.5474763571045753 8.726339907503048 11.969497290298964 -1.392580434599692 -0.08660812420854762 1.1427846498546448
Ni 0.009577628067605197 5.283174891106301 9.863164456131472 0.8901395685862605 -0.3108175758440582 1.0059171152699127
Ni 8.58637946621522 2.393588960029244 5.692631443563564 2.176160118445827 0.9928281432964386 0.2659752227183871
Ni 3.5823982960205276 2.7633597557189535 11.289305724987143 1.263085024109315 -0.47674217569574673 1.0697100413561578
Ni 1.458222732521433 3.441228948466218 12.491204879883389 -0.8007209715121113 -0.0807570647444093 0.07458153206131671
Ni 3.7670700901265683 8.488149014923003 8.030178054144553 -1.6858710573035804 0.3290814071502526 0.049300388897024774
Ni 5.685513439824604 8.040471936451246 3.3683355364057075 0.46949012211902375 0.22142057603646384 1.6269408586262755
Ni 3.2863435140237844 8.747636654738884 3.4585599377767453 0.8400969022065725 -0.9109976429821923 -0.09300991396983337
Ni 3.4887489632118194 4.468281172289806 9.515625719367979 1.2150974404864427 1.4867735702443492 -1.666041424172163
Ni 5.189107440340764 4.568347706783746 11.392926262114123 -0.44850246412376304 0.24432190611466956 -0.1098462688008818
Ni 8.036790680526998 8.83352353678387 2.477311627171604 0.22903361249703136 0.9024410116614329 -0.03443812707321166
Ni 4.812192281301773 0.42954530237869626 1.449036862800334 -0.9058310111795884 1.0080881547793026 0.1382703284695296
Ni 6.106094656789736 5.715963334506655 0.21804033391716823 -0.562322115750096 0.7470196253339135 0.7216358951534863
Ni 8.080738513597957 0.24875473365451733 11.20379151329498 -0.5100469604954635 -1.1964312315355072 0.22024943854649812
Ni 0.5695202868998056 5.1902799885240425 5.580031368837658 0.14414812740654528 -1.897446108004532 0.12406626905500569
Ni 7.8027809675152335 6.276432276593211 2.321741751812884 -0.11247984976898692 1.2461949332221958 -0.6018001192400604
P 9.06495182588826 1.6869423444272407 3.323902322923994 -1.4300072119875824 0.19247072577133303 0.03189093517132573
P 2.224551141700257 3.50969121913643 1.3638807782277178 -0.5491115305970931 -0.0048102769044497794 -0.2140793051800442
P 4.89498872627455 1.3111088383635228 8.125816174104434 -0.12320777770945232 0.5267601594850864 -0.8210290869418442
P 8.688436605764496 1.8908930121513796 12.323621384882498 -0.01843558099736825 0.6571240886233457 1.309556685308293
P 6.37185406595804 8.010676487266839 1.3563510191964905 1.8208349471076963 -1.1684193197036135 -0.38638255486456685
P 1.7959529673889842 3.1670980906405513 5.639631356727273 -0.09194830547453842 -0.08009860522480398 1.1186147374766606
P 7.262690731063651 4.1386678794972 5.891119309286535 -0.09164645796340345 1.6213543656774334 0.19468598825509698
P 2.630870900529228 9.005479091289853 9.931611274616323 -0.07829574768811032 -1.4519582623373768 -0.2545415269601487
