# total energy = -340858.3742680396 ev
CRYSTAL
PRIMVEC
9.32058713889693 0.00000000000000 0.00000000000000

0.00000000000000 9.32058713889693 0.00000000000000

0.00000000000000 0.00000000000000 13.64162141716101

PRIMCOORD
 96 1
Ni 1.6241589028441927 4.002241453981181 9.617043272235499 -0.3210731921337954 0.9810455488392137 -0.45926741594975096
Ni 2.757160148552134 6.853679340918262 3.5876915662303532 -0.20462073087030566 -1.1376097905219247 1.7878916594124563
Ni 5.181006782286264 4.574926286367373 11.70603942634098 -1.6194784888109592 0.7770573093465843 1.1943342397971626
Ni 0.37403609185979025 1.9215974779643552 8.530583446087755 -0.9491762109344427 0.636913932224058 -2.1769391627036963
Ni 1.93330413534562 6.41278760994217 11.630982602646833 2.043682485398674 0.18607536376795053 -0.4282699391269721
Ni 0.695933751613643 7.920578983005241 7.596296185015825 -0.10830566378663928 -0.8674763226607899 -0.22208880574808204
Ni 2.6357128988085976 2.68184980488922 5.092458408783692 -0.8517015763250365 -0.06292826409310452 -2.1083254181900397
Ni 7.078752877895001 0.2906904700691784 5.996202105971543 -0.7431879102926491 1.3544530316003511 1.557938363314633
Ni 8.764968249564403 3.5247570981015497 11.960755226430487 -3.1597937397271907 -2.2244991718708462 0.3439660375715689
Ni 3.0543284266467734 9.107537107359791 4.918745966949836 0.2983888631624022 -0.6598494579743087 1.4352242374121473
Ni 0.12659594205039146 4.584684941047455 7.778657199607704 0.7428942903116303 -0.30873729627626184 -1.227950642300027
Ni 8.815784090362696 5.63670892614359 13.22544238679703 -0.04021153922187913 -1.3438618863480662 1.8174230932126698
Ni 1.3890377729876744 4.034490685302182 12.239480858856092 1.681014243431911 0.4297341823773244 1.0088137200914173
Ni 1.5661196070534795 6.360825336932177 5.837208735265468 -1.288780114882574 1.853476901512434 -0.8362114511092373
Ni 9.369147345717547 2.6491345442138696 2.8918463601940365 -0.6534319844837391 -4.266004704222859 0.9516868931714385
Ni 7.881460479001125 5.372926990994564 4.1198374371403705 -1.1562101792319313 0.2702062300805992 0.21257546694100807
Ni 0.9176127307732982 0.2941008728843097 10.09690064958748 -0.4498407233192124 -0.31884790234770244 1.2385659559220283
Ni 0.29938378164521806 1.88598351470495 5.267807545710025 -1.4204661052663665 0.3736604793122081 -2.2843022600714082
Ni 7.0515926871235 6.418091023994671 11.729966305452004 -0.8342671828986727 0.05303337357689576 0.3242683020323254
Ni 8.131233571758399 9.236095965050703 8.64698732615852 0.034522202146585704 0.5176638536107729 -0.9327692303313291
Ni 1.183723880635364 6.332639881581106 9.097051446886923 -1.0055910993890615 -0.9719356161181455 1.1926910477667847
Ni 4.0368860761835395 5.244694353851696 2.529743415981725 -0.2820106789146949 -1.286202841073701 -1.13989601545294
Ni 6.87759596738349 3.4826000827070747 13.191775494180096 -0.5201372548519301 1.512394356136247 -1.3708139894568778
Ni 3.290968812198472 7.316884557380619 7.131157878791626 0.14343464627928845 1.0514811770529569 0.266676876771102
P 2.088948619111338 8.29573261325676 9.052771201754028 1.43274158019961 -0.15972309902666684 -1.3650809436278426
P 8.24090892001106 0.9940965363504648 3.647987376154828 -0.2700511925599736 -0.10658945242648094 0.5343384860529765
P 5.595922037050903 5.103711153573821 4.301899260886757 0.16065949479800717 -0.23513226919560148 0.25534114004330866
P 7.070112693665357 6.517159544142333 0.6902006584964328 -0.08854673599215718 0.4450245328774916 -0.8107174206031909
P 5.137367793544957 3.794970238340602 0.6001237087115937 -0.7881878720421072 -0.07631831224676533 1.0421462728052762
P 2.108922637238767 4.405673745454643 3.086226271834594 1.3683601285997467 -0.9313548664823058 1.5317208243790008
P 9.335220408720888 6.870139497713894 11.711086524248588 -3.1961144285350955 2.048383747529085 -2.4278752317007735
P 2.6309407582200572 9.41416578134773 12.529706231629628 1.5727695147901946 -0.9672706065423085 -1.0663118143078862
Ni 1.119532997367234 7.985049483885979 13.376441489958587 -0.2032745012550564 -0.9852806699664837 -0.8718937350021952
Ni 3.766999156492532 2.2810365983872036 7.040958829315948 -1.042711658390443 3.9540285892943254 -0.69563844264846
Ni 8.622475114178433 4.226159238159132 9.832293842481254 -1.7260581710454272 0.8641341456614344 -0.4762935181941023
Ni 3.791232682918717 8.333415746849479 10.206251641409514 0.12975843434377654 0.6974785811809924 0.9916773175214468
Ni 4.7788886935920685 0.500981555925944 12.806098921107358 -0.2205813679646201 1.0161652753604822 -0.8562156621453062
Ni 3.428186495293202 4.911800265452608 5.383488148222837 0.9677010092115076 0.4368188571382477 -2.551476902414535
Ni 4.03672762620306 7.451716170181078 1.6118799614157866 -0.539146191854265 2.235675757312956 -0.18483943447832038
Ni 6.12902233607863 5.995849787779654 9.095441781496998 -0.7704585730831441 0.3897216465401288 -0.11871271805257619
Ni 1.759875971417917 8.075328690410606 2.0663098451357373 -2.138733341057936 -0.23291443560867628 0.04864938557658718
Ni 5.786872904702156 6.710934549680944 2.807718741146826 3.3470806073047386 0.03425480741781198 -0.9070450860923476
Ni 5.313806507101759 5.944558597039925 6.504911360651314 0.8732433070515543 -0.6943852869676493 0.3330846147723748
Ni 4.626478453545538 3.2259297555054256 3.57196307552105 0.20870210002853087 -0.4147040275170793 -0.013384134616389853
Ni 6.122852107427039 8.281807656148791 13.703281857044674 0.696528301452581 -0.6991122601296733 0.07844255767861974
Ni 3.0816750291600146 4.5773216772487295 13.648987573145515 0.6416118519203596 -0.5348380513972144 0.42000152847059274
Ni 6.248279247856722 8.58790505667277 10.210235260330496 -1.1557244978447645 0.14476082128987974 -0.2644060784590543
Ni 1.8741556896915543 0.5367166868174802 7.006813790581453 1.8404120979086755 0.6783063791279157 0.39136329590860985
Ni 8.811263605625502 6.748272821551445 1.8175685413689944 1.6056585522087314 0.10259550077573944 0.6526817365812759
Ni 3.5388777875383464 2.584654722746043 12.31693773372514 0.4773648968814101 -0.28566550205846286 -0.32352499610839763
Ni 7.101849292696572 4.175119703270751 7.466481844244294 -0.27513632039236485 1.5984453222897437 3.3182860516705497
Ni 4.724913173771284 7.256021123702546 4.635695582115867 -0.4924063645955649 0.8309926259124591 1.7337221153485882
Ni 7.448248911784717 1.0946936327803942 12.783672656517341 0.010505270406698037 0.12414905857679912 -0.235911056343155
Ni 4.169918815676209 0.6029618274795835 3.018931633066495 -1.2748915298259398 -0.1879810654310956 2.2610535739561124
Ni 7.280058917799904 4.835967968912822 1.920931055987635 -1.6394739580962798 -1.5275929182535561 -1.1397543476687533
Ni 8.206320221331223 9.022244414926707 11.244324571753834 1.4373338275559826 -1.774844339310195 0.14891778088104676
P 4.783875207683611 6.601930283698546 10.977057669092982 1.1497813928874523 0.8253727086225204 0.2924714692367027
P 1.2754757399197358 2.7900058974467017 6.754089799952436 1.8809733071604895 1.7703443945573125 2.188972439719146
P 5.477932725116642 7.80916068496731 7.627576075279777 1.099044785764533 -0.32433669337641563 0.4996105956534879
P 8.441376107078133 5.484997730128583 6.1584278562793875 -0.6097975356232402 0.870301707924727 -0.2751761724913648
P 4.907270460128329 1.1184052063297079 10.641405618974854 -0.2764264999586981 -0.2896221727133657 -0.5723219072752853
P 9.28531798545712 0.3256184381189809 0.22645391592432237 -1.6142262392730846 1.0889202957360216 0.6432961816013179
P 7.475157446704869 1.9999742947788903 7.49555275536863 -0.14606437059265168 -0.992337062592633 0.7167058048417205
P 3.084508487634461 4.653946223690911 11.287936530792592 0.23094137104270546 -0.32074717625294435 -0.8067134416501203
Ni 7.80593576183521 8.692109220305367 2.288709305677217 -0.06033916320968963 1.3449348076972707 -1.7600108738417883
Ni 0.5913884544936626 4.386547900752131 5.043403226886133 0.9485437195567664 -1.2619899912729233 -0.48827537314632685
Ni 9.288030276299436 9.227325292601842 6.067520442185097 -0.5641236877352092 -0.5690239532503039 -0.7388861975935016
Ni 7.827270585677339 7.23851706115317 7.273467398611982 -1.588804199655554 -0.26540366648563324 -0.4425747857854184
Ni 4.203286517447649 1.9671099047101483 1.115760023714419 0.8317140774595161 2.0126744670529337 -0.013113397453506447
Ni 2.4315734004292486 4.84605284414095 7.310571723746597 -0.0020946777454996183 -1.547141272699129 1.5551304615521928
Ni 3.064236210720248 1.3967458985086187 8.960199130806002 -0.40245503494639717 -2.054635384865752 1.8685224829916462
Ni 1.2713560404272843 1.5908750863565362 12.26902898403928 -1.117312216615153 -0.3355451604977253 2.345012433467271
Ni 6.439845274255715 8.847418162935954 4.021795113630986 -2.3363421593867826 0.6300308319509795 -0.7790010633365164
Ni 1.78765132093716 2.8311842511970426 1.1622035771102028 -0.47042497522846727 0.17846027042485396 0.3277323493215259
Ni 2.573553903525433 0.47574420227048947 0.9721894284611934 -0.7252228411737962 0.4032153101511895 -0.3806770198393573
Ni 1.664489083169617 0.8729559339220911 3.4317134054469207 -0.65506103544673 -0.11521576064291127 -0.5956736946273483
Ni 4.714418192711329 0.39103497858905045 7.181004378532872 0.7421522699392831 -2.0149907738909363 -0.7259568911263432
Ni 5.369832556081682 2.2726014670734735 8.787441117089854 2.7682522663695033 -1.0749471213853807 -0.49929614973686276
Ni 8.256977612149038 7.7308770740236445 4.803528597615247 0.5191322106261833 -1.719075569080007 -0.8229000787123119
Ni 3.730434493350253 3.5070200208749998 9.6245323639599 1.5435620399883028 -0.035148008656042694 0.5771722933890511
Ni 3.713843848335403 7.534072877681759 12.87823653692586 -0.3583819558865827 0.6929349276743678 -1.101617945808348
Ni 0.14056936621121335 4.602776200583311 2.5187479193951976 0.7946531680514767 4.221956050643077 -1.0602908049247868
Ni 7.033818327548602 3.3041388017523947 5.589040647604575 -0.02262082272330943 -1.3895647877018196 -3.552134054837089
Ni 4.994408628804638 5.889399362659093 0.13777039390898896 2.238355361027648 0.21605185552538275 0.3358745188126861
Ni 7.272108457014698 2.0982132826758106 1.1705837169601192 0.15394557311294133 -1.183536120740394 2.947382309167872
Ni 3.445028796159401 5.849274235249583 9.15625581606351 1.5324145080119158 0.9481894215411412 1.0382875611808182
Ni 8.114661567917722 7.121720784366045 9.672319013954919 1.7896382097899177 -0.7984203484033926 0.3354618567552997
Ni 7.6181072908581005 1.7509748107498375 10.052865535894975 -0.437261343992305 1.1978044577339502 0.3961306353902662
P 1.088793701154327 8.083791783485598 4.164322735189177 -0.33883231588942936 0.5490909617718027 0.7882043271023393
P 4.955989168832048 4.331733528093517 7.942506596186102 -1.266818265899502 -0.21324215399072954 0.06168667837651956
P 6.758161964450745 3.7318139402391286 10.91253310880714 2.8818394902700564 -1.638136727342095 -1.1473139051835661
P 8.975445747162908 3.5289420417036106 0.657509631347509 -0.3255227432647168 -0.4790289148473944 -0.282964558187532
P 0.6646519972322728 2.4136592320480457 10.520772988542719 -1.063366101416001 0.4566232934586845 0.0248337712142282
P 2.2344150217780583 6.34097248643688 0.7634902988788864 0.18857344759945588 0.9308229052382356 0.15565612804614481
P 4.606448511895588 1.656725034126151 5.049650816410545 0.4498332671200447 -1.239974663344097 0.718570368854285
P 5.479386736702213 0.317276512676121 1.5638211502778265 2.3535610943682306 -0.8121356411069561 -1.3493830732766114
