# total energy = -340872.74123598775 ev
CRYSTAL
PRIMVEC
9.23992761088578 0.00000000000000 0.00000000000000
0.00000000000000 9.23992761088578 0.00000000000000
0.00000000000000 0.00000000000000 13.52356804472386
PRIMCOORD
 96 1
Ni 2.8890020193925516 2.160600032624753 4.376212747267191 -1.388353283892222 2.376673769126294 -0.700699145000819
Ni 3.983785622500373 6.794442294244708 9.006115103681674 1.1798285899818197 -0.10429577129629779 -1.981349174577091
Ni 5.6893654115897565 4.595718319598898 -0.02378449809898251 0.10399212401294994 -1.0977695185965353 1.3225258438744516
Ni 0.8926629548945383 4.147304624426364 9.900590932406685 -0.8140112608631143 -1.2023198291058004 -0.04918726035792819
Ni 3.364276184622093 9.356443269496399 5.027345837973165 0.846006325712472 -1.9006291337182044 1.112770877101374
Ni 7.882231272022928 9.305069271038551 3.9342901013602387 -0.6432249620437502 0.623775595069887 0.09456388872051456
Ni 8.529913249703002 6.066114226899152 9.905756976028588 -1.0416611056387415 -0.34674565719923506 0.6808090909451113
Ni 5.173389364488487 5.382516649937487 3.223342338169216 1.2441925580801863 0.3133675959594216 1.3967965295635685
Ni 5.873138335209921 4.585656038246273 9.259100630332116 -0.4385006157160449 0.7072184341765756 0.44169932515900057
Ni 4.465989733565055 2.444995769771167 0.569642471641382 -1.6808820887294211 -0.13056756050863322 0.05307476833779247
Ni 7.370524071556104 4.543531207496396 5.388114198186725 -1.5261399878571136 -0.19225295333357212 0.9197458214884676
Ni 7.600247156027144 0.11611632442806938 12.998096542123074 0.7271460263384381 0.3069868892440584 -0.37259655682406795
Ni 6.255606665815252 8.072980341117134 5.274191432613671 0.21033577897721195 -0.17103389605379576 -0.66401875886065
Ni 8.221484460400317 7.359593236992141 0.38745327164274274 3.7315500043069925 1.593696751861165 -0.6200037867322806
Ni 2.224660451924798 8.51607183788828 7.174483295822184 0.5879022782120455 -0.27644501190145937 0.36908802945017727
Ni 4.8470997947867 8.385742656548725 7.2038828980331875 -0.6097306869410467 1.1286826632356237 0.25042236258545253
Ni 1.652468684208862 0.17228861738216764 3.2888506541524167 -1.0530248673909928 1.8358460758045478 0.826505536675383
Ni 5.397670131496995 8.462360137702046 2.867185625910749 0.5485361177095972 0.8907237232245048 -0.11457452751448656
Ni 5.953377868053075 6.63643028927571 10.711775280142746 -0.7404388867926022 -0.01954552623209537 -0.6411413400418442
Ni 8.047154742971507 4.298432883199123 2.859477678156516 1.0379237500834964 0.2813357643348574 -0.40437616322851
Ni 4.142906418802994 6.187369799158561 12.514087873162921 -0.6740406618730262 -0.6513637891008007 0.4677481997272525
Ni 5.237412824077411 1.6576338038379874 4.531680076125526 1.0140837102411049 -0.5140054309225792 -1.1543412443439927
Ni 1.8710114560658742 1.927818532058471 1.6986821830014736 0.36135080870691966 1.3731644919669252 -0.8432606446465348
Ni 1.4233184752601942 5.331798686352033 2.104388931973978 -1.021317251875067 0.03612579918827972 0.17143473103664025
P 8.78015821377384 6.594286978670271 12.024574979224107 -0.2876776473924852 0.20251011228520607 -0.7892060288939763
P 1.6130696321541396 7.528055600280532 2.477274533478476 -2.095822914847655 -0.33760332857833475 -0.8554607862571524
P 9.215432731642947 0.3409163753778247 9.714844360212673 -0.6087896631840161 0.5384185696596211 -0.35296207042259214
P 6.382711112359521 6.926314543523555 8.606101074214545 -0.1280792468691407 0.1409072518717444 -0.7540958154544045
P 0.6573025904848058 5.7650866197484 7.29139425403935 1.6099294116699436 0.914402040678051 -0.5473068732881865
P 7.833111815943447 3.795217176362292 9.57395578940592 1.0576523388606753 -1.2510975127301358 1.514675695971256
P 4.988932686212588 3.6361795394096923 11.63623282652891 -0.39788541329784377 0.7842592264116622 -0.48373686184602493
P 5.705350486649483 3.9338900124873564 7.169857787975421 0.539330025730297 -1.02673765155969 -0.3206301910591059
Ni 7.131403980532613 6.281145826199692 1.7443237302644914 -2.0993021316455076 -2.00130684864594 2.522721941769029
Ni 0.07868722497608292 1.5372005851510142 7.765557779949713 1.1764473322144127 -0.7819550037585178 1.5373212012849138
Ni 1.763061379809935 1.5965763610665036 10.31396589744397 -0.7035546121717432 1.775892578069051 -0.8920545262207863
Ni 6.495641509688982 2.071785846801584 12.780474991065747 -0.9683610113930097 2.1488010097065833 -0.5168472712467486
Ni 5.154475232322441 0.08020904108147991 0.49174526049050526 1.8580364958586582 -0.09602453242644109 -1.0120404545588313
Ni 5.456463791962333 8.82148841073462 9.572129979676555 -1.4556092288264029 0.8371969549509581 0.2773770367974255
Ni 7.8561931555383575 2.303634114662067 4.506958649349632 -0.22006740444267908 0.06840651359885638 1.043285271505726
Ni 8.516681673121772 2.55609666140015 11.300699633075824 2.3162207060465594 1.8534478480467114 0.5633091622537136
Ni 7.178000936328102 2.118872518769423 7.933520263145196 -1.42227230523717 1.5912171799724208 -0.563407635504791
Ni 4.7279878857722935 1.656534252432145 6.886593017989304 0.3615726949097386 0.5759037110892726 -0.2818196459498114
Ni 3.5741981038601898 4.3414632268714595 1.917492912764111 -0.40672820840045437 -0.39748072166025744 -1.1715460382580534
Ni 7.919542100399327 6.94569067207861 6.582759244771708 0.21103254793392046 -0.4450055067140981 -0.40871130026875413
Ni 1.4943088403953804 5.524229422302233 11.919253662421633 -0.18327877485941985 1.3778585550084852 -0.3938906903161539
Ni 1.707390814934301 6.129703409882407 9.243088759481827 0.8004921433307568 0.3017431243466158 -0.4516219835893512
Ni 0.0915621403449972 2.24144016077362 -0.08664280279482499 0.43455320103252254 0.6452733599323467 0.27995533904756303
Ni 1.9314683035316456 3.305353165167833 11.870054742963243 0.9397870564100589 -1.7799400086655475 0.5934545754888425
Ni 8.69824625400247 1.957802097705182 2.324647558419771 0.32893099761531736 -0.4940205031602201 -0.6267452192211722
Ni 8.725430121531785 7.489913178403915 3.043857665031838 1.6022762660000598 -0.4838641314525087 -0.9884194727057817
Ni 8.07578003923453 4.921277935006051 7.749815714990606 -1.6099646357832533 -1.107036545720758 0.7204123071590303
Ni 0.3267931457658071 7.755283904250922 8.570155907164056 -0.884492140492496 1.196176949432856 -0.8666779951292106
Ni 1.5183418925516499 7.665564205505294 4.8830902374833105 0.4792433448510456 -0.1416958092113108 0.0965554652292466
Ni 2.1910086349493527 8.720200322408198 10.126299268257233 0.6401774334666782 -0.7846901433014938 -3.1217378133957334
Ni 3.436698738563208 4.856755519316995 10.450472894497356 0.7302511476263229 -0.7811492200277708 0.5545283307372901
Ni 0.3993265788402846 -0.04130617314855344 0.9056764691801553 0.6434674170718596 0.04712934938763496 0.7081658856915094
P 1.9235127257129034 0.9573489173053019 12.930749480511617 0.5528218895691447 0.499774632035178 0.16017741295526608
P 7.525302101802036 6.203253235012705 4.179810690357066 -0.6107760974864256 1.3919916519757576 0.06816225879853423
P 0.7684570736949141 1.4780650473578094 5.106837860658902 -0.3507455223872476 -0.3937071135504381 -0.22218367945473347
P 1.8001966495585116 4.243464552834783 0.20761378527860527 0.3108273460360711 0.20394787317299715 1.283249414872332
P 3.490040841638235 0.6161414842024013 8.552805170778418 0.4498553786072317 -0.18930878310358365 -0.01672785427764216
P 6.212058886187225 3.497007747184497 3.612564131989087 -1.451034464971527 -0.882864375081086 0.7833161457721025
P 5.87901492927812 0.2305371221084742 11.65344773597618 -1.5976814475405259 -0.537394499270481 0.7390654034838433
P 3.8167462080901307 1.3887241856511696 2.5448378093999904 1.175728194660201 -0.06068343392298582 -0.14855448400435708
Ni 6.244056756090016 7.139692195751442 13.016529274051772 -1.162939784646281 0.42674244673885214 -0.4341487665052523
Ni 3.566510483947073 7.014047657796443 2.5591458375676117 0.9773896972541811 -1.234624454775777 0.1639348231151693
Ni 4.083854040359811 1.6906942654355008 11.393146034509385 -0.09981253871396359 -0.6091066802038025 0.9702898529846063
Ni 7.129519035265455 1.4126371187462965 10.274206488205817 -1.24218864027628 -0.728685602911416 -1.7347099331831544
Ni 3.747770147211025 4.3972354309526756 8.041992395320715 -0.5600598020784807 -0.5674193277673454 0.13148518722689614
Ni 7.566040943384886 8.416622495190113 10.72840899813264 1.5074113010993588 -1.7547838211148938 -0.11647380141972845
Ni 9.188304303680313 3.3203403280272985 6.321416203444086 0.853220584072724 -0.1270045257477232 -0.1626281884886038
Ni 3.1125158723953046 8.950459322690488 1.3201398977099443 -1.1932078395022032 0.5782094764043139 -0.46696864124875065
Ni 2.927430879030354 6.1325770274220455 6.484456577111064 -1.3212066108423954 1.550909995712942 0.06924932121512589
Ni 2.2942740678207363 1.6558227779930705 6.778133821712677 0.3088167433639456 -0.6574655311231645 -0.23842970899995067
Ni 3.3397164565823525 8.541731117333862 12.32084956752473 0.057429959982694644 1.1073867299713251 1.1099745453031593
Ni 0.45559311905774075 5.547440120886066 5.100684068757297 -1.6810281273889822 -0.33193738854180893 0.33355332687867717
Ni 5.208454890414301 6.145365087469826 6.6981696387173715 1.6252434163191944 -0.893369645487784 -0.11602360125618728
Ni 7.340697584681656 8.85232204973711 8.020300740863945 0.4407382467973119 0.20502619383884046 0.029874676072245324
Ni 5.053288783201599 2.14964147827745 9.206642788345654 -0.6171028110354017 0.19988244485437187 0.29702283605281105
Ni 6.292982173686113 1.9401538356450225 1.8876193022579844 0.06266524023970498 0.18176362376647406 0.7826029217551618
Ni -0.016773240899375683 9.010657452178414 6.256963087213384 -0.105025964594103 -0.27026536545330876 -0.7362011945621708
Ni 2.5499059097874235 5.403907082748622 4.205451489947088 1.7660323974455199 -0.0833793328586048 -0.43228368827205554
Ni 1.6648963870732154 6.984590768033201 13.825820360585672 0.07125426746029664 0.6404378862169163 -0.07081640859192966
Ni 2.3479488082958495 3.9286140137248693 6.171994559332328 -1.140887689942248 -0.3073990370808125 0.0061171686413314
Ni 7.0334515061348375 4.808264378326569 11.693288456578795 1.1953778505703285 -0.5756553425238924 -0.8816582705881267
Ni 4.572332062387242 4.041276453148704 5.340402907100945 0.4973328553629047 -0.28960314654997216 -0.584286021615697
Ni 0.5991418650724111 8.889762237102433 11.70523013924191 -0.8741650475348752 -0.28659444163063547 1.9532624436432036
Ni 8.910616754102316 5.145798940136844 0.3153088395278111 0.39458257417685594 -0.8982513990601175 -0.6385959479121712
P 1.8418687238471603 2.994577434208982 8.398068720207496 0.2937847887314876 0.2994568994156004 -0.40106921034246407
P 7.379209603669481 9.210036613819316 1.6037604049155998 0.20163285188657534 -0.1667208705007387 1.361705085177074
P 7.582552694328084 3.4430650488037577 0.6196036851416378 0.16859700447752898 -0.17195975030217484 0.7197829011051474
P 3.1395149413690144 7.0866180505820395 10.831728946577927 0.0912466514218235 -2.58027505759315 1.6149579752327865
P 0.9699244590141382 3.8153879387064427 3.720509588281136 0.5018525976101292 -0.28282520439619036 -0.20978787689354192
P 4.266536652501912 7.373545527940225 4.654920384872121 -0.576408418639833 -0.7479069130348732 1.0758020131865085
P 5.067167154727442 6.272792931486402 1.1810808326036677 -1.034770034945863 0.27958921395739594 -0.6613409549181707
P 6.749222087688468 0.8080889719296974 6.199582211705637 -0.10383811493358892 0.11351214768824322 -0.9551769086025679
