# total energy = -340873.69896799035 ev
CRYSTAL
PRIMVEC
9.28689804598108 0.00000000000000 0.00000000000000
0.00000000000000 9.28689804598108 0.00000000000000
0.00000000000000 0.00000000000000 13.59231402433313
PRIMCOORD
 96 1
Ni 1.2032940971174748 3.107219645962089 7.044257996750221 -0.7801706581645853 0.004451608013450398 -0.27108914690618474
Ni 2.1668840679339123 5.0347896373142556 3.9470310531204684 1.3434559091588991 1.1701021067226751 -0.08679941428374728
Ni 6.9588027467024025 5.189713671057771 3.9144916196334445 -0.7555646866904471 -0.022288121974239034 1.8842080120477034
Ni 1.9550870703584031 4.899256646758394 13.248931186655176 -0.9404298322003805 -1.1755549023071301 -1.8667525355754173
Ni 4.228166817818578 3.7578318646390785 13.386472004575582 0.27260301244754986 0.977457060157007 0.7523407804365108
Ni 4.828899106916595 4.649141907711493 2.55065212936561 1.0804716507480359 -1.2973915107006688 1.1440925700327909
Ni 6.998950007095234 2.8566219882151125 0.028703944580653482 -1.8055556523511227 -0.35323383602674 0.6810638872683948
Ni 8.366315732563429 4.571531300470481 7.4637982608900275 0.3939238575469345 -1.8566581274538925 -0.8991137470604129
Ni 7.3216697153189 5.401882144556416 13.017210077942313 -0.6159692116515907 0.4460357477508254 -1.2091818463329562
Ni 3.3662498071642326 5.644372340280968 1.2529297812769864 -0.3143250747766845 1.5469623239191035 0.06164322673309384
Ni 5.3417401926008345 0.7640275327693846 13.271603290933923 0.30260572945722725 -0.10879931559360617 0.690575940523888
Ni 1.912562364057506 7.828288579290626 11.924659454340082 0.16054868025175578 1.7015589003524825 -1.1044297042255302
Ni 8.870835757569441 1.503948135506913 10.665304068282664 1.0568578679838379 -0.4875564927024313 -2.3954417937624166
Ni 8.771465948130786 4.29145702822273 0.8110517411892562 0.9501591436730021 -0.8085857189721688 -0.08879484744722127
Ni 7.424113488021498 0.40499419567964084 4.037936783650488 0.1407218753338157 -0.7738370026370738 1.4087655289999867
Ni 6.900416018483634 2.1056926964954736 8.05229041832074 0.5322751757660446 -0.48719473848763845 -0.18923962042854506
Ni 1.6461676926792075 7.101811690211359 9.820148051280178 0.9954318994678728 -0.4068130548047768 -1.6171794083641375
Ni 5.017181678557649 7.2724027210131 6.049749156161437 -0.284114098410943 -1.081743575481924 -0.34297899106795127
Ni 7.6868769822511505 7.198766906149634 6.6341634366459346 0.21481875444923004 1.1541972625669605 0.18128154192373297
Ni 0.7423407683767541 7.084686650154828 3.441764361508955 -0.8508343432287346 0.18588304525148633 -0.9627909735043998
Ni 2.922623972858151 5.712640328055131 11.379118271832063 -0.13185568319243743 -0.05604722070255508 -1.3408166717638395
Ni 8.767426147466692 3.009112854662094 12.359096831687415 2.294328276848842 1.3129124891544035 -0.2201306535804467
Ni 6.479134460954132 9.226041035271276 6.715704259153717 -0.26767986411431965 0.040740158031839516 -1.0480855211078466
Ni 5.349113989675066 2.1512077839776085 1.8186653236564407 1.6184449053401222 1.185411740496552 -0.5096805782949803
P 3.9934218950913944 7.21380239413853 9.979435998430725 -0.6985882693054033 0.39646025081554304 -0.3671496747768838
P 6.7325274750227 1.818903996937055 5.7627877202987605 1.560845766769415 0.3285345335078471 0.3863375605592443
P 7.8838520904935665 7.3675655656222485 3.5999787432416412 -0.4065340901117773 0.1444522889105254 0.13651889299606168
P 6.64733875894973 5.485222767911788 6.557829777890699 -0.8195049369878338 -0.926446887657727 0.4000227713558207
P 1.2072781763930993 4.270505786157907 11.28321061799703 -0.1477481860529778 -0.9191338989360817 -0.3752640763539021
P 3.0536249571517637 3.3599068557767 8.04345579217878 1.211504838039178 0.48935369381217014 0.24327443868676168
P 3.0632647573571212 0.001361459258290346 13.44308400657157 0.5114235291280159 -0.9831263426276423 -0.7306028745387868
P 0.7310701888688336 3.741691235778856 4.8720971133281745 0.2518015023211664 -0.7455872637627612 1.4845523942233143
Ni 8.990218832367 1.0972562948585447 6.947235915145781 -0.830676380223621 0.542975078682052 0.15321255160165873
Ni 9.25706856175114 4.656905754505018 3.094372151160459 -1.0550246714298412 0.5107082482285462 -0.35094838242667303
Ni 3.0294233007595084 3.2762690516828195 5.474005123722915 -0.6000512548697536 -0.5650546841899108 -0.6800755552131964
Ni 3.219693268589335 1.9635567214058847 0.6463634628061318 -1.4895177086483895 1.5839129330015236 0.43614882765441665
Ni 1.1987435170590692 0.20785099458200587 1.6248524042097123 0.33880917596097776 1.227606371586731 0.60084778262912
Ni 3.7922491089175505 0.8990794620047861 11.474114880965608 -0.6749978835799729 -0.9347214689616934 -1.2358755535740586
Ni 1.9870339997480266 2.6307089055604673 10.022265314988593 0.24891055392661648 -0.38393229355186137 -0.4501274013216957
Ni 8.107489883119008 1.3357902720017065 2.088853692899757 0.3906359308242821 1.6449979732383022 -1.5215071170707926
Ni 8.766218850716504 6.319223362942526 8.72402290060758 0.48535305729320927 1.9890884522028778 1.191592158275651
Ni 4.719350857184037 2.233647578219378 6.816872012060346 0.026361777822980405 -0.49831475966019984 0.29810758447655755
Ni 1.738507320272529 1.6898161136475884 12.482025644171301 -1.2049115010923763 -0.35777851797462895 -1.2273076093993895
Ni 7.900800679486609 8.549481223363296 8.562260923808953 -1.5286979783922767 1.4813505994565648 0.5503469456660909
Ni 8.369306113744667 4.212425525575726 10.027172511933209 0.20779887148797116 -0.2531302484349189 0.21840004404258517
Ni 3.9144368269347822 0.30397131838303526 1.9123840556144012 0.602049516246705 -2.456866733837117 1.5778340737972956
Ni 9.264823121646588 6.035861528775029 11.372457708530249 -0.5085477502421176 -0.01796172668474326 0.5608167348491632
Ni 5.178132909154034 7.235385145272683 2.2142426046846055 0.6176440282508524 -0.7708475809914467 -1.2438971383269546
Ni 4.787043057277341 2.5160342880886453 9.450042874301392 -1.2386191777574669 -0.27738269322438036 -0.16841959835940026
Ni 5.1310390489985735 4.920997275159878 11.366477874857582 1.6406931752153615 0.4790996201843297 -0.4794017248057808
Ni 8.450046405638092 8.355979415002194 1.4421168967908744 -0.7279528385104496 -1.0907897448445925 -0.38288534034458577
Ni 3.165745677652032 0.35602531080215677 8.805182960294148 -0.677953109553555 0.7051492103523727 -0.09608726734357645
Ni 2.8263559873776756 7.513072684714289 2.6308064179902906 0.8403424425584752 0.37296679567929314 0.4988927436508569
Ni 5.026747183578379 4.626676901259895 5.633619969685821 -0.9006119288724941 0.3744852892063486 -0.7975549150793039
Ni 6.5427311389948715 7.8865824385286105 13.23930810286636 0.99160738351546 -0.11517950808833712 0.9471699791376912
Ni 3.6778995328784716 0.9746785271220216 4.46156792639382 -0.20020357563921648 -0.39747223701982515 -0.49659572008656405
P 0.919193025862939 6.761549031517634 6.870126800401001 0.1090037182949284 0.639519231057389 1.4400807941735005
P 5.279629418252636 5.599470188072005 0.2324872778043294 1.47297497379836 0.8122870790831559 0.37412044966776214
P 0.7066707215475087 2.207319222167174 0.7536178487133296 -0.893047743371991 0.22399296474933034 -0.05575720026596204
P 4.499149216847596 2.8853463639715384 11.567425918097927 0.8642099932046923 -0.5902790059743382 -0.9009124908320485
P 6.880254162755473 0.593898060802138 10.292385889875938 0.7854889850537052 -0.32382144430289395 0.5003767843955511
P 1.6900204254053126 9.08349643666624 3.7584921630924515 -0.2804736734448783 1.097045753056633 0.3876228550295711
P 6.975054818339565 5.897273148751381 10.136223912618572 -0.06976996960528628 -0.11227493284703244 0.2761858447028018
P 1.1069425295542938 5.779069510009775 1.2932052008633002 -1.4608532508341616 0.6554155905726713 2.797867775243091
Ni 5.601894068470462 2.6008608151365578 4.18295355452399 -0.4750383056307626 0.5416843848950864 -0.08685289322950204
Ni 8.235444764842914 2.6738465471345374 4.148115613762567 -1.1436899352777337 0.28704592734575723 0.41203496532534845
Ni 1.1402732067575958 2.080748088256948 3.239197611933547 0.44014612173926776 -0.9667314462093868 0.8759416798193237
Ni 5.445762737976756 0.22296077775552833 8.793384884975376 0.02565703844647194 -0.8506358540646833 0.21398494569402504
Ni 9.042169740217453 5.900179947849914 5.2286638502883 -0.11646094590392202 -1.2735586699471293 0.017178568661815576
Ni 1.2839786676224305 4.821302424288481 9.025214650395757 0.5850126153690763 -0.5210376551790123 -0.3069598926608649
Ni 1.774661214491658 3.795536670837297 1.8140163024784042 1.77414602769159 -0.8761609949189815 -0.31395072215640124
Ni 5.43915046654495 8.598423176236352 4.027103617042059 -0.4574275345275348 -0.002877064437478916 0.23278742311250875
Ni 6.774309229477327 2.763892310902499 10.921410713969735 -1.289819611890682 -0.6680304511232042 0.6791476440822884
Ni 5.862122239524718 6.79302232910526 8.46170517748569 0.04502207323664504 0.49572771565931406 -0.17180676966407832
Ni 5.964129528017631 4.201847748664452 8.342799449249359 0.31879802294637355 1.8109025184853331 -0.059028157707749954
Ni 1.7244469565818632 7.642587765315361 0.4803685178633796 -0.27877468847590053 -1.2432767311341362 0.7910114575338313
Ni 7.40983952567503 6.003515262768035 1.8159600502462088 -0.4157712924393291 0.6594617356175868 -0.6936036716066183
Ni 4.3138477394897015 7.128093611773171 12.693182774469209 -0.5960053669351543 1.0931780425711108 0.14424608643699027
Ni 3.76555856384029 5.399086788234825 8.877589189852037 -0.047192855635718726 -1.3107023688769621 -0.3009229424381656
Ni 8.523747228788109 0.5321838370018869 12.683246722215152 -0.7145581623710984 0.15564250119939 1.5372407257559655
Ni 5.839490068907708 7.89180167524866 10.873728993165916 0.6033713203819222 0.3762004721252424 0.052246101788910024
Ni 3.0776037279901383 7.462161909448616 7.7806207888339225 0.3670946531692323 0.8149664256875319 -0.1961728572132686
Ni 9.053434747586527 8.25574592404225 10.66633770003879 -0.32830159156143457 1.4530409538785944 0.14489169044078914
Ni 2.6191467174528857 5.50651762520551 6.525955286306088 0.19629986970943614 -1.1454778804160917 -0.046674778348719616
Ni 0.8632088181770476 8.710961807150149 8.211687950868614 0.6439124750290781 -0.2706942254606112 -0.4028157607199256
Ni 2.5302339552504867 7.6831715099178775 5.185875396081977 1.0765280927192558 -0.13913987555867652 0.505129211478872
Ni 2.2385510604047623 0.8874374065737304 6.248454413515856 -1.0240202526285267 -0.3321695591572731 0.8498043593023236
Ni 0.1892530524902443 8.41219300907062 5.664706003623578 0.24654848145234318 0.7775031386347513 -0.9789655263817334
P 6.296665487510143 0.129028447141765 1.783203303344151 -0.4559167543099632 -1.1315844102634511 -0.5742144963123078
P 7.007141051200365 3.752371168568992 2.2256459868350467 0.40504927803613466 -0.5061810497821541 0.20070288387313823
P 1.7297869229769312 0.43016911899051036 10.423809428032115 -1.136656939690352 -0.8412011910143448 0.24703801949425197
P 4.047146600474816 6.207585561142333 4.076851672668319 0.7963989470979896 0.3266895098793084 0.4055115623845339
P 8.954789316197985 2.615162638177261 8.637303703731293 0.47740012099471973 -0.08054597717486774 -0.7840699932189916
P 4.210958195679342 9.267312010331592 6.452094728509125 -0.2312933550654855 -0.788931692186667 0.9490759379111524
P 8.91592364773997 7.7309990350215285 12.865519742109688 -0.20516297652702084 -0.7958207059970166 0.29689993732170156
P 3.5144594135970815 2.462300295807145 2.9125068260915654 -0.43861554402735425 1.1634059256494222 -0.1902613768248401
