# total energy = -340871.8853200038 ev
CRYSTAL
PRIMVEC
9.21755251755284 0.00000000000000 0.00000000000000
0.00000000000000 9.21755251755284 0.00000000000000
0.00000000000000 0.00000000000000 13.49081983392241
PRIMCOORD
 96 1
Ni 8.605341173009883 6.1085734880348515 3.914819939563156 -0.2930239993060631 -0.12375953644786429 -1.5962467719765283
Ni 2.5172214341506893 0.16409179278953456 8.319882787150963 0.8443325375544749 1.1951521077127676 0.552608488006758
Ni 6.564012761026852 7.127573925785624 4.793827875745556 -0.27497176979004256 0.8864603199624603 -0.7752842766065616
Ni 6.180092478505301 0.5722560821077575 4.268576703020974 0.3586874029421435 0.5136557608926444 0.42019179010452795
Ni 7.618952436288167 4.049003539495432 1.9421245023376874 -0.50798442153948 0.1927221796605068 -0.5847441921990382
Ni 3.008756643047096 2.082328085860149 1.2764568206260392 -0.02893313809458243 -0.21335399697824547 -0.005391346218900393
Ni 0.38619240923259185 6.338643600438825 10.42119995308176 0.6418075128709333 0.05336864542912745 -1.3172427410986411
Ni 4.968500497142003 4.800906956127217 12.537706723909617 0.02755065592475901 -1.1868965525721944 -0.9358650956478334
Ni 8.562110851408335 1.7572434414585727 3.004756225227251 -0.07085420380840056 -0.8810242365485537 -1.1797769108082778
Ni 4.554365077262269 2.141532426083335 12.775873534500114 -0.8341211442391119 0.12109818756561724 0.28153759593301836
Ni 3.701483372113436 3.999772591164117 3.0919745512524472 -1.2980486846686934 -2.243379296604801 -0.12840423430872727
Ni 9.026150100957745 5.908801470962282 7.89339769032416 0.20608728811350313 -3.6504576677103517 0.7232379495332835
Ni 7.9331511510924235 3.4884196442200923 7.82468913163544 -1.1931569316596096 0.8317068783706644 1.5203395791252525
Ni 0.5066593691701422 2.7781611301460454 6.697004531410497 1.6798199660134943 -1.4874723960835865 -0.1763113424026512
Ni 3.2872096889449987 7.637995899919041 1.4485227181527802 -0.2276824977857756 0.8496320953905174 -0.29011865273381005
Ni 1.4661807836308371 4.729867278390942 1.7636819019359034 -0.2824122852284878 -0.15511028284500383 1.195655272601431
Ni 3.207570034651315 7.046026238107823 6.115982556798886 -2.355829578687433 -0.9392208994939438 -0.5073856116132165
Ni 5.000780366278169 3.6860347539888743 1.1419653544375816 0.8457517864995048 -0.4618696294592884 0.4455744918436907
Ni 5.923512684880421 4.858774751226261 3.6501840049831045 0.6773316739194722 0.524304241745426 -1.3178461790105949
Ni 6.807162580542254 5.937956589773732 11.102566970348155 -0.647141266379021 0.3664313085536205 0.6727731080145123
Ni 9.076763682176102 3.864173175155509 3.8623268993736772 1.0398842162439768 -0.9929304732022579 0.6010262171885133
Ni 3.5484996519384056 6.125100559811306 3.18245773440158 0.8788745371954026 2.2405030034982705 0.8260926175076805
Ni 7.4099536490827305 4.294706621075573 12.629120879869358 0.8989857061229808 -1.2647410716554992 0.697053834938748
Ni 2.0780419239103156 8.108367608091106 4.2676180775526245 0.5088529401873623 -0.9305351987944877 0.15204707053864783
P 6.528903103248538 2.376156009461971 12.164064934270343 1.9942221738850172 2.403725116817131 0.4593347788525767
P 2.046462588770251 7.304421889591019 8.218917403207525 -1.5445439442855982 -1.9744133666892063 -1.6479439432405036
P 1.8999127202962611 7.868185840506557 11.56009494075485 -0.7248456603400355 -1.3955487731993965 -0.531778181524968
P 4.807534376432444 0.5496979656780201 8.921573279913352 0.14953535986038763 -0.4341166277157362 0.7602389522376648
P 6.824390186314812 6.950025427984128 7.1180402111518335 0.006704922824001356 0.3160628834033976 0.08072364040331258
P 1.1076179882576567 7.0970269565345525 2.5877412419214365 1.0278347412786104 -0.8178231784100366 0.4313979432329925
P 6.782865111940616 2.7766217988651376 3.6322282125567047 0.6891790601763614 1.2514014171238 -2.0254029703631957
P 2.3235053491233693 1.4104330256252589 6.457650500047658 0.03696217904664602 -0.7105359285855827 0.04323669920144812
Ni 1.7034498046000153 5.625647473248432 4.42577100121468 -1.0513397663790862 -0.2894753627228563 -0.12728734709546466
Ni 4.980612361232501 2.736027697301552 4.6312772577474455 -0.3403950323908589 0.22927015398786965 1.5585844815390641
Ni 6.029385493817602 7.830624313741887 9.99777692722213 -0.9305909917330876 0.6263042750290116 -1.3174731119418923
Ni 0.7778941496424215 0.4950646097793986 10.231640062512893 3.053725964132134 -1.0838832475327465 -0.8036846821261255
Ni 9.088036748981793 7.993129765732354 8.181224065440956 -0.47605800514452856 2.567902909181042 2.3160749244973142
Ni 3.697068164427478 0.8227624303374865 3.8476765213025685 -0.1342007863858463 -0.22015842149458859 -0.322619967795625
Ni 8.749015165078823 6.251648339186072 1.2105457891454359 -0.04477730421569063 0.032884666543162716 1.1745056351070093
Ni 7.238691522140989 3.7813258125638853 10.174034045907128 -0.9196172663304033 -1.1207392400188312 1.0854518775714468
Ni 2.7525824217357484 9.107513437583941 13.075262407573623 -0.5948121179580015 0.9979564656619394 1.0337930157445743
Ni 2.704512885029549 4.1160796696221835 13.298332710548127 0.842817386461529 -1.3765485779478097 -0.3302396891244119
Ni 3.507970073242882 3.535521337905361 10.742497105128098 -0.53582921166589 -1.3255597456047687 -0.03543083000378414
Ni 1.4269693149542944 2.4034860528625233 9.232051790496206 0.0029487982156787924 1.7761088078449152 -0.2173284082449612
Ni 2.0770464282316445 5.077221529826493 9.128496274277706 -0.10188819029606967 -0.1576325350462253 0.27595418830796986
Ni 4.708242900037588 7.117102786054418 12.277321002824335 -0.2628816713947279 0.47469763446189217 -0.4018647096605659
Ni 0.6829837759889761 2.498611195491089 13.106844507979462 0.2393223960175491 -2.0044307389869025 2.24603318928788
Ni 4.125306439755051 5.611498530037692 7.873283147083456 0.5702686242906824 -1.0548110127571382 -0.4248701694168037
Ni 6.962782520755247 1.347329660660611 9.151713445716934 0.19160040735123776 -0.2565498156394291 0.22481391798872896
Ni 0.8479936370155073 4.013589702481967 11.587265520495762 1.0907540065106507 1.2624805577560967 -3.575201478179514
Ni 4.992171172168181 9.096710465959845 13.342258957369486 1.5948516914012145 0.5644103657376924 1.3131482593142934
Ni 3.338182754713988 2.972614619379789 7.861693918224261 -1.7554227402504736 0.05081451154870603 -1.9171443577644076
Ni 0.9359687241075444 8.12640635849073 0.6368784997376365 -1.4020192114150887 0.576164163839511 1.084316478415423
Ni 4.521790246443534 8.029889365422541 7.599378963383926 2.2949985634429892 0.20739700806386216 0.49912748536948237
Ni 2.022930177032777 6.3475201035736415 13.345375411896882 -0.4898476027294531 -0.21090065034174646 0.036401678557485696
Ni 7.149954143450562 8.490554990727563 0.9661764874236624 0.37182214055188867 -0.24053312849619865 -1.1603928498547114
P 0.24352497390541936 4.727950027454241 13.38000667869628 0.013214698918061112 0.5404420278475531 1.4871705485724518
P 4.951964207812967 1.1363490996504124 1.8741173994003266 -0.12447456023701789 0.3228750212292246 -0.6433833419984856
P 4.343301558278848 5.751623764363222 1.160770083456626 -0.11848954629817657 -0.32108990430434375 -0.9291717427880579
P 8.921918016379854 1.1663245806415072 8.409650688219866 0.705381638078153 -0.12749586356184495 -0.46637240242564837
P 2.5230837975917524 1.841408914069177 11.952947031726698 -0.8514580928556625 1.394106641436231 0.09169145226872596
P 1.7611793364103552 2.737336589767953 2.946044102311853 -0.24523181952344864 -0.1339634735640596 0.770566302305602
P 4.668856297862019 8.1671940286585 5.086943282532921 -0.08717479534529503 1.3221790020579938 -0.7065625457601316
P 0.04035721046227238 4.2000054858657 9.528107596556683 0.2390956247187237 0.6377009469017276 -0.4342040452232199
Ni 3.036685827365367 5.655281904794057 11.47353751324966 -0.40930188266490153 1.0685414749693531 -1.908829153030493
Ni 6.989642468974204 1.7527637109045529 0.8419994625725463 -0.7129075141415528 0.6916560609619443 0.09430215041869565
Ni 2.501616117632263 3.1165651380261377 5.192171784544741 0.09726123304701959 0.3361190307233244 -0.8290139049195336
Ni 5.795628360381513 5.099546442175949 5.903636876251547 -0.39349911130469 -0.43667796068500925 1.6432776481130862
Ni 1.0350021090301524 8.637491996409926 6.41280710674456 1.6514802385285363 1.7025487750695776 -0.9326105932662777
Ni 5.30673858907565 8.352706491889366 2.645657890049156 -0.08635384210589644 -1.2047855170374737 0.10695146375159001
Ni 7.3849648640375705 0.3037017659258257 7.002275124785489 0.11722842019756587 -0.6133903951808211 -1.250460650477085
Ni 8.667071122640067 6.825708296333792 12.348404003057738 0.6555819409472063 0.14115202089269882 1.5976971312698096
Ni 4.66245009881872 0.7914476389564761 6.411202330840331 -0.27044585689523104 1.8063092426876957 -0.184660742808611
Ni 3.6160090070364306 7.227040535679506 9.556289341815653 0.2693163712764781 -0.23033381936569366 2.555681941634818
Ni 0.12876091374929288 0.2031465630722123 12.389874693871707 -0.06910431099682937 -0.21411864305841186 0.5487598036846291
Ni 1.7178844919407454 0.23058629534846992 2.4525096062607816 -0.3540946413651386 1.3016813963252745 -1.514723775600372
Ni 3.413582334820739 0.15723762069083283 10.888710532932906 1.019670460300263 0.15733454418983225 -1.7286727258501389
Ni 6.020462902919884 0.741030391608078 11.167916652876618 -0.831596063824413 -2.165308006222671 -0.5472263977592382
Ni 5.126387955289745 2.7669618037609967 8.996920319970394 1.8373835954949969 0.5800133623822721 0.7941078370709679
Ni 1.7842693056239751 4.950848883950752 6.743224105313832 0.23101310482090537 0.15338224441030357 0.2910046548831891
Ni 8.767560880870361 7.044735780746582 5.947886659168475 -0.8717500103354794 0.03315514659573 -0.6176275731906202
Ni 7.3747518157786125 2.715684558756858 5.7265289774633885 1.4542190333470955 -0.8371568457416421 -1.970988400168057
Ni 1.0894225394641692 1.1494748945247417 4.533562904599077 0.14838067743065414 0.6426060975128287 0.967834192355262
Ni 8.272652047729569 8.492582852295227 10.544587033676747 -1.8975144993486224 -1.3863449952129414 -0.21159999040161623
Ni 6.839239663521654 5.571899924152778 8.878376141501093 -1.0036612293562006 1.191192351734071 -2.1746105145705195
Ni 8.582841127161402 2.0705480536625416 11.068462025801091 -1.1224611078059443 0.4414265311135882 -0.014658373343123143
Ni 8.532771381545281 8.403882343815122 2.8885735837290185 0.15443125450010825 0.2633879216071851 0.6483676825869543
Ni 6.483027344056447 6.180912840684947 0.2169756572084175 -0.3924354459268661 0.48609970565124666 1.1493903280966207
P 5.690953833279769 3.0347224886657655 6.797120057006031 -2.0035601634564917 0.17809440244500294 1.820804350980077
P 8.87815307672865 4.631313206202509 5.905377150178706 0.4888430727243387 0.929657938395857 0.09422476021354094
P 6.963178875516199 6.6082477958596515 2.477926085745666 -0.764062439748813 0.13385857255507916 0.1929713195568354
P 8.23193811798244 0.3772670530690995 4.758738496582918 1.045986986707605 -0.9275794586002736 1.569279242248749
P 6.85773929155029 7.95034188665466 12.155444679097258 -1.5389304547535625 0.5428107851900458 0.3859984320522707
P 9.00260847166769 0.8400545589781058 0.9214003822544001 -0.1422066874094583 -0.44791085328635116 1.0289549709259826
P 3.617124330898646 5.006707252587294 5.423902899923682 0.7684831945243282 -0.10074584916151036 -0.44768048244309994
P 4.891681413937888 5.032562487575 9.900845144287828 -0.04854217057476156 0.24036600679071507 0.616025775921139
