# total energy = -340894.7471036168 ev
CRYSTAL
PRIMVEC
9.03198341225085 0.00000000000000 0.00000000000000
0.00000000000000 9.03198341225085 0.00000000000000
0.00000000000000 0.00000000000000 13.21922069070624
PRIMCOORD
 96 1
Ni 6.330462947049921 2.0232726570559127 11.336578818396804 0.0717998555511215 -1.0611271847831532 1.072787651840217
Ni 4.822654612489401 0.26233937596103435 5.836061209756457 0.06952802879780928 0.6208067422495501 0.39214156883553114
Ni 2.5644781321351378 1.5325108090576354 4.869854854344786 0.7807093042768748 -0.22704666397398962 -0.937077627898696
Ni 3.461543751706635 4.252926133950618 4.904436512244076 -0.2842308264944653 -0.17614807735190954 -0.05278680478372844
Ni 5.098057849186314 4.408312375723336 2.758838285316449 0.7850732376725253 0.027221811830430535 -0.08211537854451664
Ni 7.404952847799241 6.213661338202863 2.8178225558652112 -0.5382781874270148 -0.03929236984171943 -1.2433636344209877
Ni 5.224993343366375 4.395423735464694 11.84106386191644 -0.8585520235879667 0.3593252936364586 -0.2097649940754065
Ni 5.380271201338739 8.009824773602476 12.386343664690603 1.0354472635185459 -1.2294084577924762 -0.12753160189578683
Ni 1.7713977370189582 6.622801152551987 0.256665484012556 -0.03163716728930681 -0.5406780551177592 0.371434932415799
Ni 2.730738881876604 1.8072276150189797 0.2431581528935663 0.6717168988358561 -0.6411002023912636 0.44952987694701296
Ni 0.6379307913075662 -0.011957442773942123 4.489828735167145 -0.10415230373989803 -0.1417657432172978 0.9269577658558745
Ni 8.698016745927063 2.3831430021612454 1.1269837880536115 0.04264585969498462 -0.4761742190074186 1.9342110834387076
Ni 7.080009182357655 0.18445748662239428 4.355098639345033 0.545292413961319 1.3964589437184918 1.0160161513771275
Ni 0.8322123662336216 7.324369492236803 2.669172367284432 -0.07213332763114029 0.17239195274358698 -0.5502106771985427
Ni 7.374307328249437 3.83666911671165 3.7674118682860978 1.7346803654967997 -0.17627688962028995 -0.040891338897723124
Ni 7.645935195900721 3.8864172810736655 12.69608288933934 -0.1397533407729593 -0.098167804021689 -0.22224949969566238
Ni 7.970914989275758 8.941112578135426 6.937169268674131 0.15789298779646357 -0.6804913025943765 -0.35530408829220744
Ni 6.668981683485717 0.5809552338586791 0.4025699496510603 0.19047426416659455 0.8623289741318956 -0.43988026967239086
Ni 1.890782493107762 6.392657184485803 9.401853016634266 0.4213791255444098 0.264307605207977 -1.2498965504434991
Ni 0.19996991804791403 4.947187599094971 1.3085781359500146 -0.640269221849536 -0.6987235093316869 0.9262622824507467
Ni 6.562530727572369 2.019280520409578 6.84006099635121 -1.4040668379727368 -1.1801900870862965 1.4080391923569235
Ni 3.7483814793407872 4.544478556900125 0.7627103510589393 -1.3135470374146088 -0.922128205677715 -0.9281433015235434
Ni 5.969851979308843 5.686672204936604 4.73791383498509 0.3513407327690853 -0.5168398150475809 1.0352613727599846
Ni 5.360789213225292 2.7961304414228993 9.110118147620831 -0.11606165358297431 0.16310204280122878 -0.18542873132288712
P 0.12856305758202807 5.68087367161772 12.401347595452801 0.07502093359158048 -0.5320674306306127 -1.086206239238968
P 3.816003938777682 6.15826818423913 12.557559360504872 1.3297940954010903 0.7159506718432509 -0.15649225079419501
P 2.3311820018753564 8.460746542987673 1.420326350105615 -0.536452704182502 0.6993637140188472 -0.3247601540670794
P 6.51093100662099 7.68602817004796 5.805431947776705 -1.3173193599728474 -0.06896264321264252 -0.21595646759809903
P 4.640154356661714 1.097250498823445 12.516169393546743 -0.08935611926732999 -0.19666342369644194 0.13025877101896277
P 3.9458296676338223 6.0791570419648195 8.201190824299037 0.5000268572553 0.3456822489317272 0.13048631364873656
P 4.637309281902449 0.9983502810013539 3.7085865606445196 0.18933680812804166 0.4360225864891975 0.5443058816783335
P 0.2570890840322689 5.461884203004531 3.6569651629330693 -0.19075785684528437 -0.7420910776840445 -0.07959903988056613
Ni 1.6764715918764765 1.105135420299124 2.623803811655012 -1.2258796187036114 1.0414317632367547 -1.2088288338689117
Ni 1.8650142445738418 6.364829643745177 4.808557492856824 0.4758410040377159 0.2435994261263482 -0.17286143618083777
Ni 6.072193382792141 5.450332296283576 9.25809455024275 -0.6252920317144135 0.9608968418054807 0.08718122310319824
Ni 8.501318212253137 2.54262976438065 10.352672485189157 1.6883087202107956 -0.12302008717867845 -0.6059197978353886
Ni 2.306560815228505 5.357582859131517 6.963304215732579 -0.16643007873319723 -0.6280222861613829 0.41934898248825847
Ni 0.7495218489526545 0.3244062624315025 9.239283638493154 -0.657746552698693 -1.1003568197077371 0.03315206127193645
Ni 1.5874794598033202 1.1899547760586908 11.410104582159592 -0.4469479751524496 0.85132079594685 -0.36192313627062184
Ni 3.8097809022407487 6.898954043868008 1.6651066472111307 1.4164513276800186 0.2455568069630352 -0.21753306805659955
Ni 5.620350351103945 7.737636922982702 7.94579614034562 0.12370014396483857 0.4196603430810902 0.172857836636412
Ni 5.425936909220794 2.781227668874365 4.774041768436082 -1.0930003793426661 -0.5671233937934813 -0.25677812960015134
Ni 0.9797714912241814 7.476991947100519 6.900724312607107 -0.8080766405462342 0.5142134331683273 0.3901425361276313
Ni 4.861790196400189 4.491216951009999 7.030629522916838 1.0618252392914422 0.08067118989882235 -0.2644587860738607
Ni 8.202648586413785 7.400120736700171 9.077824291107326 -0.2983536390490927 0.9756156360728939 0.3414844088002958
Ni 4.693217258917859 0.4929512007654073 10.327714405562878 -0.3994085348105895 -1.2838297128558342 0.24048222065360522
Ni 8.39562594294226 7.075267391092212 4.856688932196908 -0.18969984789441524 -0.031853139954854816 0.7555397469897827
Ni 7.179821630499384 6.009935921472719 6.97850594693042 0.15226510008672486 -0.6516931474157616 0.37314188780457674
Ni 2.346030582523714 5.199992813418288 2.5852562098611394 -0.8029997402439589 -0.13727685420800875 0.9931672718034121
Ni 2.330784594607395 5.132903240999796 11.398074883518749 -0.27362374040258036 -0.03144330611094585 -0.1310594125433872
Ni 0.9471118393844844 3.3229569989886296 4.017969021950427 -0.009746537863802569 0.3564819106503925 -2.0428201373983788
Ni 3.474603999649169 2.724660357073474 2.7171574884940393 0.743777721357848 -0.3083943111145463 0.535595241278213
Ni 1.0416044493255543 3.1970963108287354 8.167693907601613 -0.44744908315858417 0.6627301219562135 -0.027466580851384953
Ni 3.682971855827766 2.398976068996143 6.718893326746599 0.43709782183124724 0.43775113914452995 0.9547907289077429
Ni 4.061050679392398 6.9927331271234205 5.829583471288693 0.35104171347142765 -0.7940258188801229 0.7978325942207227
Ni 0.7529494866388173 7.581302322956897 11.194446109010585 -0.43313009543275083 -0.43044329262920705 0.9224547357791985
P 0.12440111964847378 5.885755182218296 8.078450686390973 0.7778834047923054 -2.3506241232270937 -1.2064816737929738
P 8.452428086310581 1.616914693582516 8.183345431570919 -0.3548389757303308 1.4467067841304504 -1.0837616343532173
P 1.7300673811510232 3.3448053667431172 10.282094760795973 -0.07955867356093396 -0.9783194081573021 0.6516576661921357
P 4.028336835652525 6.041376255558444 3.7536109977078183 -0.6481619943340515 0.43431254577662615 0.22076623028191658
P 6.841899004965529 3.890526833503716 10.543623967849367 -0.15593406429787984 1.5686788896605888 -1.3259688081177294
P 6.401653039915101 7.589340788149742 10.225542803366798 -0.9168132212227049 0.1757007054018458 0.42717593473184495
P 2.5061224876284225 8.518840259976868 5.838031085327872 -0.20119602145947285 0.5534860055157049 0.04194214875974067
P 6.958772869679488 3.813818198803897 1.618772572560233 -0.21488200358699766 1.1345028694618269 -0.6995529472115178
Ni 5.327723122134271 2.751575667494463 0.5205132011951692 -0.45691768477065176 0.39309159145362627 -0.04731035505018949
Ni 1.317956044275556 1.1128577660742736 6.932370575913503 0.968763903258383 -1.3710448745207615 0.5400309084520635
Ni 6.959495428348507 0.5675084170282199 9.306172700880996 -0.5115960501501383 0.15319481098984586 -0.24054675534295342
Ni 2.890370155829812 1.513281716478345 9.003148755862462 -1.327599915963249 0.8041479949157893 0.8841175307618967
Ni 6.372940364804926 1.8782912601170814 2.531982862392643 0.6327284333878007 -0.3807289561232152 0.6092275220523831
Ni 4.229722968691719 6.929283444000116 10.25245721058945 -0.17954501884860047 0.17564362691166524 0.71774453051888
Ni 8.25486248223383 7.061701352081364 0.5191439525173767 -1.000135218480813 0.8649463571500846 -0.06403846643814778
Ni 7.557503046796055 3.831421534377893 8.281960238718748 0.7082710438108061 -0.23133063606132417 -0.5051816619833622
Ni 3.1170006823678857 8.322530101587539 12.503003471398864 -0.8644149101266467 1.0380780162731735 -0.3080528686147275
Ni 8.833035865216784 5.156892188811255 10.110059864090703 0.14841230199953795 -0.7040305233668971 0.8818950691892811
Ni 8.688813154880423 2.2751295131261413 5.863266446843389 -0.7053353582212498 0.5767542320150261 -0.9505021288347179
Ni 3.77987600532669 2.7180579772353055 11.139097211765328 -0.9816291892568255 -0.2573548280392277 0.2294763564614048
Ni 1.0952905584337287 3.4440307359662667 12.69731214227501 -0.2729220863498655 0.1932078610476737 -1.487459283457464
Ni 3.193971244585225 8.234206336283227 8.081703103599898 -0.3911866611214295 -0.06391582481735444 -0.11421842972664846
Ni 5.320289799826729 7.847357456873365 3.7642660284808525 0.2082318452603317 -0.2250314333161737 -1.1628251134452878
Ni 2.9584171184847556 8.385654633309786 3.6475529330707497 0.3868420109994886 -0.37371678647144024 -0.04934126943728922
Ni 3.2580351025771965 4.087767286179408 8.92922648803005 0.48145577912133214 0.2784625565521204 0.296230936279135
Ni 6.991125434084851 6.056902234959009 11.77342153211615 0.7522878157113883 0.6237959067848612 -1.1750283403796988
Ni 0.5712548837270877 9.140186523433757 0.23978831990092503 0.22147842585759273 -0.32646171013921843 -0.12515950211918445
Ni 4.447764079051819 0.3627470318063679 1.6436114300061264 -0.1471390917140692 -0.299765946015587 -0.6430889506865182
Ni 5.805162794672495 5.638170454278647 0.5914269153694491 1.1806498003315342 1.123570538820039 0.8922370745452375
Ni 7.708716512255183 8.747575238638461 11.603012392416174 0.2984374570121506 -0.25538716278989565 -0.13669989865861618
Ni 0.1061763836191208 4.832942041539572 5.948477790680899 -0.6133795965475437 -0.2510013750173742 0.13261261596312
Ni 8.06879459297786 8.848534748667259 2.157456317884579 0.6520816411034318 0.2810359737062515 0.9042073595332364
P 8.5783068384372 1.5707522266155107 3.428682686637949 -0.1836533845900192 0.6355767014698731 0.38601283022997396
P 1.8919385869781935 3.4029352116657634 1.488470858180876 -0.7284901990711582 -0.6005572479718948 -0.12748866447299334
P 4.678341582319413 0.9390372462581877 8.132583878675604 2.04371462418819 -0.307805785600928 -1.565580453240923
P 8.436044068490556 1.6695711565873368 12.332554590972093 0.07476716570956156 -0.7161543032136247 0.16065743791547815
P 6.253673024499837 7.779581453719304 1.559801849986515 -0.5872538459947693 -0.91176486016552 -0.14559848669982667
P 1.727357786142199 3.254566820965901 5.992365101038828 0.7058140976298811 0.2173271226933806 1.1632004945068355
P 6.88085394920906 3.8880972299791368 5.926414461722379 0.4058303791765333 1.6939193815293534 0.9201410000443573
P 2.459228430009035 8.514667483663278 10.29403143000818 0.9868189609878812 -0.18121083658679757 -0.47300379169923695
