# total energy = -340895.25273194606 ev
CRYSTAL
PRIMVEC
9.04243765564167 0.00000000000000 0.00000000000000
0.00000000000000 9.04243765564167 0.00000000000000
0.00000000000000 0.00000000000000 13.23452153264272
PRIMCOORD
 96 1
Ni 6.290652162568413 1.9554090867094174 11.329783010402155 0.9217973047008577 0.5224594752272035 0.19534881865007644
Ni 4.623986199295074 0.4135088715428782 5.918318935735497 -0.476378878819057 -0.8689763042450842 -0.4539182358226957
Ni 2.6067810927446775 1.653644852859085 4.6561691396251925 0.20215992803463892 -0.10695454907538356 1.0884726666756415
Ni 3.499351084328414 4.357840127890399 5.280031337179006 -0.2784934097900559 0.3728809208337062 -1.4935589685972988
Ni 4.952000630043031 4.543436163482454 2.605625469195412 0.6175129019896268 0.39770595029718603 -0.10694323622147389
Ni 7.306778024082958 6.2572765246941 2.5530183746342696 -0.048212812259800834 -1.2358891804208134 0.13306075924413213
Ni 5.132740876543104 4.520233268119276 11.581186291237804 0.255509804410689 -0.004227664928102396 -0.596280732083728
Ni 5.702622433235825 7.826709154436556 12.616681054493553 -0.6050865033008159 0.49555699440940454 -1.4088156655116317
Ni 1.8872924028548521 6.657793221623645 0.3286591565622179 0.678156998034245 -1.4406022138946093 -0.5585986441519218
Ni 2.765937040245567 1.5511126507846238 0.487997761306419 -0.11313033886879226 -0.09366580238627739 0.19759236326861454
Ni 0.5124331409400565 8.903799131515614 4.602979712070524 1.200803392461274 0.35135718782931746 0.6994493317541179
Ni 8.670712212662684 2.35453324821966 1.5135793000155373 -0.16799742322031713 0.12768663941641237 -0.036706611392414205
Ni 7.045822311968409 0.5695108167434266 4.84419216551946 -1.0764671575743332 0.47752919037341635 0.29819757308720257
Ni 0.8932463659302549 7.30330572797249 2.2987441198010337 -1.1578556852551543 0.21311925525962006 1.1391323978140382
Ni 7.711553709210499 3.8137295188925546 3.7928414876030225 -0.325787052669697 0.44503198907665936 -0.8543806658190963
Ni 7.77793424500983 3.7950207151098527 12.698735751954041 -0.3427547908722871 -0.626748818765598 -0.24168703959498378
Ni 7.97760031379951 8.635654681359863 7.213899528590621 -0.760911038604025 0.29618928440792214 -0.495009863656683
Ni 7.155715058402039 0.5311582211107765 0.4794047326767902 -0.7885051461722097 0.7876070598379725 0.0126462280091008
Ni 1.7956111261256025 6.344400412778361 9.320967477631166 0.1618236903094374 0.5093712745846776 0.10968480352235303
Ni 0.12276917784328067 4.814853976117345 1.4873354328243642 -0.2660978643391805 0.495739799844172 -0.0010114719836498709
Ni 6.146099752094621 2.033906489144235 6.883631722345974 1.643841491036356 -0.28689217537671236 -0.029024926477440337
Ni 3.3088630898932254 4.453391567992774 0.5169878168537091 0.5839805745601363 0.3091417308035321 -0.31601480377428154
Ni 6.058641293812216 5.624143115676583 4.687284168052587 -0.0928636181999562 -0.3005174794696308 0.26545688832107184
Ni 5.353683801447186 2.9790853837766726 8.999554026468212 -0.08076015006820285 0.06318640285049763 1.08281906793429
P 0.14580569235116472 5.577022972365002 12.545810044088862 0.7003155364091551 0.07608819851383025 -0.22922078880717295
P 4.214038239752983 6.225736501690685 12.557841007565363 -1.2929974953980312 -0.31781843264192355 -0.3086290528331717
P 2.3834600067024363 8.519757756235215 1.3907757609086633 1.4709666851190795 0.3919412798992669 -0.047684193449840456
P 6.400445442186378 7.857715673610498 5.85509782769918 -0.9080550154141006 -0.7107372459631115 0.050870561597622065
P 4.760861580087131 1.2145350314517378 12.595479250612787 -0.691987219049118 -0.6232307783100105 -0.019279417054902284
P 3.950803833315939 6.170713267752675 8.094246857016755 0.15658789583179483 -0.6144052095985806 1.0865641367990189
P 4.62439310899552 1.1191463552295409 3.6553485083100683 0.2075929261247522 -0.49950620886513974 -0.15436620559012768
P 0.39021464755804536 5.700524587669084 3.638845155103781 -0.966947933095567 -0.7951735593313208 -0.6172568201147628
Ni 1.4070756592647284 0.9734545975945008 2.590260558906593 -0.7093041130610107 1.3008794692492693 -0.22673736026368696
Ni 2.0368543238630177 6.470117425340424 4.741730494459743 0.3008987740684495 0.7014694475079403 1.3181536829486846
Ni 6.019984872269899 5.5775383913189 9.276684851297357 -0.4328292763628804 -0.4235007998731029 -0.1210274822286819
Ni 8.63282439833232 2.1475156775085997 10.136902808964345 -0.12253543423277607 0.10324341877238348 -0.14569438884774263
Ni 2.2539813400207 5.103850287811478 7.171324114511124 -0.2192287105914676 0.24472145554593333 -0.6388124347983515
Ni 0.49589180949506034 8.898391753718585 9.213238586560127 0.14450396808406726 1.1705034559261518 0.0038849368767029865
Ni 1.6064523700452027 1.1803998288032598 11.432773664072453 -0.5409408218608426 0.2415353445084679 -0.41380362718999697
Ni 4.179143472330341 6.7380810267404225 1.5109190148184026 0.012855258696113344 0.9320457219017432 0.24120624330382331
Ni 5.699909701899522 7.6551108125398235 7.990858336083801 -0.7970615203826531 0.8578220874004774 0.32086364722615063
Ni 5.250301610220682 2.930735468925967 4.606102970082387 0.21896748651028095 -0.172222002824626 0.20949579957441986
Ni 0.8855304537660307 7.461892001892758 7.221589217685261 0.6154207953472884 -0.7792316912900837 -1.1506823074351669
Ni 5.132343009280446 4.5246911899486015 7.05370912620682 0.19910494325839906 0.2658993751751292 0.2551693903521347
Ni 8.203389985357786 7.011452005937452 9.322728040268426 0.5648896193669561 -0.689048191025452 -0.7822360253340463
Ni 4.4699753988953725 0.663827964087784 10.308779657944939 -0.6321108544084598 -0.9534002763181195 1.1110513233071058
Ni 8.077483081602182 7.167135657327873 4.6386204806106495 -0.03302402033450441 -0.5946264843097565 0.8157938066848337
Ni 7.2342667154635825 6.106502917022386 6.87746477977478 0.29064392910966075 -0.7764209613141662 0.6718020023504946
Ni 2.3792733580067424 5.2931718077720555 2.5600995076657984 0.19309524672920939 -0.2518845489532759 0.4194214875974067
Ni 2.466288736837551 5.26120679019262 11.416403234701644 -0.029564343920678117 0.4927753178992094 0.34236578296398457
Ni 1.1119485747505504 3.5588231976579605 3.8939540269448183 0.2065346600635669 -0.4779351675625833 -0.6595738357154189
Ni 3.4434778612383625 2.7605658321996875 2.684503558261091 0.08648908213218008 -0.004737000464353132 -0.42071423826690124
Ni 0.911803256758124 3.2966286715664994 8.185101654932211 0.12682017765105902 -0.21199002675118328 -0.19752551458642112
Ni 3.665885661064048 2.508969043195383 6.9048868766096865 -0.6166477257758541 0.8008045323648532 -0.18202047697228652
Ni 4.3257304313063605 6.881810575375536 6.008367148200294 -0.4614839639850955 0.4223587158488597 -0.11145038006320805
Ni 0.7986127332633288 7.514473777628094 11.60960034349802 -0.7625259484996286 -0.7231366480687288 -0.9867006902424621
P 0.20797606911655414 5.522090162804869 7.9478859589854265 -0.708969098319095 -0.3142091180241105 0.8533792211377754
P 8.523157712843382 1.5951493228106073 7.751869418086853 -1.4891731808247772 0.18178804924650627 1.91658102906177
P 1.7061181193409705 3.214604718394488 10.443969528333371 1.158936834134475 -0.7056588029989395 -1.382525107246219
P 4.0276555120734 6.121676127630106 3.91135710271098 0.04912735365427023 -0.19209868714389497 -1.0809190226980996
P 6.936978488318149 3.87865422220807 10.461016332050699 -0.028771929926369802 0.2280733054662911 -0.48470128264182333
P 6.393509892403231 7.6541071019453915 10.200018120478546 -0.8154114836447505 0.9512824586441679 0.33753699411677357
P 2.437569954423891 8.49230491511183 5.837258002187873 0.5519022059683528 -1.2615405624403306 -0.404929978849451
P 6.961592003976205 4.051536590270653 1.6585241522893153 0.49987439083783597 -1.1784929018895316 0.9674454415572756
Ni 5.300704158449191 3.031558650258557 0.5268766268183118 -0.29627850168761877 -0.2481294527862178 -0.6645000693724427
Ni 1.3048237727616854 0.8832038345232616 6.797276441473667 -0.2322192093138646 1.666302905363666 0.6005099396737271
Ni 6.705076128815404 0.6924653645613547 9.093334053007982 0.2840397935295818 -0.09395222327844464 0.09309964547016225
Ni 2.567708719064128 1.4948867726208528 8.879623269846483 -0.8057032552180512 0.5746495269671975 1.2762765830989244
Ni 6.346679107100855 2.0010372277860315 2.432571294814864 0.6942083950701529 -0.03193695791791274 1.2438994523197997
Ni 4.23810016670599 6.982706096210428 10.231000225070462 -0.5210379122893285 0.4235563357013867 0.5790970212155898
Ni 8.032713972115397 7.251763832582736 0.2940772574870288 0.6171781443580274 -0.6565633310238693 0.07338391220878974
Ni 7.538960699157122 3.918187760215791 8.27111241892481 0.5214636869728374 -0.2584102658869356 -0.7133363741488554
Ni 3.0223624910284905 8.52943316466803 12.440146445808526 1.6563632776524506 -0.47865636199932404 -0.27139767928553904
Ni 0.04582074500149195 4.603441780641474 10.419935632937506 -0.06544151743326149 0.7637251110140525 -0.18169806063586127
Ni 8.63523872922163 2.4789300648647226 5.6666778387860335 0.2211441824466256 -0.08669862703982488 1.5694939293627164
Ni 3.494820822996788 2.9082830958991672 11.818348636801641 0.22123031440252866 -0.6229703255597723 -0.9498938058267576
Ni 1.2158281000553754 3.4487496024685775 12.560685758493367 -1.3018559742299256 0.14326546769127585 0.5544445127742322
Ni 3.066887454695009 8.276434797806635 8.082468177554528 0.7859317290180787 -0.032996252420362526 -0.0924841233733504
Ni 5.396101877109175 7.939142825888522 3.512772774736662 0.606792173138013 0.09556327651930639 0.7486877570649558
Ni 3.0260789329592255 8.575242154500398 3.6968252661983607 0.4830305798076197 -1.151984314076042 -0.6505757459818666
Ni 3.2811932302629363 4.210466476826851 9.20112895387487 0.3140754206597236 -0.0586409495716603 0.2230311150566933
Ni 7.302365314442572 6.0261608572788825 11.436148301854814 -0.20325110421628864 -0.14662101442707007 0.25130733629356716
Ni 0.5343185531175694 9.012995610239592 13.49987403809147 0.5378079326588157 0.6502872682071703 0.4194793374185356
Ni 4.846439211309699 0.3918323396782606 1.4107731120761093 -1.3493231665729535 -0.2497037392518732 0.32407495507459666
Ni 6.187496032286602 5.481489617138202 0.4192580534882827 -0.9972342427839341 1.5680553971439768 -0.5750447055230871
Ni 7.88786316119461 8.957936206550432 11.312525517884376 -0.19200946986419834 -0.39448487225672707 -0.3310598710328621
Ni 0.10567264071812116 5.09652591320346 5.735536906782968 -0.17368238942023634 -0.9316482293530084 0.18689837388987812
Ni 8.01008979277063 8.646279545760382 2.7650490728548176 -0.6257527734009158 1.0008612980135603 -1.3071380485644715
P 8.500533533498615 1.6334078770902654 3.721375484791902 0.5471356378176447 -0.10159251343252182 -2.201207291222441
P 1.6989745934887062 3.2473925978126026 1.4516946642842383 0.43845253608692875 -0.28264239896142296 1.3332920812520201
P 4.587644641826403 1.0644396066140995 8.205297939730986 0.8806707098638769 -0.7433028386039585 -0.5341968182687896
P 8.569445951878496 1.6262824361135766 12.483422648816568 0.3665634632561106 0.8275239506375683 -0.5886281006344766
P 6.247022400242876 7.792637248852592 1.468700777031521 0.8591732021117332 -0.5858024582602234 0.6350534819765514
P 1.706208543718847 3.152211897659522 5.996574905081384 0.7268035553973548 0.5549808448936765 0.38165969546760076
P 6.870860183214661 3.7991531091788207 5.836304929245053 -0.3078626069807924 1.6912958278635772 0.48352294606300605
P 2.280801210498948 8.381770155595277 10.31175733270842 1.1293449794099713 0.20435513591374482 -0.7010562712299216
