# total energy = -381166.1651227543 ev
CRYSTAL
PRIMVEC
9.26785048310162 0.00000000000000 0.00000000000000
0.00000000000000 9.26785048310162 0.00000000000000
0.00000000000000 0.00000000000000 13.56443599069743
PRIMCOORD
 96 1
Ni 1.865581202999656 2.0516240308204527 9.971610121404085 1.2749655775969848 -0.40229099856470724 -0.9509549001014204
Ni 0.5956326934525474 3.47142163223695 3.809463693207121 0.799684559827797 -0.3589370570591044 0.2633249295797336
Ni 3.594721113223693 1.138675896908765 11.448546800551156 -0.8638844915444736 0.27565208368651883 0.09453432103415976
Ni 8.654290848389783 6.335094710265643 8.19837192566959 1.4431506913480758 0.5478344636568823 -1.1967999277288355
Ni 4.591969613871356 8.710416950077676 13.13912318549063 0.5029694848233919 -0.2130904589042137 -0.5199066268983626
Ni 9.02000022299418 3.2225242433779626 13.209047262771808 -0.07414521585484649 -0.935178353993454 0.17943960361898773
Ni 8.999166095419149 8.092603510395003 12.031843985194824 1.3524953936533484 1.312960054562887 -0.26389185782679714
Ni 2.2704472453106805 8.423354553498948 12.26090724753098 1.2423807016824282 -0.34650525905365487 -2.258674789311291
Ni 0.013286390254253967 0.3220170209390393 4.869605679864423 -0.10930068071005691 0.7341455975847229 -0.6680075683050689
Ni 2.3277040247406338 4.8684573932067075 11.568143775325165 -0.3831229102766886 0.26673446948191476 0.8656492967543802
Ni 7.023964758541622 3.2632471777928562 7.864809016771044 1.3732768491750738 -0.7245330141956232 -0.15787087630927651
Ni 5.763852218565411 7.372500806457169 1.1359020293005768 -0.785880306954853 0.4863660719387559 0.5969039674900236
Ni 0.04783322919939703 5.65995034835026 4.168595674421837 -0.38810493687231223 1.7322272759706168 -0.014930396057587189
Ni 1.9926156276753388 7.324548948773359 8.06869616364565 -1.8731790079270512 -1.2141291630359023 -0.12610926762696345
Ni 4.813174665900188 7.047838741029735 3.4538720308241047 0.21791359132446986 -1.2142466624503732 -1.1072931418162542
Ni 5.625066159652568 2.417750458690363 9.73972572542298 -0.3363491444562594 0.5005773304421315 1.2658934400923876
Ni 7.706671686338332 1.0466368751349115 12.307704331061833 0.0954498908698937 0.5034040012576492 0.11706926891188224
Ni 0.2074367335566504 5.147336277931007 0.6837004413536693 -0.5695970521449545 0.43611514620300373 0.1629873716002354
Ni 6.785224933660496 3.483145462923077 0.3707733280327748 0.661709394001183 0.1263049285775373 -1.6116751907164566
Ni 3.3792157891568912 7.932427252886443 1.703082422194698 1.4646528270859098 -0.282684565053268 -0.1355210478591666
Ni 5.849366673696551 8.49753442765844 5.217818279802938 0.17515074643564676 1.4770131484234756 1.796485057508422
Ni 0.2007592473832478 9.065560975289038 7.492384157806832 -0.09046375050921195 -1.8459204293214146 -0.6106385434672967
Ni 1.8189917193165261 0.15460071874114964 2.9560707656108884 -0.11054252353695801 1.8682386332026408 -0.6602266388080694
Ni 7.675457566377165 5.151877524599941 6.056561516359203 1.2865576533099585 -0.23856134948180852 -0.20115256981604712
P 6.339765706839404 8.157941855325591 7.403970719087851 0.2064207601935219 -1.7754955997409487 -0.5100875839254118
Ni 6.332369962264282 2.513070299486263 2.354596546086036 1.8081388396972669 -1.2948751720367184 1.6322000501426857
P 0.2370920010898269 4.592414470687904 7.2179482805378115 -1.8077621730841382 0.3688723138949454 -0.30874552380637793
Ni 7.853261275241467 6.7442424994359484 0.5279903609262514 0.7376345845745876 0.2049763144375115 0.8030527049690814
P 7.820805263334103 2.1613831824534953 9.77625495755687 0.8623551993841406 -0.2871706258490796 0.49779873925572976
P 6.96898787029648 6.657995884127572 3.3711555397120496 0.9261221573284566 -1.1335767581031315 -0.005081528287965442
P 3.168270247459713 2.1040985994725077 2.6000314660562194 0.26674423967392774 -0.13917329989977323 0.06265392738579531
Ni 1.0984904978138672 4.597975180894763 9.437361181140014 -0.7399341792420417 1.2703404201201478 -0.9751788056457914
Ni 7.247690665864229 0.04065342553730819 1.0448917389149923 1.2404919693001475 0.06649129885401453 -0.9419352131013133
Ni 4.75670565374954 3.482904498814113 11.884290539855831 -0.04577309247005665 -0.12412000511107656 0.6814845197455812
Ni 1.8819482267085095 2.2524027406894245 5.364924087970277 0.17591179297138734 -0.7385193011723862 0.47553247165836166
Ni 2.9948038925567615 1.0046164416717505 0.20138482728151938 -0.09584326965357041 1.0501868837215658 1.681815399176968
Ni 1.89529393120497 4.762025399847435 5.649899364651363 -2.5517340127306634 0.4997859448890877 -0.7339954451601036
Ni 5.758328579759931 5.721822517251906 12.675463754162491 -0.4927542348532869 0.16548288432857952 0.7809507308637195
Ni 4.010208112029817 9.099518378952254 4.19400163257194 0.2396638385173679 2.2900095948688306 -0.9045781126090937
Ni 8.803558846042556 2.496564258022237 6.017726443059537 0.020104226949042795 1.2966713447051927 -0.6805316689140086
Ni 1.0382123991715209 1.3412154983432418 12.386852699791154 1.567314148102578 0.992396969296291 -2.8947687967372144
Ni 9.011001140309412 8.127367217038215 2.502936831919297 -0.7236351849717021 -0.0069476349624267445 0.34411336178271057
Ni 7.365549918698595 6.946179690598016 9.995442398565645 0.029156309848982046 0.6130767205951441 1.0541623234295459
Ni 7.335624029935352 0.6148486543573816 6.6061923078404785 0.742735653246579 1.2098143377106325 -0.9037797850775144
Ni 8.349119072237388 5.723805837225685 12.012704947447851 -0.7442109522405248 -0.861096130166059 -0.5401383805642053
Ni 4.556547889853667 3.179475078526533 1.1713932621958516 -2.111481704430835 -0.5679011524997704 -0.8429575115838193
Ni 0.7433168154813996 6.792379714126653 10.269199869189428 -0.3548464319294986 0.10086720523072304 0.18393414905523164
Ni 0.3440031423119234 3.1608003600818333 10.98662323759259 -1.919859956923358 0.6184765514544767 0.5052760214693814
Ni 8.506162796329416 9.070315382515902 9.725659908954732 0.04459732699440062 0.3062800929850209 1.164539267922917
Ni 6.586281258159787 8.81788694267556 3.1774417121608916 1.7361201832671194 -0.34937435307133374 0.4319358180143335
Ni 4.890959733843794 0.673059095587811 6.996345637729189 1.6131006103090737 -0.8276759028344004 -0.18299235396725258
Ni 5.589700042736947 6.393667524444552 5.549509082931842 0.6067376657509937 -2.5150783091808426 1.0230663733556897
Ni 3.713275454833917 2.145043962295676 8.25885577058959 0.40106303969487705 1.8325838601135083 -0.7192018317906969
Ni 4.210022965462934 7.940054693720184 8.23985204345765 2.4010241729462005 -1.3110762072766131 1.0840069175948042
Ni 6.383102175051522 5.819338838579514 7.924411489123257 -1.0720217202084699 0.8044835238783371 0.42027098008189556
Ni 3.2555085227549783 4.015768822236676 9.736199308366798 2.2679657276949134 -1.0576001454665012 -0.8768248537552253
P 5.866011732915747 1.4726984911844117 0.21560263649542213 -0.44597841215032874 -0.11342267329823047 -0.9190716782395784
Ni 4.891895786728616 3.754572995970186 3.774765788301359 -0.9581884417353819 0.7261504951943881 -0.03478445466903687
P 7.320220862662354 1.4293527551219494 4.106144264873644 0.3952099233482097 0.529764493529049 1.0329250113173243
Ni 1.4628653019686169 8.116338475127945 0.6783000649577753 -1.383010788633386 0.7347747465282893 1.2920994090637943
P 3.663090045217019 0.4298447525602329 9.401863460749498 0.7305753637349611 -0.6804792184095183 1.8605209528434086
P 8.887868480628875 3.6713662355748933 1.908434816208811 -1.5012599367859822 0.02716344778866935 0.5269383369341635
P 0.18263596603406138 0.3976741904434874 0.2818853753761413 -3.2684909825252935 -0.5596129443490492 2.63876328363703
Ni 4.963832841104675 0.518986644316313 2.1136240960568564 -1.91304987598006 0.9893124168336961 -1.8748643660492743
Ni 1.491743923642902 9.013281031494223 9.754810078644118 1.1892750801067002 -0.1831507339219878 0.21627425594883395
Ni 1.1079807765669059 6.417346882075425 12.811731738136663 1.7210306359238488 0.11316196343767608 -1.2304942346574874
Ni 3.6496609300674554 5.451117876531688 7.543155295565519 0.3803399482149127 -0.1437182389579783 -0.39996980663069825
Ni 3.4110415872408115 7.528413852807137 6.016844143706716 0.9093637069231952 -0.5002361450526288 0.057041209184708216
Ni 7.937960159542267 4.578586837973517 9.756789691477762 0.9778095584004193 0.2747210872318172 -0.8037762133986672
Ni 3.1506798675053505 6.286197531846667 9.767438451523894 -0.3451644287550443 0.3849134265182081 0.7425129957128115
Ni 4.255592985608139 2.0370827736295176 5.394331903899249 -0.2523463190810429 0.5910840183741369 -0.6172203104498726
Ni 1.7989453590208013 3.320457617971086 1.1287657845351085 1.2037221087699657 -0.42371163033232834 0.3422338853718106
Ni 2.524636576716528 7.433687154433302 3.818104110083545 -1.3888335659627502 -1.957345869683958 0.29264604714135406
Ni 6.551684372822782 0.44606441744860476 8.862962059612356 -0.9977299514734301 -0.1440617383403261 -0.01678004767181626
Ni 7.245911238598035 3.5032196267698366 11.617396839197381 -0.7972003599533626 -0.6339671908909081 0.09246381165837624
Ni 1.0584626521748306 7.467255308382038 5.715537987933121 0.18105271374237852 -0.33528573618875157 0.557117431620705
Ni 2.734469976372335 0.15824020357153853 7.466353546543493 -3.2539920175781707 1.237117653511276 -1.6851282656002848
Ni 0.5624982748999464 1.8687137364161863 7.9834977422112665 -1.399891880659441 -0.16885848566903178 1.4590899882861517
Ni 9.031473821720997 1.673180629842351 2.438275040063877 -0.4705617579166476 -2.1620632740331285 -0.11177922415753652
Ni 7.462797472366207 4.107659558405013 3.729649892823046 0.18588664479591213 0.7642241621376581 -0.5403435545964759
Ni 3.8320985641041387 5.456780533092339 1.1034450906081783 -1.1807793839308633 0.45716322512255453 0.4713153482532206
Ni 2.5449053654205276 5.07349931423427 3.1826233672886493 1.5090190119061109 -1.741822890078852 1.6714170866617795
Ni 1.9057387985435192 3.5012733781974354 7.562742897269178 2.309729441895261 -0.3301121624076121 0.20230519536325156
Ni 6.512129187551329 3.0933211417216047 5.634219088653056 -1.0011472046850953 -1.4003958168790527 -0.9761650808184608
Ni 6.8882741616439285 7.936412428534692 12.390040840309753 -2.171616207828886 0.1679943378965236 -0.38144372280205274
Ni 5.946827387922091 5.1248802765456425 1.668235304898385 1.6027346936937172 0.21214634982338948 1.8827234570823768
Ni 5.730061636208401 5.152442863470972 10.366349183643385 -0.6354196070667185 -0.9686032093108028 -0.9745247170015603
Ni 5.680339619108741 0.4202237971173332 11.133010787358211 0.7356193539167718 -0.7863986413521682 -0.07077835626514262
P 3.424229738281411 6.36428843885165 12.845330475991537 0.3725623611520229 1.3473411031459182 -1.1584814917646113
Ni 8.106635035816975 7.713057235225875 5.612474858174171 -1.5635832203052362 -1.0969897030077174 0.28081228773121963
P 2.7195116659158853 2.9473617666419134 12.452789747854014 -0.5423762687557884 -0.640511162657013 0.72581830866595
Ni 1.3017344558745463 6.41599377592509 2.1334684172150653 -0.6251629623357169 0.32811955745761556 -0.6648595095943904
P 2.21286609111866 0.05575909481423938 5.2133141045353835 -1.0047233520721277 0.0937953859856062 0.6544966783028275
P 5.154426183444752 4.024434262309031 8.426132128247273 -1.3629998927290976 1.0393214017619714 -0.022242099227652013
P 3.796713911487829 5.169115726241202 5.258294689398662 2.4378930209480916 0.4915751269435212 -1.2570539874238866
Ni 5.063100786147444 7.31097154801828 10.525771964918915 0.08235192003535495 1.2682922793418674 1.0756161224279475
