# total energy = -340889.3866237194 ev
CRYSTAL
PRIMVEC
9.07826608119367 0.00000000000000 0.00000000000000

0.00000000000000 9.07826608119367 0.00000000000000

0.00000000000000 0.00000000000000 13.28696005502961

PRIMCOORD
 96 1
Ni 6.845566534089613 2.1980933746732902 11.335371996413187 0.10797990501610435 0.225933633415469 0.6766827274815636
Ni 4.9318316934703175 0.46584941746556535 5.836802296879507 -0.4561828634871562 -0.23243543908972872 -1.1443345108402678
Ni 3.2210778081526614 1.9624669739016072 4.651870671592544 -0.4270586924276903 -1.526518968463087 -0.6987867584694546
Ni 3.676134982688642 4.720734768132466 4.631316568953855 0.25183415533131465 -0.20347041931594637 0.5725761893779364
Ni 3.816339726804144 2.848841656704335 2.4065212897307764 -0.07731152939797008 -0.2973262262258428 0.7463238848184695
Ni 5.250297273862174 4.741333354275827 2.5305812451299485 -0.2718663913918415 0.19794897527708488 -0.14947828137020708
Ni 5.399680145166278 2.9197429161929436 0.7230857232419453 1.1916350956984447 0.1717419778644139 -0.8710013050949129
Ni 6.013343709526265 8.135697108794503 12.679254985642027 -1.893632390685397 -1.2244166610048397 -1.19708454884879
Ni 2.187998342592454 6.633244042806696 13.484537147252956 0.3277819716125387 0.18282394671018834 -0.20038046753671296
Ni 0.8405857234418255 0.006646198728759352 13.319513331009937 0.6042174704323015 -0.3421253848184043 0.5679032093822994
Ni 8.27926988969237 8.76848858016377 6.836832334121112 -0.35905507069420745 0.7425613324522438 -0.20511104024316287
Ni 8.9028015294767 2.5799070970256475 1.3000240692747589 0.155176617306565 0.6196037230803845 0.2828239188446097
Ni 7.262549459932223 1.1165087324872647 4.809281453750141 -0.04290836932775191 -0.7720595990216769 -0.241605535624771
Ni 0.8588185133978974 7.585027634010887 2.1057574207187972 -0.29413240187889345 -0.6246798520517113 0.9265628444103011
Ni 8.114063600297529 4.05293750206562 3.8074185145506925 -0.2746035878173464 -0.06527928082378434 -0.23875726754269846
Ni 7.72307175075657 4.3756335545345175 12.465693311014656 0.9253240869071936 -1.6627488694638202 0.8479487941508236
Ni 8.226162032072862 7.69529225600175 9.070356366352936 0.9139114741948776 -1.8840599165056133 -0.4571066608530063
Ni 6.893953693254055 0.9029343482871285 0.42502990105524774 1.1586848660246691 0.854595867153696 -0.6220429286494965
Ni 2.3306814533968665 6.214027863464189 9.126813196395663 -0.12062690435615354 1.6413336370128377 -0.6498581510895518
Ni 0.10563742967827135 5.19987658305555 1.3566515707231706 1.4219933405441703 -0.8739845560929529 -0.4496972557628126
Ni 6.376401733785989 2.329092756801411 6.795814911506333 1.432144055824927 -0.1350615917242448 -0.07696700157435776
Ni 3.7866356396022582 4.495602843157048 0.10543316868742708 -0.7550008437671771 0.024656879316731727 0.46048431907598764
Ni 6.295632398873037 5.70762401496309 4.597540879334474 -0.5483710528866427 0.7998126007652291 0.6521034954803028
Ni 5.650984711768541 2.6046635291159723 9.216141520738304 -0.4710592663783565 1.5943379849895898 0.17108686077891827
P 0.5125316782264264 5.830216922534688 12.284711718340256 -0.7546249484849972 -0.34527575752192796 0.3433978237729247
P 4.2754004167606725 6.4806474652466415 12.566328615983807 -0.29105042051946 -0.33892770381671306 -1.0291074373434468
P 2.594232601183525 8.518681927494367 1.4167351681366673 0.39436351618751436 1.1460293820441876 -1.0420328871558635
P 6.528553476299316 7.975610961570157 5.766434839446971 0.8726002741509165 -0.4252278098665387 -0.5019924656221032
P 5.091808901499545 1.4391503153586038 12.34330738791378 -1.2107021396322246 -0.559468705461701 0.5195495006692601
P 4.24806575705258 6.218666857522919 7.909873419930092 -0.2778112961213667 -0.2116652964219129 1.1211447029873658
P 5.0711467674923645 1.1907598722257196 3.582722346355743 0.22842580370970336 0.5126180636567494 -0.2237047440849502
P 0.3003045087392364 5.9842024748324825 3.4654783532643876 0.08177727847880754 -0.3127507883110291 1.0421262182006181
Ni 0.8897254708791995 -0.14370713923851222 4.437100679725999 -0.4821368643487568 1.3802846479514745 -1.273088672289246
Ni 2.131395352462943 6.791441910649013 4.622360859288616 -0.45976955239715006 0.06841628379086927 -1.629181575031336
Ni 6.068094733338787 5.810852980602651 9.199691702275645 0.07902157011054133 0.4631798636302797 -0.5456788507664603
Ni 8.92551535165858 2.8833935380889244 10.015392082246258 0.027639358983823366 -1.7418961665189485 -0.1318050324601601
Ni 2.4487624626373705 5.9126203453743935 6.6599159890778274 2.040825218455537 -2.3930146723781625 1.4346362261191616
Ni 0.8377306087031358 0.40430149570437185 9.168826504819137 0.48304780619880033 -0.30081007100938517 0.260492602337261
Ni 1.4385874628504995 1.4481741120207903 11.412116935893195 0.6580247460607441 0.052612741099709384 -0.9862031817807532
Ni 4.452326747896843 7.3740668826669316 1.2845129435433587 -0.6883100273078469 -2.4278546628754833 0.8084083128540399
Ni 5.707723875891947 7.949665276599807 7.7184354801777175 0.287009417680867 0.6634806269689929 2.0181424321460404
Ni 5.411672534895402 3.2098479927893564 4.423255415853262 1.2021442227598846 -0.6985599871706293 0.7851447143404091
Ni 1.346134399261256 7.777750148439014 7.11571213448735 -2.582724290464591 1.4667901851438867 0.6267750440178432
Ni 5.194039257850534 4.475648813918128 6.979813212058845 0.3603143970226053 1.0464420719671526 -0.005801180062809364
Ni 0.8512926306685688 7.510776494272432 10.989245846554514 0.5426241231005364 0.8573639168171362 -0.017947585617356186
Ni 4.678330186433197 0.5833902698636144 10.043254189224042 0.13236784694216558 -0.9819197239140508 0.8052260584713166
Ni 8.10410474221059 7.7305340856220806 4.315764204204751 0.01349546338327353 -1.4062751584779651 -0.10347147562278954
Ni 7.41968517062215 6.288959873172124 6.991758394803418 0.2386166281997761 -0.5023876441779929 -0.38289279654375347
Ni 2.734210388642534 5.294381334819495 2.414054435073113 -0.6523963441303732 0.7855761454508728 -0.6812883445743751
Ni 2.696898714314982 5.285039798838218 11.239386579422277 -0.4692281267068887 0.7980660503877676 1.4317349933119665
Ni 1.5147813515685398 3.606504680476397 3.7303404026989537 -1.3732567945704157 -0.1579184417177603 -2.4327266462558037
Ni 1.755092137730251 1.3708635965528015 2.180257304952769 0.06833760803413391 -0.6235169420918616 1.0548776043290156
Ni 1.4813097838688598 3.883228392605946 7.79290812961291 -0.41118033063453696 -0.10980821647409474 0.38275190009051496
Ni 3.7659735055950785 2.6901354059514717 6.806138715896915 0.3523077246680449 0.39476872204573304 0.21120301207351366
Ni 4.457256246475885 6.970374538628588 5.875175220532823 0.11072455764077707 0.5449537996749776 -1.1416448798232466
Ni 8.349935114258226 7.279598443968024 0.22089419028536852 -0.4727500238172181 0.022326945631974453 -0.05478069528530566
P 0.4620347299832205 6.123644644582167 7.982845431952548 -1.4826310088308854 -2.0262141534105815 0.042859261257371356
P 8.650135222935475 1.611555669897422 7.89414169232858 0.10947731549723726 1.4108468370090477 -0.7946202579310121
P 1.9694663171878706 3.4877609577989315 10.24427333118695 -1.3658319628612543 -0.6540973859818799 -0.8922388743174505
P 4.188439704258575 6.490161488286854 3.579308010415453 0.7725969595823855 -0.05414948945920998 -0.26019666836339705
P 7.017272862126431 4.065619840030483 10.124437493078437 0.9526261171562562 0.6651628997674222 0.7303851021010259
P 6.453358196869847 8.032359203959825 10.160511799714785 -1.4649526177145158 -1.5063754036356765 0.6337738439331795
P 2.4491528280865396 8.80016265114402 5.6929707853932365 3.018716280826169 0.6125622428525709 -0.5176826226638503
P 7.209886437359442 4.09672198023637 1.534856121748714 -0.41420806171726726 -0.6638742628629857 -0.33394387744887644
Ni 2.9912887325859945 2.074474623014342 0.14409024207467347 0.3179459593587234 -0.5076581485483128 -0.5762649510834335
Ni 1.582822957185329 1.4753635194687267 6.7479025456672765 0.024792376453331495 -0.946959148678466 0.42632541380609157
Ni 7.33247026666478 0.7296683741068865 9.409227165816821 -0.625255264939207 1.7873856663103151 -1.6404527770697814
Ni 2.9177003062845013 1.9152509110846732 8.857313968555621 -0.4748362169222854 -0.48843863819706845 0.9997228135337428
Ni 6.933208116561192 2.1165796219270394 2.629024148797372 -1.104349485806898 0.6094815470447181 -0.0723385016634109
Ni 4.253921238790116 7.085169215483064 10.350675150884292 1.3247063964655381 0.3396584113351505 0.4511558425862101
Ni 7.344099525743513 6.2855827581235 11.364523217199856 0.3650215726902875 1.6628393722950974 -1.0937927933369742
Ni 7.8707932993351415 4.118192079940667 8.140043782679667 0.31600426225132033 -0.2646783582838345 -0.971388485365424
Ni 3.246251840490934 9.019965633824969 12.337859520331307 0.7412084179687751 -0.835401296503116 -0.5523074118265714
Ni 0.3443912931764363 5.1563281398075524 10.11406103474355 -0.4812459771033712 0.5203619692682264 -0.03605329407913146
Ni 8.926740917603647 2.750841772430387 5.856612889511523 -0.6447483406668122 0.5653665590033747 -0.06469049819984989
Ni 3.736596235978544 3.0556082490362884 11.216679112026776 1.3886654158160021 -1.8393756862243613 1.0848592382927704
Ni 1.0628561788921713 3.652150203230395 12.628618232098422 0.25370437577083405 -0.0030791531459559876 -0.4947612379809866
Ni 3.326349383700665 8.653185520398749 7.673046872358871 1.2517333465419216 0.6487083537558248 1.5441245973599922
Ni 5.819985716459955 8.129941487985823 3.697627778058588 -0.33141391193817116 0.11402791098239716 -0.8745990497485002
Ni 3.4273723306391077 8.520234311024783 3.5819116571787477 -0.1446456358682541 1.4250025596841394 -0.2804320215736654
Ni 3.7250849943611866 4.300628918696503 9.182033566573816 1.2243904357525945 0.321482254646756 -1.1494553770066012
Ni 5.43415940042079 4.72666287600008 11.441986247541008 -0.7230106640138257 0.1395779915373596 -0.10078441570892964
Ni 8.254577005465864 0.18964316651282218 2.2779430812141297 0.3880522292575059 -0.19041667145578173 0.29406478186575163
Ni 4.685293216654421 0.5045019517196818 1.317010413273368 -0.3614343695596614 2.00866740277607 0.7993747418968621
Ni 6.053306237601663 5.637349155846404 13.64743574136457 0.15319506810016198 0.8425875298389102 -0.02849476500558318
Ni 7.877801720887665 -0.06033415756226561 11.510932048477269 1.6597823306363286 -0.6556855564046064 0.8420825651780335
Ni 0.5006654763983136 5.354424987861449 5.689370344994622 -1.927721876169938 -0.9401295273511422 -0.6093661045127763
Ni 7.277110999012854 6.078389487277338 2.485232581682644 0.586637295456693 0.9487334669700692 0.3849170260626339
P 9.209810337848756 1.7879191485254893 3.721105990259541 -1.5284238987952838 0.30162511071151277 -0.2854891243815986
P 2.0194694077465467 3.522258369585963 1.3738984609634344 -0.6353838687327766 0.28332374129916366 -0.28222536602866233
P 4.974544936222418 1.1412560863113295 7.870623535756084 -0.9114522140211077 -0.7451550613213489 0.8667214467726363
P 8.758811148330883 1.6567563576046926 12.628498398983792 -0.7557469779045823 1.180575238339857 -0.7532946597093478
P 6.557231719413851 7.844566188110738 1.4952612634568359 0.9563601302773916 0.9925021274155875 -0.1457640657434135
P 2.153364756811526 3.6087288557100345 5.613594964351155 -0.8201459130059423 0.2726009555650208 3.8797962130423116
P 7.057852712307492 4.1821212309417914 5.862871446270991 1.0598904841625747 0.1266635974685367 0.18732903366939352
P 2.6956005222398383 8.549929319960409 10.029051241660671 -1.214668323368824 0.6651279327644287 0.27859753946808796
