# total energy = -381165.8100135146 ev
CRYSTAL
PRIMVEC
9.32577953182690 0.00000000000000 0.00000000000000
0.00000000000000 9.32577953182690 0.00000000000000
0.00000000000000 0.00000000000000 13.64922100906758
PRIMCOORD
 96 1
Ni 4.653078966980138 2.1005105688081827 12.091380280481236 0.5751701753573578 -0.32043144478473845 -1.4453777809063817
Ni 0.5744213805269117 8.87059740830869 6.4625235683317515 0.6221671129321865 0.9991908522896729 -0.07070687959725887
Ni 7.134622229441516 7.225800374378792 1.5073518323635071 0.9670327794998895 1.0558726212524332 -1.4244651991234305
Ni 7.234687842121989 2.850480420266803 10.994993163248953 -0.5670323767415718 -0.01172962973210238 0.06190496503491273
Ni 6.3817520605976545 6.576381076128082 3.5352434897661373 2.437617655799518 0.762988489958344 1.4818470794770093
Ni 6.758849275355122 1.7763464777761924 4.249589796594921 0.7413166614118653 1.9431284405329952 0.18000267521130936
Ni 0.7047631359443057 4.372046605551799 5.816506314396588 0.05898830560875002 0.1618560862092696 0.2946368523191377
Ni 2.577981146965458 1.8917343459677578 3.6423491332958644 1.4450363384065628 0.9322300699984075 -0.16348256606909908
Ni 4.330612167794172 1.1651722007372818 0.4144404331038253 0.2237217133658147 -0.7637605922376781 1.714086857616164
Ni 5.9291626618095785 4.1675322638851835 5.096714684991464 0.253438266593641 0.48633059071513024 -1.007191611106962
Ni 8.142477857922794 8.626625694111684 8.011491691150674 -1.139010013303561 -0.12067678375748249 -0.890824253358111
Ni 8.816209463000904 6.629780488822247 13.065306858444892 0.32301334657930175 -1.1501282347039095 0.41250367743165084
Ni 5.014070560759117 0.7175385211084231 3.101703860504846 -0.7366909897143957 -0.7233999290324444 -0.7855314082558665
Ni 8.497640839593172 6.448347451105694 9.045857712657748 0.19255942883039742 -0.7437710364896287 -0.3550917151710852
Ni 4.4386699733979595 5.681703106126786 3.491989592452689 -2.5843530843172653 -1.5349041072029888 0.8889553184701723
Ni 2.1805257558350664 5.011142266035756 9.102351418948128 0.41081934775069245 0.2873102367507374 -0.06557341502543546
Ni 4.35613682594016 9.027774093874086 8.308567190835696 -0.4653470464849276 1.1639165467372536 0.12455375021438547
Ni 7.54973132092644 7.541860363134983 11.047829298868942 0.5024781470092702 -0.5233542191273309 0.6792373755826173
Ni 6.413096005072871 8.917151698942513 9.555136659103052 0.22374459618395012 0.9185350890098181 -1.1418415692150852
Ni 4.879723383100692 7.643017092002188 2.0293390183614384 -1.6588091680897818 0.8997079290009861 0.030855551928275896
Ni 4.0047041560192875 5.600941856750001 0.9799379753479835 -2.1976607115217637 0.7324795227362094 0.067581960815032
Ni 1.6259123306980268 4.754235695847341 0.5283296485500271 -2.5117803551558615 1.8713972334362803 -2.968010526941185
Ni 6.915447762599345 8.859443776177669 4.375312493488491 0.6683976046546359 -1.085198366799744 -0.21509231982559085
Ni 9.235142124029071 4.193784332822325 10.426448888883385 -1.4186766174661116 0.44164610332356197 -0.20390930662557785
P 7.313630564520889 5.2494439063735125 10.835857131437129 0.7162782303859987 0.26229186032952895 0.33752362438033484
Ni 4.38156822629241 2.303607392009986 8.300828659111348 0.09864320099621075 -0.37818459243480673 -0.8379564588248021
P 4.668177403786259 8.299393421665725 4.4638001510764385 1.7731335272666753 -0.995158591201828 -0.46513261648127635
Ni 2.3370216595061777 3.3916740488849983 7.170617872668364 0.0313646303542105 0.7056387483942815 2.1689417463205163
P 5.554723294173634 1.627115356237242 9.958061619836156 0.2816964901083858 -0.027294831160211055 0.6233469921729006
P 6.055610904338426 9.030758343273689 0.688514830541399 -0.23211405119456802 0.5469672305605806 -0.5671473050528814
P 4.719469190341954 2.8795768519129425 3.4761012621336094 -0.24670583296581378 0.5512357760289474 0.23531301774783991
Ni 6.506698852647327 0.3626161445458887 11.790920455461476 -2.60886829584981 -0.2867389376282997 0.7704701430473698
Ni 2.2059758077460647 1.05789776060089 7.812854455645404 0.8421288450349368 -1.3396851292625571 0.10678279938420965
Ni 7.7250839504913 2.9095219294820946 6.2251227982814985 0.4872047657899674 0.5930660818011722 0.013452011739847801
Ni 8.12499202159699 7.275087118369129 5.9145482329529555 -0.995720120132253 2.2580286710868593 0.8525163589168478
Ni 4.0167530629701895 6.811726444404357 8.506698969098908 0.6305903039988753 -0.7787113000102395 -1.354960310254073
Ni 1.8264072614545503 1.5904463917396072 10.827504030852051 -0.8438643396688048 -0.8424186083612136 1.4531707945882393
Ni 6.679738688927493 1.6251103136718832 7.876309856238297 -0.31237489302884913 -1.8619584566208836 -0.11564642042242664
Ni 0.8609335699152728 6.542500519663202 6.8404162720698 0.8438885080385208 -0.5682392525654795 0.6392896315450861
Ni 6.3438614190020575 6.843191624011432 8.148243987309593 -0.2621388796914324 -0.03311863693083974 0.014543445031813663
Ni 8.58230026474819 0.8225980886435467 11.797799150327561 2.889941293441584 0.783832937507521 -0.44175254699443917
Ni 5.935811942503072 8.774868283037016 6.550056266111825 0.09731599754435498 0.8951023119081746 0.24425300054994709
Ni 8.490916952664689 5.545789197533569 4.709513920860463 -0.8805028168274449 -2.031186409814192 -2.294009974277475
Ni 0.3377340325987525 8.045042115025723 1.5098082426505561 0.8982321157864079 -0.8205624317180706 1.6142396090095232
Ni 0.162735782650096 0.2890469362221497 3.680402976030503 -0.9001360176773401 0.306518177137756 -0.45979989141445327
Ni 8.40999716503855 1.2130414262628058 9.515554321129056 -1.7947932716282962 0.33101024874184926 3.3479822931834016
Ni 1.9018434908089166 4.328830943933783 11.428683870136098 0.8088718827540199 0.10336811727570584 1.383137029798605
Ni 3.579802996191913 3.1888290217262862 10.2955932830225 0.10733661500515061 0.45079203148888813 -0.7680905870715997
Ni 1.0819302940470763 8.497920612974385 11.877293026287452 0.2705913813341598 0.21558340052939645 -0.0037262998116516476
Ni 8.702817311595325 3.029208981964965 1.4011470591212858 0.7764315028371274 -0.06856900731864966 -1.6557030183606323
Ni 8.269233851170977 8.683419690497898 13.556324063720494 -1.7229731043622 2.162296987310489 -0.9575603212330799
Ni 2.4003437014540263 9.317992347985578 2.674319245630238 0.07096450413401972 -2.272659790736473 -0.8553646269989205
Ni 5.1146024624082775 7.817567704540903 11.030754729413522 0.6817051203968195 -2.791767061661992 -0.007138925037626415
Ni 7.608632943451124 4.626369934853681 -0.2522884442425268 -0.10380391926154381 -0.06769303247159955 -0.17439972720223512
Ni 2.9642642544060815 3.8261434583498537 5.038268160500219 1.1089990687637674 0.7126704584300823 -3.2047242816912935
Ni 5.1227345420222 2.1638792396529 6.002763577783188 -0.6356934295533955 -0.5335671551045907 0.12449127240756626
P 7.754823860914228 3.967568902552965 3.0890916764797693 -0.8270590951860078 0.4407541876369118 1.0628616509757565
Ni 2.5197789578938052 7.323217465717118 9.949599407632403 -1.2518644728031472 0.9276946440218992 1.4977969179380461
P 1.5578527928283068 2.7096331743848654 9.137580483110453 -0.061058300763901285 0.977443176199936 -0.6516296411676777
Ni -0.04073873461634485 3.1939488746024822 12.3381180208405 0.27003190928626397 -1.106430793815959 2.1211907041884825
P 8.557736161877699 7.332422009959021 3.4643498475447307 -0.41814390643656374 1.2283391359876974 -0.11068753375525454
P 8.256410904532054 0.8867706416702822 5.671046538036388 0.22530936956790878 -0.4433890541565977 -0.08312427942500523
P 2.5211778247998695 5.880202320097324 5.126251293424045 -2.3353597408688556 1.8282214693797547 -1.486127452019918
Ni 3.9791235431970566 5.357790811137887 6.438855672859079 0.7421424997472703 -0.2533287375989701 1.5278086338087882
Ni 8.862260161548544 5.68924766164016 2.0721835139603786 -0.2751070098163262 -0.14514442988154358 -1.1221330350425642
Ni 0.664555038174328 3.9851386708931336 3.081775602561053 0.7860965367307171 -0.31211212628576573 1.3281131081542419
Ni 5.200101207706934 5.3723949816372 10.425356840118718 0.45916174360982215 1.4975333798640145 3.187435669814175
Ni 2.9308220095717687 6.365972841897249 12.185095969986115 0.23981013428724504 -0.15745332915588367 0.29792786436558366
Ni 0.456487574566309 6.461468822684577 10.994692873153118 1.0825182488644196 -0.3685501546688362 -0.24550641334107398
Ni 6.447013864655246 2.4869895176156556 1.9502144432647488 -1.444932722949163 1.420571006275347 0.26983547700474175
Ni 1.1349846529044123 7.768793878416125 4.516732342223977 0.8710087612940806 -2.668734118967507 -0.3381610008540176
Ni 0.6576409053466203 2.3348767302502123 4.664812662588206 -0.9260686783827019 -0.49235931340771333 1.8619422586709673
Ni 2.952532423953888 9.097474968913588 5.341104194104414 -0.46504314209126363 0.8332027461899004 0.7915513891977013
Ni 7.22559520723257 2.1301012667611317 13.340353002093213 -0.27697234515983915 -0.29410951906075794 0.1818271300145578
Ni 9.410177677095223 4.075878504199845 8.304322096064759 -0.5560650790967907 -0.20065994645034474 -2.8728704540022263
Ni 6.840207374611828 3.699023759706095 8.717483964816441 0.9138873058251616 0.9327257786879033 0.5098988649533736
Ni 7.724076766318933 5.183146940805434 6.944327836164013 -0.13134223389112862 0.18779723155506367 0.23778641898899694
Ni 7.55820845437719 0.49921176761132796 2.153328052869425 0.14280472600477342 -0.8575894025643812 -0.8098915822677859
Ni 2.099158330798987 5.879027271896231 2.586827581279409 -0.28169674721870197 0.9453673787113138 1.0042474408769737
Ni 6.101857444252916 5.169214226421032 1.7480418047988853 1.1791891566256079 -1.5678905894313384 -0.2220821208798627
Ni 2.6555623055757893 3.6898378670229386 1.912105578431805 3.1054002525779745 -2.6141362291169687 1.9835978614019514
Ni 2.263599798496544 2.5643934864178854 13.227145501119233 0.29963559108530974 0.12005663367498035 0.04555840535608928
Ni 4.071821790172257 8.261418848055763 13.22449791235502 0.2565428736608936 -0.6534412404551198 1.0120489391992633
Ni 5.720740818585357 6.598110142068949 5.753118991993123 0.16970746393288838 0.15633592772198882 0.013398275683776923
Ni 1.9138364430835755 0.16840492393140633 0.2633945148987408 0.32198027732909706 0.38853045444550505 -0.4687036216619863
Ni 0.5127089680989747 8.75881861673477 9.507214276635098 1.4745150645919702 -0.6634346042224057 0.24993770963955017
Ni 4.804753442715014 4.706235909410585 8.563425819873633 -1.2373739924964562 -1.988218905113731 -3.464961316374323
Ni -0.07076401388811115 1.510804235887674 7.701136281637414 0.6549113972427432 1.4285352554277462 -3.0486778601852658
P 2.92361318211585 1.9337283304878112 5.811442416196635 0.019576122359714673 -2.6321241810539573 0.762102487808965
Ni 3.6265064992957163 9.27645532665484 11.153324380300822 -1.9003663669751205 1.8955776873372256 -0.09753299865116752
P 2.327630599676799 8.035082182654543 7.722060532818325 -0.28492888100275443 0.5790923932298995 0.6294921858386902
Ni 4.8851882898137164 3.4827682618079123 0.34514056657739484 0.20697740402794032 0.4152655564475042 -0.053924517932597456
P 0.3393231454040417 1.0947625664653737 1.4579410555075003 0.3136360191294598 -0.8258403922875585 0.45721464718578037
P 2.48883602193166 7.46719817346864 1.1542610388699797 1.185831858753106 0.2277460040338594 -0.637478032257644
P 4.199137330182865 4.315103396695604 12.09185869296311 -0.8192557970915052 0.9344954689938163 0.7471157845921456
Ni 5.573216314671805 5.950807795736082 12.990182110121609 0.330193923488141 0.01953601315039861 -1.0326072229665892
