# total energy = -381177.724223649 ev
CRYSTAL
PRIMVEC
9.18494301953962 0.00000000000000 0.00000000000000
0.00000000000000 9.18494301953962 0.00000000000000
0.00000000000000 0.00000000000000 13.44309253736922
PRIMCOORD
 96 1
Ni 4.0541144770681345 0.4334714488564693 9.28573590319864 -0.4568130408719875 0.2624101310749481 -0.14020071272302306
Ni 7.888130162794468 1.4284515347939866 3.8671613898666815 -0.28145917728659914 0.1817289138737967 1.1261323860099444
Ni 5.08249744555261 4.562308193470527 4.221574359542939 -0.5315033305970266 -1.5484995864992364 -0.8796463823644205
Ni 1.2694234300787193 6.432711635078914 10.799911430375555 -0.6667271589307485 0.32838978039986666 -1.5718485456378217
Ni 4.974712138354176 8.05696778673325 7.520509244950222 -0.28835590440643244 -0.4136167079901716 -0.008215960151889076
Ni 6.920918915310554 3.543771483981939 11.809326572878309 1.4666950543269193 0.12391508818912206 -0.4075419625510014
Ni 8.400025411263412 8.22002808146642 13.468903423197458 0.21057257757836637 -0.24594350087849257 -0.4634986804222792
Ni 3.2737617118718134 0.6123812813912277 12.538130681952794 -0.0930101710801495 -0.323533737859146 -0.7594619648623243
Ni 2.9802752252155273 5.197704186770329 0.6451366254501156 -0.10170538486130226 0.12424907448977313 -0.08074549478018353
Ni 7.996742114871287 6.377776490438622 5.447733033675557 -0.3009162575699463 -0.18032380599615394 -0.7800333612557727
Ni 4.124379291730939 3.1603184797279837 1.363788616923711 -0.3367448372327813 -0.36963541731321503 0.17909327602316252
Ni 3.6424177728026605 7.693923726032334 0.4637633911777672 1.1053506733779028 -0.5414532427208868 -0.07192018317906969
Ni 4.239071676135441 7.14693281000436 9.61424457786921 -0.6127167661525641 -0.5459778700641178 0.5255972495252368
Ni 3.0553345801729703 4.952144733174241 9.76929743921375 -0.2842477957753298 -0.8135559184932505 0.05756957088435246
Ni 7.221441068376213 7.642781962889524 7.2536774631503365 0.6947691526696292 -0.35217582707587086 0.8607104646918661
Ni 1.58301575716597 5.781747163236177 7.8174942764307 0.02179241328474311 -1.01654862684183 0.7462009860873601
Ni 0.5858064855397386 7.645776254337899 6.617724862299088 -0.8189441793883574 -0.40056630256411657 1.0934878605020457
Ni 1.9315016830642002 3.0464160004294953 0.2587866901445725 2.0996703136182036 -0.8659154059315731 1.2895324196675662
Ni 4.730732494970114 0.584405781718029 0.9359080429280585 0.702940632736828 0.5065150360828051 0.9185330321272891
Ni 9.004936578436958 3.367227692787983 13.377988100978264 -2.8620767058208325 -0.42464262678703 -0.20528947480255613
Ni 5.999127211422398 0.409474866531235 3.23694845995436 -2.7425093530774443 -1.5372471535138685 0.2401634038616057
Ni 1.3755278926911005 1.8296774039332393 11.850046181093292 0.012971472559003468 2.943876610007459 -2.406714024242126
Ni 0.7157376090301303 4.335495208727614 2.0878597248222808 -0.1357550182468436 -0.7419643222981932 -0.3093859856038543
Ni 4.061967603412802 5.549312993320239 7.85678838147762 0.0559708589386649 -0.35907461107823324 -0.8538754440479036
P 0.14420085107995162 6.523477242725689 3.697938916812297 -0.1597768350827377 -0.8511732146253922 -0.12913571315811306
Ni 4.1355389975891494 3.329376542301001 12.530145292427585 -0.5658548114937029 -0.5205830841400969 -1.7737102257057518
P 3.5782701302399116 2.137464846985602 10.70707369956696 -0.034972916530759124 0.3273114597340234 -0.12498980931053956
Ni -0.08321650291849331 2.847084365421367 5.427702509777957 0.02632629659935466 -0.5544031180133355 1.1160472338598006
P 2.6666645282420904 0.5521721424268335 7.2521316372277544 0.62991590363967 -0.591280193545343 0.493218318973899
P 0.866067572636159 5.29435734293983 -0.022410342653042665 -0.25992027477355883 0.12663685799565932 -0.34460598514841295
P 4.969283836986109 7.268495531842558 4.086041339260018 0.2218286101081599 0.5978167091122801 0.7751220399970844
Ni 7.84216870755621 5.599618926641569 12.768814201715172 0.9863314798285012 -0.00984655377677659 0.18715625553695509
Ni 1.1251463439710945 1.3563405465694538 9.058372740364444 1.096533589306905 0.31423148662161365 0.06284624590225951
Ni 6.314446307811167 1.6913797157792727 9.240391676136243 0.6667492704179356 0.4338309781545174 0.2979119235259837
Ni 0.9138412171467006 9.064794852575194 11.149096330443177 0.4321317360752235 -2.669851263291086 -0.5605511398926023
Ni -0.046925874263041505 8.462859606963836 4.6252167872100065 1.0414767575420774 1.6730592502508927 -0.10870804143138052
Ni 0.5632234659565442 1.4924614032103374 2.6403717101435618 0.9765921410535504 0.28480829626449017 -0.8274920689583685
Ni 3.822231403737787 2.7752489254896293 8.506802211710212 -0.04663801157351323 0.1319793532544953 -0.14504955617489212
Ni 6.789666078509053 4.113026702067772 5.774278886007115 0.6739355037537297 -0.39446327499017225 -0.8335914969878869
Ni 2.26452016479352 7.478904208221058 4.52286161836826 -0.3050369646065392 0.1215931249241648 0.8030385639016945
Ni 8.293085118829552 4.3032836132998415 3.950467905227488 0.2127310186822659 0.4110029245164083 -1.6558048340458191
Ni 8.835446823538563 6.455995465820117 1.4171577287666162 -0.3560365955828578 -0.8054901107659806 0.46025780488747825
Ni 1.56754831299706 3.2471345618446934 7.147100894462966 -0.20649197975108954 0.3319337889973832 -0.09973566272944114
Ni 6.0252400046363 5.774059365867188 11.219712928426452 1.1127955596917223 1.4375233178589693 0.08234086429176142
Ni 8.386339846054577 9.098209675548171 8.717280693656221 0.4853371164536093 -0.26001926224526833 0.36313335452863915
Ni 1.7298187026242187 7.340257492229552 12.875807766818975 -1.8434843090760962 0.04473719500637457 0.7125236484395728
Ni 0.7063386567628823 0.8309810900202226 0.28677504873810156 -0.7760180694487925 -0.17488566569971817 -0.3243981427419703
Ni 1.6369956677245714 4.291903468807395 11.561018984308744 -0.0998639607771893 -0.775946849891225 1.1192300024631563
Ni 1.8732691438534577 8.180624675596691 8.979353756439533 -0.24575632456835095 -0.15795340872075378 -0.14805723265296436
Ni 3.3589336891748443 5.469009035856592 5.417579783994966 -1.566726393919908 -0.26488996007400833 0.2526556227913455
Ni 6.196833111503034 8.431842054138176 9.49829753023818 0.9153582339437332 0.28672479656091265 0.797935181236858
Ni 0.8341250960410171 5.111218762604974 5.62407934859301 0.41587902166178703 0.06367336978924518 -0.540679854889972
Ni 3.4753252880515837 8.3063481766561 2.667633539738421 0.30639784950980786 1.0646369977086245 0.844992539735977
Ni 6.6833503622055295 5.9505480474025845 3.3938300434687516 0.0229946611229604 1.105447089746451 0.9380132523390878
Ni 5.946065795173115 2.6790642014178796 2.664326960224877 1.4155169887912074 0.9010330755703126 0.6789653528681532
Ni 1.8224212988896296 3.1217968283951993 3.8284046039907116 0.5383072408927374 0.21838975962994 1.1940264787487567
P 9.01595851014877 6.818249621415021 8.597919602677457 -0.5242319937465939 0.5579538114790714 1.114344906456713
Ni 5.4000760379422985 3.9733696423360154 10.177469880814371 -1.6184703592614191 -1.390922844391611 -1.2453323281115842
P 2.924834908705111 7.977894611644087 11.10318814787486 -0.11004552929588145 0.2015274366569626 -0.03151838232325539
Ni 5.491420297003944 1.1474565707444215 7.11175907042904 0.27722071372521934 0.02340218097402421 1.2214334100067996
P 8.06853163008756 2.85160335742321 2.0051713561316453 -0.0560086541551358 0.4537266886371798 -0.30198840758820256
P 5.318826031340054 4.979672007624492 13.118576834703354 1.3285239704394152 0.4664719041179901 1.64860831629738
P 7.517912661537782 1.3183699918222598 6.210883318952668 0.7508868215988036 0.4808798520132041 0.4467615701732564
Ni 6.296306045202141 6.055182919120059 8.786741825798371 -0.009715684625867138 0.6898789144568634 0.444583331575015
Ni 5.705264142099292 1.5652153374513929 11.514156486153045 -1.160922497105936 -1.0195907561022635 0.23066780566634468
Ni 0.6071017761012696 0.8790054834772081 6.576428439657855 -0.017563205694743945 0.14515651406640162 0.299330144029749
Ni 2.8194744264832767 7.439574281896074 6.768153104796214 1.2268214137915905 0.8166191307996065 0.30875632243965534
Ni 8.120591887539685 5.096991285753643 7.433801545162012 1.6440001281014072 0.31789248041296864 0.8118098823364213
Ni 6.796527230999656 4.837241095078596 1.4670981013528384 0.004381416897147293 -1.071893936381354 -1.1634504057341126
Ni 5.160670496218639 7.876400990464481 11.797039874502568 -0.40995854241229396 1.453714325796535 -0.19871696379136097
Ni 8.155292602545709 5.135209833964352 10.18369359825431 0.0711388249283549 0.1138762158958813 -0.2075787850573651
Ni 0.8522855655248468 3.958379815207951 9.283060329275598 0.15785313569746362 0.06590354467134457 0.30428928780723724
Ni 4.352625127596389 9.15857312155653 5.414891351151593 -0.7953463374637593 -1.0057769901476228 -1.0930510300749434
Ni 7.4160608275775415 0.6529456640679349 1.4908393422600823 0.8819675742984294 0.816616045475813 -0.4805895744662949
Ni 8.363129494858118 2.597906044246567 8.071367022020421 -0.36015447440597326 -0.24797904325128262 -0.5909896588881177
Ni 3.9479916445695675 1.6562105686754978 3.2461839202345493 -1.0952287544525525 -0.27128275097422955 0.10684116342597083
Ni 6.189154499077138 2.508095670681482 0.3137686779946396 0.8264019212179832 -0.06277914010974996 0.04816498974100092
Ni 4.608177799277853 6.196575933096426 2.207477075713344 -0.20012669965469404 -0.6650726540464611 -0.21935700863921576
Ni 6.811562982843187 8.654843287497421 5.241515446830474 -0.5604542093034219 0.03563960358048056 0.21217694595100878
Ni 2.007663231192824 6.239019555129997 2.664124891476827 0.7552520405460348 -0.7312690473678761 -0.8728422149583935
Ni 3.754970065466452 5.8100000481907905 11.868785301991991 -1.1234275854842715 0.7963300415332673 -0.3459501578811332
Ni 8.042813789426663 7.398186928318219 11.246020442433927 -0.11241428663837413 -0.47989589083337997 -1.387453912006404
Ni 6.147592631580513 7.119341240952457 0.4096796907622129 0.12062613302520515 -0.2513312475529671 0.4748742692490725
Ni 6.1796480829757 3.952492266685224 7.911166000072156 -1.330420930351812 -1.3686779169504815 0.8036193761058288
Ni 0.98416665243392 8.32525997448495 2.0073895198886476 0.2636702287342943 0.270151979803896 0.4890767860016997
Ni 7.67827258300156 7.943570479304885 3.0072605880232812 0.030699228856069707 0.43034790470192336 -1.4191098483487883
Ni 2.1454098227612004 0.5985358981725726 4.420975800118575 -1.079518028585515 0.45812558903582395 -0.10569470852635346
Ni 5.525716874513867 6.1435512566195145 6.103876894928536 0.8959561752680376 1.0621538262754546 -0.6692452973669119
P 6.487637594776113 0.03607570098707147 13.037621664774402 -0.6846757729893692 0.25089621689807756 -0.10842881962806487
Ni 3.2639430077052074 2.209695239470346 5.842381565065786 -0.27958535730265394 -1.0122088618158955 -0.3382005958427014
P 4.435454944410659 3.795402184962617 6.449538450825614 1.363219979159704 1.0561621274683939 0.24557943267085452
Ni 5.7587113259584894 2.0889775323967203 5.068086269839414 -0.4560496803434017 0.5261564644628165 -0.9998305427562008
P 2.4521869220733135 0.8393540841439628 1.4432365376910739 1.369964496972389 0.10694683576589968 0.7086731643452311
P 8.873527597602875 2.418772099100335 10.364678309433815 -0.721933371789247 -0.002962939283065865 0.3710297265575804
P 3.297716043458819 4.373823976255442 2.8708265248229203 -0.39848987965106214 0.4405865517107961 0.48255749682594307
Ni 7.939905687010707 0.4914422171890563 11.479473222538898 -0.43165222533564374 1.9085332190566295 -0.6553975928505422
