# total energy = -340895.4488899687 ev
CRYSTAL
PRIMVEC
9.05428702626016 0.00000000000000 0.00000000000000

0.00000000000000 9.05428702626016 0.00000000000000

0.00000000000000 0.00000000000000 13.25186428429800

PRIMCOORD
 96 1
Ni 6.50436445821934 1.7853243350562373 11.20726078744084 -0.36765849609250234 1.973259455590421 1.4069176771579706
Ni 4.577775135458735 0.3184238858533232 5.973927195934281 -0.02310187612478602 -0.471418192379672 0.21674708182019445
Ni 2.6737762590718237 1.7531272900442687 4.825719544912264 0.783674814663102 -1.201499132976718 0.3431826224383251
Ni 3.3576012940912086 4.419687282278483 5.032381837653879 0.3713053488164702 0.6185876231110443 -1.0415335789219415
Ni 4.8589016963632945 4.705359095319153 2.461216003697814 0.9964935079631678 0.18410512741545712 -0.46657989045076426
Ni 7.383354652190634 6.014319276221934 2.502164017214864 -0.6943161242926107 0.3868227277257789 0.28015485665287876
Ni 5.173809802526474 4.448099635272734 11.731265884153204 -0.6792368613619851 -0.014348555412188192 0.04581782966506303
Ni 5.777558722223628 8.024869003480848 12.365195459119874 -0.6466234462023379 -0.6824468836588504 -0.7338478638386459
Ni 1.672308723177893 6.657255150590573 0.36211082122529986 0.7620443808775198 0.16570271364886943 -0.37293311422788034
Ni 2.8987571855221606 1.5273495863270443 0.6692204698888155 0.26982930635715463 0.4875012139844636 -2.126448867263628
Ni 0.3947995140280868 9.016947243627476 4.907019799853622 0.9901485395817463 0.4622758637587716 -0.47622075597463787
Ni 8.71084895883568 2.5076391446385804 1.3524189482392386 0.18809907906619863 -0.05668176896276045 0.7407227365816083
Ni 6.927543729808033 0.7287397317253388 4.70620114402166 -0.3699966573073757 0.026109038382226005 0.6549461071354205
Ni 0.8737740191593145 7.459953921257353 2.7257759354520927 0.37433719366425855 0.28451287651125845 -0.3966032041513105
Ni 7.696307032335089 3.8570900975586615 3.8979566224915976 0.013790111805556896 -0.622835856864437 -1.0468886725862678
Ni 7.777053164904475 3.8157934939873486 12.557307512453663 -0.6613872347750739 0.16335941022767347 -0.23499985738279527
Ni 8.086682621674523 8.840515404734555 7.129331194362234 -0.7820460208104273 0.8281127332615029 -0.3187910809678381
Ni 6.941197594790611 0.5337511313723435 0.43194563238188394 0.5196320330807374 1.0984117801662245 -0.04842312849839402
Ni 1.6421579470558865 6.51197005940327 9.258653249252758 1.2561435597944755 0.20386688342341663 -0.644224092732226
Ni 0.11922413655908315 4.954686999845189 1.1108270266317146 -0.022032297209691087 -0.2514595456007153 0.5774108917624184
Ni 6.308737530624123 1.922958553623992 7.005584441384849 0.6207049265643633 0.5637722179330613 -0.2746969188621011
Ni 3.305638740288147 4.312140459822869 0.4456266602258335 0.9950817152173056 0.2649256984079502 -0.8334989372740808
Ni 5.9155098408407145 5.4118379567221 4.561119774294641 0.4988960860849666 0.6691000300382993 1.0930296899187049
Ni 5.219443409630053 2.783487056150008 9.206467959986451 0.2016768177506333 0.08298184030986999 0.30692261166502627
P 0.032356400465346234 5.710357803191338 12.281947627018203 0.4982959906071225 -0.42692525217361965 0.8562621991125254
P 3.807635581288872 6.2075377634422395 12.574667297155983 -0.08568844060775566 -0.5419234974890861 0.5513162515578957
P 2.427065043524545 8.643973994139841 1.4489983127018837 -0.27722045661490324 -1.3554231088231044 -0.24810734129903075
P 6.649513735099787 7.850981419269695 5.7835906883054555 -1.5806070085567425 -0.021490565773608146 1.2001783572827653
P 4.90866405839529 0.9643359043995315 12.519023270208413 -0.73013313399122 0.10509101350408352 0.42934337469680894
P 3.9973500593922973 6.19922592786266 8.136074663363159 -0.07246782815242357 -0.05500978057697623 0.4934823712685631
P 4.783216910296071 1.134103787969389 3.992746859818595 0.22446013419373598 -0.2915772395572075 -1.8466701630032456
P 0.1663272544628415 5.521240908038078 3.5374927760941035 1.0331931773770464 -0.4686038628593284 -0.07464015321339404
Ni 1.6460060190834698 1.2330218747960922 2.657502083395639 -1.3345349525201855 0.014099929736491846 0.6850406125279557
Ni 1.828748696101626 6.360962658753773 4.799745511440432 0.634114772212366 0.9647187866547321 0.1991026292655539
Ni 5.893127643070864 5.658621606566369 8.939933288210488 0.3786399348046705 -0.476764801403566 1.507813421633784
Ni 8.705416386561444 2.478411905803194 10.117454193795567 0.051520793587111265 -0.22467430708707115 0.686536994567824
Ni 2.409418237920404 5.248489562722964 7.111851893069882 -1.0661781169434994 0.2512852248063801 -0.07888581586362543
Ni 0.5341069648563059 0.06360183990061133 9.253193514117152 -0.4070709364518537 0.18013071614874138 -0.5562990494844677
Ni 1.500548896440816 1.1495594560895885 11.423094167610076 -0.39416914078852117 -0.5870638414711503 -0.46760987437717527
Ni 4.082976452721371 6.903640411801398 1.5598236925249989 -0.5075355069275195 1.2294943326380634 -0.1863813250441435
Ni 5.762184542687542 7.913075720364207 7.95461678968786 -1.0531264259658635 -0.023582929526262612 -1.3952757220436678
Ni 5.149100652965827 2.9846642617520702 4.846591487589877 0.8228072618881894 0.056776642669411896 0.026858257843424712
Ni 0.9375804859489221 7.597633411260726 7.075766937166985 -0.3382293921981078 -1.453732066408348 -0.6993179483825762
Ni 4.992742168626208 4.392442932323193 7.001490092747502 0.4125301597942121 0.5703475571577338 -0.01666177692639711
Ni 8.031668773110766 7.224723541782959 9.12251751520398 0.9469637766641563 -0.06646275960892424 -0.21835607817852717
Ni 4.72236304653751 0.24880185044414668 10.361487151211648 -1.0974797552702584 -0.25531517190137965 0.2263658358568811
Ni 8.282409146428101 6.9725435368129505 4.880449994289049 0.49445990469048395 -0.1822755304058861 -0.835821157649354
Ni 7.3515831586734794 5.9859340860890535 6.999183965817088 -0.577250197814838 0.3486688423638769 -0.6959282059747369
Ni 2.3214467842262847 5.399288714768616 2.4247199831595 -0.41529075325848475 -0.6338010976266891 1.133903545314931
Ni 2.0513302364641754 5.238819584074825 11.245612031410806 0.32343243639459135 0.03457799508518561 1.3869592317581725
Ni 1.1656036528728304 3.433032560118968 3.932716030759581 -0.28267530908188737 0.408621054547793 -0.758985539446538
Ni 3.7633057915311108 2.7557899918385313 2.5887918146998214 -0.11913077942660127 -1.0119952031431927 1.0307058921788186
Ni 1.167840061792391 3.3902510534593637 8.198504878509961 -0.34524978937999895 0.010085152150143922 0.4475591263738873
Ni 3.559294594059323 2.559447775560539 7.250691237253804 -0.15312847652828465 0.35211232082778715 -0.3752267953580634
Ni 4.237469753913503 6.861528922388948 6.032911349401791 0.07883130847660616 0.06016587085661896 -0.6098399588254013
Ni 0.6328946699484278 7.47958361574159 11.195731963646201 -0.3172759298748923 -0.2270268664796477 0.8654893741377482
P 0.2059325171994425 5.523368665512153 8.018411485904206 -0.04948885075874703 0.2986413454928405 -0.5705506743074754
P 8.624462005388214 1.7687912067683143 8.035917044629219 -1.0046642166994182 -0.6885198293258078 0.20649712195741213
P 1.8432355554995872 3.1436213264961985 10.401374907706508 0.07984380890152055 0.294835341483189 -0.4737188154883906
P 4.10017959825645 6.26544898388559 3.764589689445255 -1.5419013644564286 -0.16582972614503697 0.18430413080014066
P 6.731056644936062 3.936831204257314 10.373572813664396 0.7373065118112075 0.01783754240205315 -0.10132203337995455
P 6.229766038330987 7.687325179508353 10.083290557620327 -0.026008251138303597 0.0783145167411877 1.3575409264970555
P 2.4707248160351507 8.529455370598958 5.670273568665891 -0.9453527234232945 -0.09555504898919027 0.9087661825485124
P 6.821219236114121 4.031665807591217 1.5731688063166582 0.46691901895773785 -0.13974588457379158 -0.2788667339690746
Ni 5.387328001478174 2.57070225445533 0.6039988180217696 -0.49323451692381504 0.9357347407175562 -0.5666765360640499
Ni 1.4590530985527812 1.0878092179057792 7.085560054120006 -0.0024302067080474274 0.23601904267592902 -0.6569510533805912
Ni 6.765091710234146 0.655464291461739 9.170648294696282 1.3371523355383748 0.4996519904143847 -0.668523331599223
Ni 2.7522678741474023 1.3344751620174389 9.259077895318862 0.20102915686430542 0.5560074863859779 0.03947080440111266
Ni 6.611666814922614 1.9057554080889132 2.5684893866822915 -0.16541680697733446 0.5572148764305178 0.4547857260293135
Ni 4.1511009090402835 6.7335284653208385 10.497332242643754 -0.3145235639407358 0.4534420675172255 -0.371329002965554
Ni 8.018793576820828 7.202087823973644 0.3535717230389141 0.9796283567767129 0.4266717414019168 -0.28244133869421034
Ni 7.590724990185324 3.924979142412357 8.278783809863762 0.1446456358682541 -0.9284839726924138 -0.512065533587389
Ni 3.1075399923081517 8.435698227432779 12.455308251718755 0.5161109073013563 -0.2630053414567858 -0.07389761862041466
Ni -0.24450559120393883 4.993203937269517 10.233474018141564 0.45912934770999 -0.7637626491202072 -0.8173835197694568
Ni 8.435327001660706 2.1603257448595854 5.787672360940831 1.0193578141558508 1.2471400707442843 0.5191298966333382
Ni 3.6062591813700884 2.5370203063550703 11.588238932174558 0.5804563634569617 0.18590747073151853 0.0035162406833745895
Ni 1.3697416103643507 3.1892820964611475 12.585918154335923 -1.026789844953864 0.6678808129192174 1.0218438138024981
Ni 2.9947779004692716 8.266690903981313 7.9052808845793905 1.5938042239733068 0.04942483029003101 0.5279526371312908
Ni 5.650789648204346 7.964567451236835 3.8426693344567036 -0.15507274473884905 -0.6935764179131086 -0.550256957055446
Ni 3.217612960871285 8.487742269819954 3.6034206623568 -0.4689800152518246 -0.761662572058069 0.4633220456350988
Ni 3.527115657621602 4.386104931336584 9.484664553577774 -0.2766869527089364 0.27370318749026407 -0.43174169972565646
Ni 7.076187961518238 6.101566386946154 11.380449380686041 -0.5801244340388396 0.2174397370118449 0.10875869216365786
Ni 0.6370433443085189 -0.13009290282240352 0.0060971569491169 -0.11351908966677869 0.45731929108444463 1.0628829911319952
Ni 4.691850098930554 0.35072505516721475 1.9123233879684638 0.33366902652093505 0.17231250565590325 -0.8584689769558571
Ni 5.939078150223772 5.889514982508498 0.3730330077826502 -0.29575399664271645 -1.1168255067867217 0.10266877721583607
Ni 8.00297573721568 9.098743673503213 11.212323039371714 0.2937871027243327 -0.5724147240994077 0.49723103967771787
Ni 0.07166468258428907 4.773583148796426 5.771213477807322 0.2543072994621556 -0.5482810642759977 0.8310970127008074
Ni 7.983309825582947 8.746522850103158 2.672874452074301 -0.3283288452549442 0.07187364621185041 -0.16590300258513366
P 8.726847884183304 1.6707513857926122 3.598000766084538 -0.9199430251009382 -0.2588018448983994 -0.06842785375509505
P 1.8260233556773844 3.3015462025082227 1.703884644093174 -0.3106923631201036 0.05876487674403428 -0.5887556273512764
P 4.729986756295687 0.9564134031662715 8.13007167100013 -0.3590206179118462 -0.9438118612987358 0.6048836432613904
P 8.599780018688936 1.7508093925405952 12.582526418379375 -0.04953744460849533 -1.071528325511819 -1.1711179495816992
P 6.234972253427129 7.809358861361929 1.4904370685810393 0.12667491032244635 -0.4926045966493 0.6161682150362744
P 1.841189286609625 3.3014013339142427 6.084553381440674 -0.6723550466404872 -0.3077556490892829 -0.007538731579206372
P 6.873335712798288 3.8896493140555792 5.963167081116445 0.3711595672672253 0.427565971081412 0.4746631816795309
P 2.3413299987499863 8.428110734823097 10.268524974454932 1.2645785779357057 0.18321758260418125 -0.08261802921254803
