# total energy = -381165.0442523829 ev
CRYSTAL
PRIMVEC
9.34367209723560 0.00000000000000 0.00000000000000

0.00000000000000 9.34367209723560 0.00000000000000

0.00000000000000 0.00000000000000 13.67540858715856

PRIMCOORD
 96 1
Ni 0.811430631252435 6.120095759691232 10.933516376962736 -2.295019389378596 0.13497854509213525 0.1145228483409447
Ni 0.499920084592825 2.833973066061764 12.179592200820064 0.862421790956018 -0.3728338696458547 0.8498876630447492
Ni 5.1137636072600605 5.307794298216455 8.92789439762162 0.08302709172550862 0.903622947784676 -0.023777304925255822
Ni 0.48786114162122124 7.78509137632298 7.766743207786378 -0.37736672451920167 -0.18326257690950376 1.5516476452099148
Ni 7.2642844475346475 9.009953327467828 9.581114238565375 -1.0709732243392975 -0.5938669804359127 -0.3169555704209961
Ni 4.291445729493978 6.556772266570127 2.493546657931348 0.6957600558279888 0.20258801671099302 0.47100398766038887
Ni 5.947835824293365 7.68650629396331 13.04341280049167 -1.4570536745824132 -2.227256422901009 0.6161255347237969
Ni 6.201152113541117 7.039251453169155 4.504118914652252 -2.2115968619868815 -1.9308545082616488 -1.8301323132492224
Ni 6.440966796873817 2.5367695498361535 8.620744542644056 -1.2301296522292169 -1.2310935588043832 -1.0451459788635484
Ni 3.1624218211662236 3.9981665554720505 1.772578655044151 1.9935632001447794 1.0902223023768967 -0.9423789855069512
Ni 1.1913181689752688 5.215301289944407 13.300182510878663 -0.15944156323050604 -0.36395893575372806 -0.01841218395860055
Ni 5.619116102703412 7.7666189369499286 8.139329600275978 0.09998325996387297 -0.33493220950407476 1.1782913274016868
Ni 1.7536950941069038 0.248977088011109 8.314101114684203 0.540157920948231 1.0644691046721926 -0.513263153439916
Ni 1.9358312907173738 5.117379608290596 4.208059998236049 -0.25872805423767054 1.5238481064991434 -2.4403257987593006
Ni 5.796627181716684 1.2994618277024825 10.480258589906086 0.826971420568208 -0.48544793099986067 0.8171354083143927
Ni 6.393996158164494 4.7942287151611085 3.8192679411796195 -0.20684962020082442 0.8796880342356335 0.7053212171538628
Ni 2.032379452599895 1.8840953793321495 6.077734354336854 0.09933662751880956 -0.5951278494262073 -0.8826751418884153
Ni 3.9339101237226943 4.250268167371044 12.95928144421504 -0.4224996123020981 2.107359454732345 1.1304734365874596
Ni 3.535682826767981 0.9506158368107832 9.733499249435967 -1.426441349013195 -0.4773358434156877 -0.4667580678998413
Ni 2.20548031846998 8.884075379448731 12.303723816558522 0.4892163969033575 -0.032210266183957434 1.4822623126375567
Ni 4.655110784040538 1.1580546969630965 7.613851769898071 -0.36206223295164736 -0.06553459136770003 -0.26022083673311314
Ni 2.5657723074557555 4.933860548236924 11.32612345526146 1.0226958773901484 -1.1905508614953302 -1.6434457982598343
Ni 8.245725057988171 1.0099294661178813 11.293165521320859 0.6765549436544477 0.38168926315395557 -0.42726849444565124
Ni 3.2345082499791196 2.277622809314357 11.949818227325643 0.280571118254691 -0.5320376058339418 -0.027039006395663107
P 4.2419429556960875 4.690018742309492 3.722542249530741 -0.3568912302736692 -0.2698300776881031 0.5896161755793587
Ni 6.221297070186692 4.90273677709295 13.745152460948011 -0.15006886376635445 0.5555284898670304 0.8272367584144527
P 2.1304880076919757 5.0741557820186 8.94393561356277 0.08711103198689514 0.9135628326062072 0.9984858558028482
Ni 9.148052798349823 0.4210996714318472 13.671497229620833 -0.3587709637948854 0.6141673825561615 -0.22241662140114596
P 7.64883260880795 5.842130863935583 1.7940494787342551 0.4234126110346708 -1.2247200511778715 0.4686213463608252
P 6.39192186299969 1.0752323891215532 1.3224463262425785 -0.4053148729926955 0.12036799426781206 -0.6008842922940103
P 1.7282242444706168 1.1079632718346542 11.007513586681947 -1.8301986477107832 0.5651971233050459 -1.4513815638983005
Ni 4.405746868012209 0.3728368028968828 0.33946587865770494 -0.29808161633462854 -1.5143046857850821 -2.0946561482330637
Ni 4.291669977619903 9.104081478324744 11.412634644774466 1.3196780900130112 0.05182624064267203 0.9217176005028577
Ni 2.5062811483823 7.1068062011039865 0.5154894451023426 -1.361854980491377 0.2635205905303074 1.4069045645318479
Ni 7.484141047660043 0.25373862321824464 2.992918268982849 0.5530558599568217 -0.9947654695284673 -0.13845570500745832
Ni 6.276200486350603 3.2174934234245787 2.2530508209161515 -0.34581748895801084 -0.2306192118165964 -0.8409011432754228
Ni 3.1530968365965193 8.806420122175371 2.0318646162774594 -0.6859754656373993 -0.6046931245171392 0.15911940400439692
Ni 8.514551842612386 6.899600932749512 3.5126656253761874 -0.48008692379826357 -0.459329379535938 0.03518863208599102
Ni 7.079513335444561 4.40170105807365 7.544176008438867 1.2558280854365858 0.0495749827146501 -0.926878575878507
Ni 1.0575074435015839 3.6958894253973926 2.297892971163572 -1.167078489405003 -2.7620201694168625 0.5243474362785356
Ni 3.800043336217528 6.610031196477257 5.045869684034765 0.654613149276034 -0.3792659984244436 0.421841409892809
Ni 8.876974188794447 0.9058082581494429 8.709990624926151 -0.24535266137202905 -0.16033887823379483 0.39926146770976406
Ni 0.3441451895520016 1.81998844633341 3.8378254079670846 0.35943482263112936 -0.012442853749043088 1.104619451638833
Ni 6.782739628126973 1.2054551445804418 6.432542542276577 0.3083542019052302 0.4153799705381814 -0.2108813670680368
Ni 4.3250642610388645 2.9909747852248336 9.822580883092385 0.3114984039611668 2.6666911203955492 -0.07564828276293423
Ni 0.17484346068195855 2.6660018760722077 7.558972647281135 0.33902669128842255 0.9339290549673851 -1.2561443311254237
Ni 3.710801925771389 7.007025128739384 12.045190020914253 0.37894898140465705 -1.4899277996026146 0.4067492914463769
Ni 1.2755139965881013 3.1464161111783446 9.935881314348679 0.41799015446751886 -0.29672021721072767 -0.1388182305531996
Ni 7.259005272903502 2.3803004199721545 4.299890540169428 -0.09774974264766391 -0.2847075090205678 0.3386762499275393
Ni 5.117015205085969 8.65515541756721 5.886948720636028 -0.011419040470219044 0.23904651664834314 0.7738449730568737
Ni 0.9382728462130081 4.4824490707503895 5.985602946167859 -1.815152037790306 -0.3984374291465719 1.8600131599690548
Ni 5.3585210930350184 5.215319977288234 11.274950032925428 0.433308272881828 0.20186476539172332 0.34449954147753575
Ni 0.5562708355361422 8.689941908101286 4.342693901205315 0.6112723203965537 0.15450684493305003 -1.7148461043796919
Ni 0.09230520046658652 5.301412570299513 8.120129288860863 0.388858270098569 -0.3492144304547018 0.4033425797576731
Ni 0.36602806917349234 8.241866121487883 1.9781478464465667 0.5974878650179516 0.39533924983722235 -1.1300620600816538
Ni 8.328192306297 2.1198829400701173 1.9350426848078717 0.43159540395577933 -0.24041202953730206 -0.43743077969063376
P 5.684035935158629 7.585295639795936 10.681341884422816 -0.6487564333849407 -1.014665036665872 -0.35357502141624264
Ni 5.0635226833810005 2.6859038972480302 0.32539244002154377 0.4579067881567985 -1.0282929118619515 -0.37152312125423115
P 8.448791079684952 3.451122595950521 5.762037842659982 -1.260993431687609 -1.1867029485041498 1.4086652559766966
Ni 7.6879171884222535 8.57078206018802 7.278435438647691 -0.08800757565923553 0.20959221594296806 0.37211396076069464
P 6.457047256237006 3.3089399404423117 10.787668198962846 0.08431315752678382 0.629372115321058 -0.23817979777267367
P 4.36148589415781 6.2569992405682955 0.42218073427224273 2.3239805524976362 -1.0728532149708299 -1.7003453396603556
P 3.6860972572320114 8.539265854823677 8.329787271092641 -0.991595299330602 0.45401568063250847 -0.5998800193992121
Ni 2.515905130453237 8.726597133018071 5.77481064216578 0.37232736232308133 0.5425161367677624 0.08309959683465688
Ni 7.608159604968348 8.450444909613646 4.998580426113192 0.8968722593244038 4.072451544020625 0.41045990752874467
Ni 4.636479502244956 1.8289116530108325 5.150911243686687 0.02081230875966093 -0.46198070111585593 0.08821789189782872
Ni 0.5676420842549101 8.527399391493493 10.67610382194809 -0.6446570665045865 0.6163391933964998 -0.9266183802385847
Ni 0.10791660749971499 0.40654223059056505 6.168675378704064 -0.356946766101953 0.9771503275498655 1.8073065736039584
Ni 3.0465883204541737 4.086230663257085 5.822058787930934 3.8127117606889884 0.464822027219393 1.3548919189099828
Ni 7.762722625761986 5.789198962545427 10.323538115267613 -0.23381303616354573 0.33080456048894635 -1.1814221597211847
Ni 0.8489221148054803 5.772828849352919 2.1430459027437623 -0.6847135682058402 2.1710978734315707 -0.9456106050703714
Ni 4.07385964164357 1.4773746846080362 2.15931977611556 0.0236124972126174 2.37241165141583 2.500924900498596
Ni 5.226597789287867 8.959544217494326 3.594540484885699 -0.6124336876945066 0.4882072389125528 -0.683217700386604
Ni 2.6339343940649678 7.212828846306829 9.929030534101678 0.28390815304772393 0.32333319181256576 -1.0508954797528158
Ni 7.65414915812675 2.283219668790562 13.186923191778792 -0.6356846878026472 -0.0010983752705013342 1.1096503291945212
Ni 6.460831443361986 7.607468173246747 1.6608236671223573 -0.20273765491497986 0.24822175538970798 0.7409690482644593
Ni 2.6662261241981327 3.153507958160715 7.941679170820281 0.17885519187042745 -0.2292272165650762 0.628686402107943
Ni 0.8554748319184399 6.851714614192662 5.831577186509248 1.6387735895951452 -0.5204303606123165 -1.9423059446317001
Ni 8.279044592031825 6.472660532004516 13.433257889372753 0.4166197564825534 0.057349484453746394 -0.33379963856152833
Ni 8.654426611157954 4.050285557405729 0.7824017113514754 -0.4282205739462754 1.7236053386295607 -0.3554017902123363
Ni 8.000640543696239 6.526769736055778 5.975620167095442 0.6718745074596428 -2.2553660366530317 0.4378053894212331
Ni 2.286218987474806 7.250100753569907 3.4378330913879047 -1.5379354378301449 0.503663682676939 0.32249886883672846
Ni 6.281666534420019 0.4733251912253403 12.739668713926587 0.9955828232234403 1.1723446228999486 -0.34763165934861423
Ni 8.284342454006797 3.4575790732427714 9.398670635148948 0.8388180354941489 0.18684309517191047 1.9990257659212476
Ni 2.7962059441872693 2.993843292502288 3.889806123556443 -0.09466441885412083 -2.4866393371138598 -0.7282094346059459
Ni 7.604085764014049 7.883956768840059 11.499911081017187 1.893107371419862 -0.027727033601623215 0.8456106329359501
Ni 8.693249567958677 4.489849258905906 3.9914961080929805 1.0268662067177543 0.1939776493341627 -1.3788332602169286
Ni 5.872890231874929 6.020922026001008 6.557686077683271 -2.664319791949895 0.0841745750663905 -0.12511785024797162
P 7.722582211221455 6.610507723744847 8.216089733780024 -0.5702567972161405 0.0181293626108591 0.19766615392934345
Ni 7.908596031676041 4.259583808268835 12.083645771408772 0.35881415832799496 0.6186871248033861 -0.4600387468981368
P 2.4095461130615083 2.609295131228985 0.26342240478942874 0.1730313860997988 0.37077904399935496 0.06137146112894592
Ni 2.8855501350244577 6.721874949282229 7.378689300811119 -0.025801534444136208 -0.47173109563440047 0.2821554320226754
P 4.686374710263215 3.9712567803610797 7.38636138981932 0.6626298489329233 -0.9711043784661016 -0.5540045970233362
P 2.463057322110303 0.607320921402913 3.735109488254441 -0.3069691486322455 0.6295189253115675 0.8367503543318429
P 0.6850733528641741 7.883975456183885 13.344421994287663 -1.465986972516301 -1.2714884176816619 0.06873535769318484
Ni 1.2823909391164605 1.3789951630304629 1.6871074162151216 0.8693174896345867 -0.6010167041068165 -0.10354860871762812
