# total energy = -340861.3610585135 ev
CRYSTAL
PRIMVEC
9.36621267321093 0.00000000000000 0.00000000000000

0.00000000000000 9.36621267321093 0.00000000000000

0.00000000000000 0.00000000000000 13.70839899852985

PRIMCOORD
 96 1
Ni 8.171683437137633 5.389852688116541 12.321411156224947 2.627453515051165 2.1094230221295933 1.6478395564521555
Ni 4.2720701265955165 3.5623453557750544 1.9577098655860465 0.10867590264186446 1.0960203971159124 -0.10902994354717352
Ni 8.607493316204291 1.2277231667323818 7.862726733637598 -0.5489482655463513 0.6266300337995466 0.741340315560949
Ni 2.7251464294829124 2.0595177882701403 2.8180358443903613 -0.9920701820844913 -1.2456987103120676 0.03586457510709307
Ni 7.94629489362033 5.476752409972988 5.325466531837411 0.7539778018193015 0.34854105853676104 -0.4473552378931973
Ni 3.7443027707896253 5.849668170450939 13.664559782352685 -0.6740828279648714 -0.6544647966236277 -0.25531568612201194
Ni 4.288161280092971 0.6490682404567489 0.4469500525066312 -0.09526991364860367 -0.7027670832734413 0.2068611901650502
Ni 1.3253940332466119 1.9704170064184072 12.6151955316979 -1.4070752857817574 -0.14578566300996829 -1.4528913156746075
Ni 3.77020971524478 5.864626012206139 3.723392700834407 -0.2502249018626658 0.27406262771221185 -0.6367550380486905
Ni 6.912986204854564 2.4807538403041813 4.232221574468092 0.7414889253236713 -0.4787409512933304 3.345221442608813
Ni 4.890193336761091 8.083847094006595 2.4671690853375305 0.769950523098474 -0.1518681217586223 0.8129200846814646
Ni 5.427373736376611 8.20559849349053 6.790277578427997 -0.7921715392802035 -0.49905755136349533 -0.8756907401507821
Ni 4.863434066946059 1.6227712879288907 3.2100268337466087 1.5632818870147334 -1.397223589798658 0.6258185936418448
Ni 7.313110813359349 6.703351631175861 7.5704774804336985 0.1879844078652053 -4.387446134060508 -1.9982552063038104
Ni 2.17401973908875 4.012832090214537 3.8957347618440386 0.3108481719716776 0.1288750032975587 0.7571965658669152
Ni -0.038715240385171656 5.241679202476427 1.4498007540440094 0.6924569595966849 1.5506459434182778 -2.216528237850228
Ni 8.201636585499015 0.5023586938688178 4.210932172896664 2.959770912640212 0.029059636370117693 -2.0153075338004065
Ni 0.5996951865880193 2.238534212482499 3.6631173753294513 -2.5095221552493037 2.311514301709826 -0.2839768015021303
Ni 3.247172296875568 3.8019892750916147 7.239295690708923 0.6895266733237674 -0.1704163170744549 -1.376096578012056
Ni 3.1541283394578117 1.9982721231247096 11.186834975250527 0.07858911055881303 -1.0451722041157936 -0.9190935326164494
Ni 0.24735605889153314 7.063407581553694 7.142555825741636 -0.37577778276552704 -1.1064081681081397 1.466642860932745
Ni 7.021250257984405 6.679636380503247 3.2525232142173 0.5833316281222276 0.11585879354354886 -0.05384789905839113
Ni 4.7317357495259795 5.958391168005329 7.450432604912066 -2.8130527105136456 0.9542901351222403 0.6816794093652067
Ni 5.907364040965674 6.179180901064395 11.887910048600153 -0.9749594905461338 -0.27475194046975265 -0.11312468244183743
P 5.98914981066286 6.1088687419809355 5.8475233077321285 0.4188864410295431 -0.2651041329673434 -1.5023197455090644
P 5.1570180054662496 6.187020421132713 9.667930303567278 0.12345743182641318 0.49005071987919474 0.6732978701697307
P 9.265806945262517 7.6754802182854185 2.9441799976521232 -1.1558805638066545 0.3159551541809397 -1.1040540660536664
P 9.718101358761958 -0.03478798738081639 6.512216264291585 0.8788804507326735 -0.3043795335281984 -0.45038065498308244
P 3.6334349105164243 2.4547157688705834 5.2655471224168 -1.776430195740076 -0.4036354284077436 -0.4880627429148884
P 7.923413235882099 0.4970208892249303 9.863536163795173 0.1601023367429565 0.9160382907298934 2.1120031241519435
P 3.2539440686908527 9.403209286244847 2.3927460954798954 -0.8974031921272092 0.14376271904266855 0.7144440053907373
P 2.3569606064416404 5.4047075015315365 1.9435902998716046 1.5374847234459714 3.252476095154276 0.7533427393384639
Ni 8.01881747891182 3.5466101183619445 6.746711576461725 -0.049119383234470244 -0.6086783344171325 1.1958061963569986
Ni 9.236781051962977 7.730768972124458 5.028034953121206 -0.16738704332982787 0.3627888267050268 0.28816307166933597
Ni 1.5527588476532992 0.6412849176649073 4.658045197505074 0.776754947614817 -1.6924664511329108 1.7182427887660665
Ni 2.7362547577995477 0.862702186977949 6.793197026940894 -0.22050397775946542 1.5657084941783552 0.3439608953652463
Ni 8.791267776491566 7.902657708437188 11.814433046229853 0.5809916671351413 -0.6018919076229182 -0.5579764371868906
Ni 7.335486695609301 9.454255145709997 6.067241546053064 0.4430656093789079 -1.36045681459227 3.015562051467903
Ni 6.540107909227597 8.665723060845542 11.27476029740265 -0.11081094670699626 0.13283810171036475 0.22834609951170354
Ni 3.239613763189628 5.4780636797574145 11.098100412317159 -0.7218536675912471 0.4761886171851218 0.33882537391089385
Ni 8.102326631754254 2.4128862627474006 12.107107525492415 0.21111430901444928 -0.18914089006715168 -0.2689577023854787
Ni 5.353474317811472 1.0419443369174841 5.7229002274203005 0.8726010454818649 2.3484847082865876 1.3118151423251667
Ni -0.01452043961996652 8.293762654067674 9.24408107817713 1.046271093606927 0.7197276223871798 0.2852584964280313
Ni 7.889535644380183 3.9304937139653426 0.4602453914994342 -1.898894924635917 -1.381877446359891 0.1722986216988323
Ni 1.7382754235113118 0.731754103198816 0.7967687323531961 1.7676246816333043 0.33674252323993614 -1.5018273792536778
Ni 5.3510016376465535 3.493840875751552 5.8717733691525344 0.3455943172036112 0.32241505087367056 0.5130278975006584
Ni 6.068594027173572 4.247212197967902 7.942139105024974 0.8080123629672019 -0.460547053993123 1.9726344204119122
Ni 2.0309508393951496 8.460162789711307 10.90801968098807 -1.741699734237426 -0.9477867867860839 -1.319723855649282
Ni 4.99227568947864 8.490921432368838 9.126791742445342 -0.4857446363046731 -0.10678074250168061 1.1527312195443955
Ni 0.49769151005753665 7.345190092014052 0.5699199962688078 -1.6090498372784676 0.7554651849981054 -0.32829670646542813
Ni 2.62770971828733 7.838302460660119 1.0566314951243276 1.2963764391725932 -0.7858376266423757 -0.03756793095144498
Ni 0.5955150458395249 5.859193608813517 3.4523916378658526 -0.06564154925920954 -2.1206356030159608 1.8120366320897763
Ni 0.6320142402890169 0.2000819732991594 2.5419620405986287 -0.666458221540078 -0.3418379354849726 0.39113061107251346
Ni 7.780025884955139 1.5974825135149646 2.1484621543690166 1.2691368867303499 1.3313539836890427 -1.8814669589674566
Ni 0.5979596273662043 6.360145497527902 10.236513741277246 0.6545038773916793 -1.4738373217986556 0.3846565733123956
Ni 3.0530575377168208 6.863420207003268 9.274472565295023 1.7483084978031953 2.7842134176844504 1.0156459125219024
P 5.067317785998779 3.9486079694159106 -0.23709911931349967 0.02275940518370274 0.41420343373157703 1.1818057683128487
P 6.925349605679149 4.198798244284353 11.370472688831711 -1.7956065115582105 -1.9586478763248334 -1.6700304907268977
P 8.97335631848458 5.037580060530551 8.318476343019002 0.12927198162566125 1.2807698429835879 -0.10217101164381114
P 7.3673037203071186 6.348812380105364 0.8275816990446532 0.8001872104958283 -0.7249212507729773 0.22099480135295488
P 9.341214324079745 3.7769814870600653 5.136358950012621 1.1887202360444948 0.11509954678002114 -1.7088870585827793
P 0.05608675516498969 2.2967545909110045 0.5574067360402875 -1.2780233905867022 -0.11530729191545304 0.4634889102302663
P 3.284740176199367 6.897250967441454 5.592012087402741 1.0990116185337524 1.1402086615973526 -0.18463503177699814
P 6.581394175011518 0.29770132564328705 13.73800962270602 0.8904624991433181 0.3277673163245194 -0.3498932016892813
Ni 7.511637058721415 6.1477572573019055 9.998440535838172 -0.2453511187101323 -0.24957029899780242 -0.5716125399130865
Ni 1.6373825798124926 5.637223732948468 5.639169095335791 -0.7171855726916165 -0.2715570876815388 0.6192882487224948
Ni 7.601337278188885 8.70802087760602 2.0375755616703235 -0.9690942900146085 -1.1488876774285892 -1.4429977107099794
Ni 5.3819288721335115 5.654448198188176 1.6793338467013723 0.6549990718605428 0.19908051777836683 -0.3719285842227659
Ni 4.346409757159714 2.076339506361774 8.35703797751514 0.4319682139141657 -0.7965380437790153 0.44255987338708297
Ni 1.6082349257472563 2.616554558906965 8.664462368609945 -1.6703109980817943 -0.908041645677662 -0.526375779562474
Ni 8.286157289318004 4.044798974316288 2.987717900980158 0.058340644722422105 -0.11558754216003321 1.5160424944117954
Ni 3.121543285314831 2.9962795560511837 13.558854578545024 2.1213943355588563 -0.5627350349177985 -0.4931879799565958
Ni 7.220928547514215 8.496756582909532 8.455532134129735 -1.2339690805799652 3.0150480879459622 0.4837471462586702
Ni 4.616072388326878 3.691327471498823 11.384139866470527 1.8092297587686001 0.7425996418893469 -0.6012398758612162
Ni 0.7248146761753798 1.1539736075711766 10.454312842606546 -1.2043617992364934 -0.0775958934076083 -0.6235855905462679
Ni 3.8609027532633164 -0.17703266035277765 4.901259517120371 -1.7180898081279703 -3.0639759239949167 -1.9487393589618698
Ni 8.9367718914991 0.18694024019538916 13.35494182423279 -0.8469234382101026 1.0418775925249217 0.9732455931788206
Ni 5.527020873780226 1.4476793068570635 10.478796122724324 0.7683821501700896 -0.6999944056243106 -2.34986924733894
Ni 5.6501584727505545 1.8715285322472104 12.567284543638806 0.22500469384329636 0.7399385501174159 1.9543140248361697
Ni 2.0877850183372617 7.608493064726752 3.611724029371431 1.0310103107931146 1.4569341182854134 0.19326519664817038
Ni 1.4055781805642495 4.479288217385776 12.779956580111 -0.749540077762922 0.4426442055707732 -0.5202526973838717
Ni 5.83879399745295 7.693781797990904 13.969955451766728 -0.7931213047879825 -0.013912753426350233 -0.7994667873900361
Ni 1.6483691473634317 3.6517645888601473 1.40092972917846 -1.260697754824061 -2.5931729966017403 0.14934946910182667
Ni 8.06060952018402 3.4155674358340784 9.535946316658448 0.2990776616993107 -0.2562348555021716 0.08185415446333
Ni 4.013328499490069 7.75508366041281 11.951188181911442 0.8501272898593811 -0.21385459076374783 0.4306646646113938
Ni 5.736964532479542 4.758354526149823 3.9792879358863757 0.8701145316145853 0.08030969279434556 -0.18309982607939435
Ni 2.342695864429637 8.008036968041292 7.291511390146033 -0.10893815516431561 -1.4675831133588273 -2.0145434019408723
Ni 2.0722277389663244 5.294457811299565 8.399149406641975 -2.978319365066361 -1.7411950266868659 -1.012174409033534
P 6.271007250825185 9.199288102341145 3.971309795869419 -1.5104981675547986 -0.488375646169617 0.0209981995182219
P 6.41287727528731 2.0713754136064475 7.4369302726175786 0.33670421380283305 0.0011212580886367784 -0.09444844618857283
P 1.3433396968677536 6.6148315545143745 12.401673043108376 0.42478815122595875 0.5930791944272946 -0.7465401145943337
P 0.44180519184530914 3.417759129616618 11.052794168022697 0.45316927347181307 -0.6289427410931233 -0.17477176582967321
P 6.395484218218177 3.1713247060592815 2.4465793398582214 -1.8742750692047074 1.5966488925109534 -2.2892302935006446
P 3.0657112911365294 3.6008123915224592 9.621774543776764 1.4986767494398383 1.3382437688303406 0.1445376495354801
P 2.8838756368876552 -0.27642410014842933 8.928801244452341 0.46967626998790074 1.7364040330561257 1.1438138624501073
P 2.879145699450976 9.567773644190286 12.399712694780659 0.5147597925901006 1.3402168333963114 2.2389996794798663
