# total energy = -381166.05125481373 ev
CRYSTAL
PRIMVEC
9.32076500102255 0.00000000000000 0.00000000000000

0.00000000000000 9.32076500102255 0.00000000000000

0.00000000000000 0.00000000000000 13.64188173636128

PRIMCOORD
 96 1
Ni 3.392283061145801 8.713684831685903 7.897462653992171 -0.4927529493017062 0.05900296089676935 1.1611176438358777
Ni 0.7061774990901042 8.63471931153328 2.5073230386138308 -1.9098136284309493 -1.044411671800685 0.14374497843085565
Ni 6.218077994539476 8.251337610055739 3.900813740732082 0.7821691766518529 -1.704953013635696 -0.5853527723173145
Ni 6.233112388307911 4.847981480219981 8.048123497682798 1.0419213012786634 -1.4800953868932252 -0.4585940440318102
Ni 0.8304773555173184 5.722940322024406 12.674481422794543 -1.3868664149340502 0.7977631744353681 1.1612048042330454
Ni 3.7769603489431254 1.603171561172246 0.1563688801095934 -0.20795262345701604 -0.5601996700904546 -0.404450210999555
Ni 7.757048127145708 7.327519318695123 11.933767693555533 0.20312589149233407 0.025058228520208455 0.027623418144223394
Ni 1.3814492059561683 2.784597152577505 5.415472522274328 0.7520990967393498 -0.5117230626463057 -1.3680986474082437
Ni 4.8032418087454065 3.9948332282594112 13.373150113688832 -0.9612220863553833 -3.7097465352786565 0.6841607810261637
Ni 3.7440114450550794 8.222573729603544 13.270044744546206 -0.9060616391331556 -0.08304920321269568 2.102704986679469
Ni 7.61231528992546 0.47386209457593187 12.293477448440578 0.7028239046533057 -0.6010889521056486 -1.3672314143119422
Ni 0.6088090607376057 3.883944088356701 8.93020713216955 1.1921007224809534 0.3745552232123356 1.6975019566742893
Ni 9.013561800509128 0.49000286313687363 9.837951764476436 -1.1782802716580931 -0.7272229023229605 -0.2507509495694649
Ni 6.1848121846451525 1.4090666323268273 10.296919276757292 -0.4399198646610746 -0.28124140484883825 0.06244952468447309
Ni 9.219177873994358 8.530429273173068 0.10466752933827753 -0.10588625571186926 -0.4801272901178957 -0.06009722240221262
Ni 8.405773363527036 5.44511628293219 7.979040784543611 0.4720614823906258 2.239602088950556 -0.8123783532453814
Ni 5.504405668400891 5.768518862339129 12.487518996084741 1.0170769885414743 2.5822056989569595 -0.1162071780219031
Ni 4.302036318286598 4.725208365081837 3.247872722390765 0.5402985602911534 -0.8395500285641672 -0.42137758288251304
Ni 5.382946781112313 6.230157705837612 5.34596664640911 0.843488958607257 0.9337894440657272 -0.38103697428193734
Ni 2.120818880897961 3.477465531480412 0.1429031710722356 -0.31307551864029953 -0.9548184968218847 -1.8068486601309333
Ni 8.419791793922402 8.211109188788184 7.908689515302821 1.4978213434180783 0.5214292341904762 0.21110839547717836
Ni 1.833310567084478 1.2283370010993282 3.469048880784258 -0.27466837961701085 -0.013121882093938692 -1.1195529330202139
Ni 4.028285453451546 0.04982601287533997 10.655987763017867 -0.10371341643026653 -1.0509625855453255 -0.5701153865422698
Ni 6.606791173534403 2.6513661392321786 12.434561206206181 -1.9320292452960406 0.22837335320521313 2.0338729555074195
P 8.426437499289355 2.276037578620062 5.200640076465334 -0.18873491287798463 0.01332474213336415 -0.13775507939600792
Ni 0.28797994451694425 6.069495681419436 5.9914053810900345 -0.19087612759070352 0.13305535992749343 -0.6825708108312245
P 5.7817450277188 0.6521729873143368 13.534888686451861 -0.5584407784178188 0.14055398229738372 0.5914216042192137
Ni 7.764486097528356 4.9859008383052466 12.630704586333161 -0.3082786114722884 -0.06432848687474083 -1.9203009011155188
P 7.544599932995714 7.257287355244931 6.246317115928334 0.8254207882516366 -0.9276753607481895 -3.1119393392480728
P 3.6870895338685736 6.699309085837866 4.107338588794141 0.3043638497989145 -0.26822879463925414 -0.6499172864622613
P 2.72246493381719 2.760894447460871 2.070483022183109 1.2688239834756212 -1.834392374077157 0.49791726711146506
Ni 1.7553237272453606 0.37056098937060694 0.8753875969893895 1.4142669184341903 1.4789964974020915 0.17386468063437152
Ni 9.33129735486262 4.211792672616425 4.120257168932424 -1.664158605327153 -0.25779037291474954 -0.013109283688448393
Ni 6.064313336140298 6.1808881426262365 10.251655778295868 1.7504201448295595 0.3294675868450777 0.22970518464275924
Ni 6.719423296471644 0.500090726977901 5.446316797450091 1.4177260806273841 1.1246992531078437 0.4504385048042113
Ni 1.4104088224710645 3.9807961563342635 11.22821002533065 -0.004107851520786474 -0.3594723607372841 0.5612772194253494
Ni 6.6135207657853705 0.6449661719009742 8.024236241421333 0.04404171160124673 -0.12643451217686613 -0.5151955945759386
Ni 4.330772236444122 5.507872992940172 8.71582581138126 -1.2324076496301164 1.0689857615956235 -0.19231080315470106
Ni 3.4922575853616933 6.760723605701609 6.906857353884905 -0.27614444994190507 -1.4679001303786139 -1.0341275162658576
Ni 8.47431826853204 6.949459773970079 4.122454073217123 -0.604826821881526 0.4470222800338108 -0.40235527614373934
Ni 3.276957237155195 3.5647358531505033 9.471367013408132 -1.0372722325424264 -0.382124036698529 -2.023544319887902
Ni 3.776484989933708 2.5173708231658285 4.222176004704482 -1.1480042463823712 0.7328657024310345 -2.4330614038874034
Ni 3.560877056485822 6.946896563625183 11.392007555058003 0.38449690780607976 0.21346275464196784 -1.8892563731048881
Ni 7.67888419277367 2.7767770308343445 8.58836901188562 -0.4636228647049693 0.26000512117788127 1.8084746257701307
Ni 9.066857934153214 1.488693926786679 7.217838149922226 -0.2055820663423105 -4.860043434349946 0.39807078983577254
Ni 1.2405472031059306 6.8609497905695465 7.974838983730957 -0.25147445799905077 0.3615778371160612 0.9978181403118622
Ni 4.356422981422877 1.2505577045983667 8.601519679069677 0.32531345546738816 2.1090229584776967 0.3178598274028203
Ni 0.06578968690336152 6.6255072694346 10.482025939177387 -0.7519947099510017 -1.2546353506800652 -0.7950804853968824
Ni 3.609997487458948 2.2242234465935713 11.29023971567717 0.4988387504844699 0.22141826204361864 1.204876019868751
Ni 2.131211533750909 2.1971373038216724 7.492721487691478 0.9781098632496573 -0.1711807060443052 0.8406088088459845
Ni 3.8093313654079575 6.250616784772339 1.6193598656341295 -0.26304930732084375 1.2827452215424038 -0.5894850493181332
Ni 0.4012328303958948 2.7756119352230275 2.084165905042416 0.3625330019404789 -0.2221353427153013 0.16326942161702848
Ni 8.15002089569561 2.5899422986035443 10.974894005441612 2.127655228866903 1.3499371460078688 -1.1858290305396288
Ni 7.2430452264921925 4.88357748133694 5.707381169192634 0.898040311490576 0.03817831084193425 -0.19019169992916923
Ni 2.2887977057552065 5.7817729900134704 9.647865949451818 -0.7462297824427664 -0.38659518509600516 1.1319052839379795
Ni 7.089271247328124 8.448667523553283 9.919598868688066 -0.922854028100146 -0.1814124110746424 0.25229618256939773
P 5.691147192982787 5.293877551818348 1.1361490438729895 0.655251039970349 0.29678552323102436 -0.368011765666863
Ni 6.164371747240206 2.6831313059791264 4.036195986614144 0.42253817884951744 0.9360538146198718 0.5097291721447286
P 1.5351672605308928 6.918785136715325 0.970530236686028 -0.32564332800298107 0.10188561919290841 0.013894498593905102
Ni 6.205084848282068 7.268080800988173 7.795175648006936 -1.0240531627489913 -0.2629374643333278 1.2890768201873863
P 3.5882801052639985 4.456099241162272 11.398447271520872 0.16279505308377126 0.7089858104896435 -0.0050910413696622
P 0.4033682176323166 1.3192331003118383 11.821863522356244 0.2916898538756718 -0.0015035811287199912 0.42905926779748693
P 1.3408759163876633 0.15160130886808407 8.324385376579361 -0.4072228886486858 0.24598181031559568 0.736337463029719
Ni 7.636679769349322 1.4665105063472026 0.8319696099762932 0.04052727069008504 -0.6853465738041488 0.600445662094695
Ni 1.4827752410811883 1.897633165594069 9.892083038654714 1.3540043740987069 -0.4143379024269122 0.4044934055326646
Ni 5.03791070639444 0.6339779221715209 3.047078280583409 -0.7171398070553455 0.3472079415476343 0.4360133305178168
Ni 2.3823036191370672 0.4688754853594949 12.327923267170044 -1.9214000477169684 0.07335845828749302 -1.6178643502463042
Ni 2.030565914462898 4.831604896307309 6.917197810454466 -0.1437652901458298 -1.0741307961316728 1.0187104103798392
Ni 1.7276224139906866 8.164868874166233 10.199721408402288 0.5857775185595588 1.082611322798858 -0.6660638143151367
Ni 5.622546363388439 8.338980762321452 12.06137455736591 1.0140106909113247 -0.02828367743604161 -0.5066731589272242
Ni 9.003486053662458 5.320479014815938 2.085079340001689 0.5656084998108517 0.8053816102125744 -0.6690720050138412
Ni 5.212544557383528 2.4547818869258773 1.626822070005493 1.0008576984691342 1.0383916908588504 0.9399757753820973
Ni 1.6524504451485114 7.365902228514352 4.149805857788403 -0.233521730175372 0.25733143100046 1.051083941614538
Ni 2.0789872880692344 5.072537347962782 4.462477440576866 -0.6234079273178231 0.17759972219677156 -0.12854821608575928
Ni 9.159739356287409 3.5054185053871305 6.955109089570233 -0.5226062852177129 3.730119442508053 -3.0308107500968577
Ni 7.6671027459520324 6.720485863669164 0.45586556172528436 -0.9409695067539343 0.023368756632927496 1.9976404555379466
Ni 7.492804442499003 3.5727889940159274 1.964731487888062 -0.9431194632174016 -0.275430454594016 -0.01913903482229607
Ni 3.9056241874920885 4.556493199798239 5.527076564844143 1.2908691362011189 -2.048947333342039 2.4076630184189565
Ni 6.603929698713007 5.479192999371992 2.996002353136248 0.7308666697231349 0.5856759599846881 1.2713984290710167
Ni 4.710770500266396 1.6971714750933047 5.99514300781114 -1.8519265263061784 -2.5656364817443684 0.8190367391021637
Ni 7.983635921634646 1.3272209958230279 3.284119312897083 0.017236932703576763 -0.23550250805082668 -0.6347470064797263
Ni 2.0083079279042972 4.687310135036917 2.0791998015087385 -0.5767568031181873 2.0291534385445633 0.7232055536334512
Ni 4.987420122982404 8.386106549608003 6.119093335554958 -0.5297392967180683 1.704487386853187 -0.7656266989121395
Ni 3.0891251830811073 5.547486243724951 13.135685918649125 -0.7205102661894752 0.928412238914214 0.8792949125622728
Ni 5.533616945567832 8.071074017072768 1.3539939608946043 1.0162388089108951 0.42556051061560907 -0.017358031662473333
Ni 6.300930273651454 2.8457134079647513 6.778514149648176 2.591380937698324 0.6589631987146135 -0.5806006023443098
Ni 1.3652776788710876 8.521341527404795 6.403308623132616 1.3957945706616155 -0.24547633143408693 0.001848623172964558
Ni 0.21192902754559131 0.16430457933739603 4.873848466944198 -1.3001716445489673 0.827436790240401 -0.9855511500190509
P 7.764709795885729 8.673223391296084 2.2332850942201503 -0.2966711091403471 -0.47516891767135583 -0.3637679027888445
Ni 3.236337343762238 8.373495554711107 2.519737365371536 0.062322512188305576 0.3177446419811947 0.43877520953367016
P 3.127862281966176 0.43476428208959916 4.912810196263129 0.6629134416116133 -0.5696705856953673 0.6122303134344488
Ni 5.498514944990073 3.9155880851600715 10.431578231283847 0.8500262455051425 -0.6135937694408787 0.40924351862314035
P 8.082035236584037 4.743458422737507 9.891155622548107 -0.8189410940645638 -0.6251822456094265 1.9261329344162634
P 4.37297665986847 3.3168501108866906 7.518736674577453 -1.1116069387002598 0.5910302823180661 0.2881574152423812
P 4.797118066212324 7.6833488391562375 9.438845000552073 -1.055330632706034 0.8267176526861891 0.2368801051246436
Ni 8.934400544293801 3.3742194187879417 13.55908912041365 0.7390564046227788 -0.8595346992162101 -0.4985726413072769
