# total energy = -340896.0206665871 ev
CRYSTAL
PRIMVEC
9.03175018538385 0.00000000000000 0.00000000000000

0.00000000000000 9.03175018538385 0.00000000000000

0.00000000000000 0.00000000000000 13.21887933961449

PRIMCOORD
 96 1
Ni 6.223011223217748 1.941735931553861 11.36826281628565 1.2773379344839033 0.6826086060476954 -0.18157927566980986
Ni 4.424564005344068 0.24725680057952054 5.884661998532613 0.4352795376755858 -0.1603728167955238 0.5516643789259338
Ni 2.7070502991809504 1.6103790877153195 4.74662175938714 -0.0028248710433048125 -0.17674714438848915 0.08997241269509021
Ni 3.453786357067093 4.100170640752133 4.8661605832788934 -0.7500956931560759 1.1577896079039092 0.17832734439141545
Ni 5.1756353032280975 4.215695754945841 3.146357328491892 -0.13369556461465362 0.4103251817230933 -0.7223005253206787
Ni 7.331143725427794 6.2767862626915445 2.7570482608065885 0.23821142234155748 -0.9378993524690428 -0.590664414338215
Ni 5.0245883163016964 4.597467827259817 11.453498150519117 -0.6765472303449639 -0.7555790848681503 0.3404762792507556
Ni 5.426040571856084 7.885720270407568 12.66050031675599 0.22638151958616495 -0.27934933003244794 -0.7429459694851721
Ni 1.8275836433594834 6.448190814108026 0.4667590334225649 0.1337770685848664 -0.06551170854956459 -0.43130049842317975
Ni 2.677904841945152 1.47102821703322 0.23274639103659095 0.008297464122101838 0.5581469013264839 1.1295149293289322
Ni 0.5429084271604601 0.37241246979353665 4.683131266443077 -0.1439547804488166 -0.8619476795330768 0.5729811381258391
Ni 8.498235491609112 2.3009828193788127 1.3603287668621602 0.6008878918384362 0.9416652472693783 0.5064199052658376
Ni 6.658206096755692 0.7568877448811956 4.8900206604172665 0.7343798250827159 -0.766679565656686 -0.6373888149779474
Ni 0.632749050716684 7.509304025840983 2.446299160933006 0.05131613377547291 -0.29975103361725147 0.3413969912928121
Ni 7.644419005775147 3.990489068805577 3.9655451816677307 0.7268251526639095 -0.7022919434092356 -0.9254834953031932
Ni 7.508852438341203 3.6722824529606273 12.744241799540184 0.17962677992912937 1.05832211123419 -0.535205204928646
Ni 7.928034019136951 8.749733601986566 7.042001281068683 0.14139601858270487 0.46801970822108424 -0.12323271741011678
Ni 6.799878127186662 0.6937982616369368 0.36129348237395453 0.11107499900166032 0.41266951358555376 -0.7031455496587825
Ni 1.7683082681383662 6.629918655769477 9.179572647777121 0.4395617099907075 -0.947903514869606 -0.49074543195337417
Ni 9.077992555576618 4.835066074394044 1.559787740114971 -0.13085603828332948 -0.0883850136033123 -0.5229598119023897
Ni 6.407566002627821 1.8842217475818857 7.044856217242293 0.3564937377249344 0.16002108988305988 0.29485771008069217
Ni 3.2417208671704247 4.107531516998546 0.3287286045898222 0.4587971611815517 0.5870458437490212 -0.9105410150607479
Ni 6.107919633023828 5.727565545459162 4.857276953983221 -0.8269181987327695 0.2187679689049652 -0.1742845417806095
Ni 5.392839858872261 2.864753685854107 9.071164552579944 -0.13149290053638 -0.1350577350695029 0.5438741934575536
P 0.16843491201792768 5.61922970426195 12.3557130750545 -0.5215354207510373 -1.2648398020168927 0.8263800668411123
P 3.8350887783812975 6.1816819352378864 12.588986017115834 -0.07935735618340527 -0.6579550691650733 1.295552400609401
P 2.4137442180738686 8.411846802901206 1.4903760318737929 -0.6733577768733887 0.36894507611440974 -1.8217394611998368
P 6.4186569916224165 7.733463028981759 5.839532150154604 -0.6590521588839939 0.3505835428880865 -0.6646404516050489
P 4.734542696943025 1.0289782452486156 12.601716268734632 -0.6831462237187202 -0.04939243439019881 0.3060489508108213
P 4.056429875523445 6.1094730940230715 8.170654822443732 -1.0880468919921324 1.0273472601192306 0.6499298848677516
P 4.618638249249502 1.0795108864739928 3.6148739404636006 0.6213171062270654 -0.15547100861853225 1.294690823940054
P 0.22206634666679495 5.625253881509014 3.6099037684410225 0.24970913856851185 -0.24126949244159093 0.18912212101407427
Ni 1.4212361793074821 1.041676885742428 2.474362614519331 -0.22599456856039146 0.49214591184532663 0.1988987407848639
Ni 2.004018879523513 6.48058770134224 4.485628570239313 -0.4826657402690333 -0.22268144502675846 0.9012477626842802
Ni 5.909772069870379 5.403208307867209 9.072777623129157 0.42313056101787766 0.620698241696144 0.6608748139150297
Ni 8.50642728885512 2.3964122898323135 10.12251534574266 0.28023893172625286 0.16691576012036413 0.8556855006734488
Ni 2.364873418847681 5.270802852931726 7.014849131056914 -0.24648806052805292 -0.20613331086009015 0.26695249902999185
Ni 0.6385537564388555 0.04755306690182908 9.087213069147124 -0.05672162106176038 0.33194047386560255 -0.24110802716306215
Ni 1.5282533850053364 1.3114281628609876 11.334263696602216 -1.0909684365143018 -1.2952140434333759 0.13539274981141844
Ni 4.045140188028947 6.920957767627663 1.6218638610097234 0.5574169651389947 -0.3631912043497681 -0.14495802490235035
Ni 5.700903819472152 7.673293510511077 8.089042123133497 -0.5479841018608692 0.5678219625224027 -0.5152593579343384
Ni 5.158953660986225 2.640802412963231 5.1308414359499235 -0.00025993852960600394 -0.1796352645695616 -0.3588966907394722
Ni 0.9411354447914182 7.541014500075533 6.994426537966865 0.3184326691871548 -0.4032839586055958 -0.11888601040564688
Ni 5.01235029505766 4.643620069737329 6.930433879723045 0.40431445675263916 -1.0995875456418804 -0.4892855595783961
Ni 8.139693080283816 7.22570707597917 9.182639830075626 -0.17076855820755107 -0.4521788845340858 -0.14597463909232278
Ni 4.642454973987896 0.3715950964189349 10.453238160731509 -0.4515769892840288 -1.2101313547304193 -0.3741410184930524
Ni 8.609777604054761 7.172672640005012 5.022976148927482 -1.0060233018304738 0.39695878771851634 -0.5120069124353117
Ni 7.39220738714804 6.026453248063524 6.842844871440725 -0.5542691635386324 -0.15808582053356 0.8510937675377084
Ni 2.794504734388337 4.873324567375402 2.479729280366716 -0.6371034225270448 1.2890673071056895 0.5567299663742992
Ni 2.21569600417037 5.239381394697036 11.291103672898247 1.0461420242282304 -0.48457247037344287 0.29800422612947386
Ni 1.246282150142731 3.317370805133563 3.616050777488027 -1.5135667791777931 0.40073805225529047 1.0250188690963702
Ni 3.4607046775637214 2.555876867754612 2.513265974450375 0.7254041039466668 0.04711546543056402 -0.3654887421346932
Ni 1.1220955877032428 3.308600975887836 8.175598802391322 -0.2483104584487723 0.43066235061854863 -0.06677746263586563
Ni 3.5489810020207075 2.661620596703087 7.240376444322022 0.455866360688002 -0.26496632183789853 -0.8007672513690145
Ni 4.014043872794099 6.786475010193192 6.065575176344461 0.5709129427429006 0.7933946130540271 -0.750387770475198
Ni 0.8879122452423519 7.22773921972818 11.200806042792246 -0.6307671958963718 1.4646525699755937 0.7873674330233408
P 0.1324397755854668 5.636182299003688 7.939298417731463 1.6086798555335584 -0.0242501307966163 0.7859525549536851
P 8.511746989602528 1.7014552546709414 8.057078759899072 -0.1332034554695835 -0.8945009308787499 -0.1588666645636425
P 1.739903414402207 3.2583302554123312 10.29145242306034 0.28246833527740384 0.7380639588025225 0.36212882452352474
P 3.9986086120516204 6.065931027294287 3.889959369129561 1.6146558706113352 0.0795455609348114 -0.905828182966111
P 6.796753141688184 3.9286848035856914 10.456066904830129 0.9622068188661559 -0.08654024708508967 -0.3454989292763275
P 6.284869678937607 7.762843311717442 10.246851835232073 0.43783675687980084 -0.01254261255170098 0.920204763402757
P 2.3719543108442314 8.400999671156491 5.567065025812367 -0.12450592769558558 0.7516406690456926 0.886693519019189
P 6.858485152908104 4.089043524757555 1.7772786022339953 0.09340714940825204 0.22184969315408246 -1.165497518071128
Ni 5.3669006728849 2.9036714965851442 0.44070153151026187 -0.5595612651755073 0.25529460307608937 -0.05615983502101941
Ni 1.5272689242558162 1.054429716736214 6.995140046216517 -0.023961395911603893 0.06652035231973705 -0.3818622983967101
Ni 6.847728338663345 0.6408866574627188 9.162243429060565 -0.3526028873109605 -0.039853641661828136 0.10548130696396672
Ni 2.8217625558750554 1.6537043924442087 9.348245997994931 0.35642663193242485 -0.6550229831199429 -1.3132058520251062
Ni 6.295599397932378 2.0116236130198075 2.5379452313133495 0.3810788832634663 0.2012258462561438 0.7988849467446371
Ni 4.211965642197659 6.695001446237764 10.545479423436563 0.054646997920918795 1.2575173002135505 -1.352265537030729
Ni 8.043802990580541 7.195035252994114 0.2210313081172993 1.3411385738796322 -0.3721335011447204 -0.8650546005931746
Ni 7.740986476728093 3.984239097808622 8.265540581547496 -0.5262505668385195 -0.9055373911985696 -0.667613932411076
Ni 3.0024156192870293 8.37428375466951 12.355606500404551 -0.10567131148758577 -0.3981206692371015 -0.04886921489687712
Ni 0.043286468203908045 4.886944446368766 10.20579440292708 -0.30400698068012805 -0.14363776342903004 -0.2015078962729368
Ni 8.661972087279329 2.4961589367837105 6.034113978409791 -0.10633157077940399 -0.08365212690401723 -0.8604230153584344
Ni 3.6242335429840398 2.679666033194294 11.508395836517368 0.1129768440100635 0.1934217768306927 -0.41199717010887754
Ni 1.0669928809800924 3.368544700608628 12.445389320760805 -1.1665838091567715 0.6388386600505965 0.843171170256522
Ni 3.1141744937325737 8.28747057371181 8.11824267404427 1.0889503776430085 0.5686429157618014 -0.6268228665366431
Ni 5.65859007074277 7.768153980714855 3.5476695919213466 -0.5443439340051206 0.7668703415112534 0.1053560942400121
Ni 3.216025538432945 8.377724851417833 3.4472058240202994 -0.0025924433175245672 0.15437314756866316 1.3394516730955124
Ni 3.476781192555888 4.282973260663059 9.124278467954063 -0.6805337257965376 -0.061039788821140036 0.8822714786920934
Ni 7.010191457584183 5.993604773329529 11.380489999429692 0.7990261003081917 0.4295544622663506 0.129129542510526
Ni 0.4988714205319177 9.134802263048934 0.35131159227881836 0.25468010942054203 -0.44315379821734 -0.5524033139744873
Ni 4.599328367758911 0.39053196663470763 1.5339984811775371 -0.06657048883138213 -0.5640558106117513 -0.13549148017281182
Ni 5.828197303910127 5.632407027505528 0.38939486931026174 0.27951696595856373 -0.5643643429911055 0.682631745976147
Ni 8.279107173215886 8.971264365878623 11.087929940872247 -0.9651993258355765 0.024566633595770597 0.8140197455035465
Ni 0.3671379277961067 4.8634348011302215 5.786696412680349 -0.7993870831920362 0.0499616766301075 -0.6067492357152195
Ni 7.956718857122974 9.148169253042424 2.377388714816583 0.3110052663748321 -0.7737251596495578 0.9052445425484991
P 8.293124449209055 1.7571179298938189 3.7124556769410524 0.1421210696741875 1.0005041717844576 -0.14037349085546147
P 1.602367925469223 3.217199665932373 1.4725301970574884 0.2453943132432419 -1.064053871511645 -0.6497969588343132
P 4.733784029943395 0.9125589878053425 8.174144690642029 0.16709188068691222 0.1401390062471522 -0.3535148576022686
P 8.414339565899992 1.6838704374295097 12.422851491821786 0.6301645293153664 -0.3438212844635885 -0.6943783449891138
P 6.526017403820104 7.818000208940566 1.4210428998575764 -2.5264325578513973 -0.23939155869258774 0.8808278042670313
P 1.8049410461205164 3.2446381224190035 6.013783509169698 0.383395704322101 -0.7946734797664508 -0.1616326573445539
P 6.84681613191379 3.8392885421292515 5.9540213226238174 -0.12843251644350137 0.7444706336598146 0.9716139711126687
P 2.439295038811418 8.620588608799494 10.193448000683095 0.16112229336703865 -0.33723411816437404 0.6563681842939277
