# total energy = -340885.4156992616 ev
CRYSTAL
PRIMVEC
9.11700881988543 0.00000000000000 0.00000000000000

0.00000000000000 9.11700881988543 0.00000000000000

0.00000000000000 0.00000000000000 13.34366396927734

PRIMCOORD
 96 1
Ni 5.234558017105274 2.992229675518551 9.768669915114817 0.33838880059410753 -1.4210435750363914 0.3418183951009468
Ni 4.198966091947745 0.6746267498606303 6.484887411640981 0.17248734067087068 1.2373799060337272 -0.20908339462734957
Ni 3.7731106057289368 2.8204469936231367 2.550067507162064 -1.1402575125574168 -0.4669791827717119 2.1038591548885703
Ni 5.211765494828524 4.719337609543783 3.3581599738682173 -0.14497782239669224 0.2564374584312809 0.371141055324464
Ni 5.007316570006071 4.572672287197348 12.237875023444314 -0.13089074817600685 -0.2270248095971187 -0.5812343792735667
Ni 6.04056542387355 6.054341224337618 5.265810211950264 -1.5520952742702947 1.4623774007881718 0.7626815002408864
Ni 3.8592481059172328 2.7823378963764096 7.781277758595329 -1.5096301631275486 -0.5834259876082468 -1.1505876908388313
Ni 5.692213630404605 7.910071920075009 13.05561419727888 -1.0617774167726424 -0.14928287752994937 -0.03594865018046712
Ni 2.235663808073002 5.3329578942784615 11.809636351096248 -0.6098109053596789 0.02610055374179376 0.9957887685866592
Ni 8.202700555081755 7.610322901109007 9.507547839501669 -0.28243388249504264 -0.3186542982796577 0.6055395316778346
Ni 7.897244288537654 0.029160753000874715 7.416088673070102 -0.23203383277593587 0.17870246834264705 -0.02961345199105868
Ni 8.429239992494834 2.586331321805265 2.1081925245862645 0.49883977892573445 1.4938001380738273 -0.05812364361560957
Ni 0.8235722361356311 1.1395258267395123 3.200837779806065 1.898807764238749 0.01839367201583929 -0.9923409192473748
Ni 2.0255167526813613 6.5468693967203775 0.8685227368689475 -0.4779871038464414 0.34378734590185955 -0.8440731132455012
Ni 7.400768451296561 4.485094299601161 4.3974041727953725 2.1880689540682705 -1.3566125011455152 -1.1926452821305138
Ni 7.583455075849173 3.998191321716304 13.212335580453818 0.8063730275915661 -0.8287753065461663 -0.5251501346854891
Ni 4.730952678896014 0.32241116801533004 10.780119088975919 -0.3077139972180701 -0.4851843929258289 0.7272046474905154
Ni 0.3048782481791624 0.15772790095867842 0.7359322528788518 1.0387501026395336 0.30024082876947644 0.7104120014132088
Ni 3.4866724197725567 4.661234911755889 9.670326563396875 -0.08931215340327199 -0.2322426063526323 -0.1985531845199871
Ni 8.978521545346702 5.2658111236511544 1.699569096909571 0.2770566773435293 -0.16531087752708948 0.8807478429587153
Ni 6.371859293670576 1.9672043636885226 7.534072797084366 -0.06688467763769126 0.08513565342807919 0.5689951568948975
Ni 3.8693132837546456 4.84103144448381 1.4742349280744858 -1.6209805272777826 1.2254777552795024 -1.6708532437385095
Ni 0.18953258654365618 0.35566272291443596 5.356040337438573 0.13391899347936936 0.34017494596025283 0.7678118794889165
Ni 6.867031398637438 1.1946928476581593 1.0626493842027056 -0.6724887440048741 -0.622079952535019 -0.6554934949984581
P 9.032849801445565 5.81453653895947 12.644589349455106 1.2419215026578225 0.4325798793562357 1.0042988629401994
P 3.8442415092502196 6.231347952338864 12.926380595969704 0.4870381583051161 1.3527453048806253 1.7691686290816564
P 2.2014476736311437 8.713389809214629 1.7644457323181135 1.185575776878242 0.5375775618155646 -0.5759751877571565
P 6.160025591630456 8.233470460155369 6.169816347499657 1.0372701756598974 -1.095815737304274 0.6954111571290023
P 4.567676166314284 1.4391563245896755 0.07348218011935286 -0.12574854185343504 -1.3458089827721078 -0.9034326861507409
P 4.151138263202212 6.329684010449676 8.47155841275563 -0.20613845306641274 -0.4361825091058294 0.44909818872623297
P 4.3513477788811885 1.4940954202855552 4.3227604857407975 -0.3064778108181238 -0.26910528370693654 -0.10173906631271512
P 0.23623719979139138 6.000924669129826 3.965443025709069 -0.8190151418356089 -1.1440591456916942 1.2540699650948983
Ni 2.128684825514845 1.6451824919536795 5.2387491061015234 2.056438499512762 0.25033108842322693 -0.07469774592420683
Ni 1.8499049270434533 6.583911803924553 5.425573940998701 1.4317684176530632 0.8761339983357879 -1.0576127438719913
Ni 7.004616180108815 0.7131816688430905 9.766120799423383 -1.7922468510573584 0.1972627478433377 -1.5142069838649534
Ni 8.28025894988508 2.083737971585093 10.88975112112709 1.4960799352469394 2.2158636076830356 0.8481146303047266
Ni 3.4412332473616267 4.568159367786551 5.372026100862595 0.2756741951737059 0.3538799542511712 -0.24404936917957326
Ni 1.4858901122659252 6.915515652024542 10.22851908075806 0.46687453887304753 -0.749399952640632 -1.8791133711336157
Ni 1.4994562215250469 1.4830456054857866 11.878102352912936 -0.11499438866072455 0.2302227477091261 0.08111984740046675
Ni 4.194325534412198 7.2820376442525125 1.9987610666311293 -0.5602598339044287 -0.7857252694342275 -0.21449608100248865
Ni 5.7178871274971375 7.926683110310305 8.42839211066614 -1.0782687295594462 1.6702809161748073 1.249376673384287
Ni 6.476121407573344 0.9667585078817426 5.303265619658093 0.6534571812947197 0.7155693772444321 -0.158587699870643
Ni 8.108959469461935 7.644675790684525 5.093076626025463 -1.0860625145722522 -1.2273788289569572 -0.05617706141220002
Ni 5.346970736974208 4.363983953231419 7.842885034608495 0.3731220903102348 2.415993392661523 -0.17541711272315594
Ni 0.5091211286002334 7.601397349385431 7.006144190802249 -0.2247964344872322 -0.30273814127003346 1.667338802827348
Ni 6.202556438198872 2.179329810013785 12.10079532426659 -0.09446515835912117 0.2438233692116962 -0.27177640278119647
Ni 0.6473887740390222 7.637600991769822 2.7516099295437852 -0.7902568387559938 0.8604980915707438 0.10210570562351447
Ni 7.276375981718967 6.603732181296414 7.512669706965606 0.8827785002354991 -1.3421001664619532 -2.0367153100522213
Ni 2.254298974286473 5.497082288688888 3.183144400613069 -0.05663086112016698 0.30693880961494235 0.09940219064942236
Ni 1.5003496883982954 1.6424929743250232 7.684042123460038 0.05590221048425856 -1.1518932970241322 -1.1614737416237157
Ni 0.8999235389591813 3.525082378313337 4.453794696309836 -0.09821125566511472 0.8237678260292458 -1.0270047891781475
Ni 0.507617733830859 8.125844169964552 11.83172048178064 -0.19258796807548767 0.0670379153861039 1.0667848972895626
Ni 1.8753049138686642 5.506828371214427 7.572022346675155 1.5740265271257472 0.7050178269808309 1.0206891313727648
Ni 6.088511773734924 2.1841162396919027 3.221387517890783 0.9931706142375218 1.2092080715852014 0.23362740251530087
Ni 4.190359635536043 7.5131447031298535 6.59286379497397 -1.4564186121015756 -2.0778118229822153 -0.8924569038655275
Ni 8.18715605488901 7.349339404031301 0.859713882859429 -0.965125020954215 -0.17548910361167197 -1.5846978907966642
P 9.004705594938233 5.832670269682853 8.61296139755881 1.290673732360861 -0.2855330902456566 -0.5490228275380287
P 8.550313870828933 1.8427845430841965 8.573131009029744 -0.15401319312608314 0.5436746758522378 -0.7860715970300527
P 1.967742267214254 3.484101423259739 10.833334158286785 -0.8398397918904439 -1.001296585778766 0.004203753668702437
P 3.961340371699254 6.497008474987758 4.360522224948026 -0.13115480047067088 -0.06399038680903173 -0.4349995445413218
P 6.662874218100127 4.117560319384102 10.841620607685721 1.2911558142036021 -0.8243290978493545 0.5650058332298463
P 6.598963985636119 8.158127498517342 10.910500521706952 -1.2160209807419766 -2.5396279734957488 0.3183624780708517
P 2.122220866197159 8.897662793317702 6.462203381770268 0.1747545394384926 -0.3578335395822805 -0.574400901291501
P 7.0159486221848155 4.341091143856651 2.1345990291952166 -0.4564865107705041 -0.4542064564870758 0.22134498560352203
Ni 2.4733989324284216 1.8342783737705133 0.83286702672009 -0.2577716038616722 -1.0279784659453264 0.24190198381926728
Ni 1.0161909301955594 3.601993465484004 8.834212969803684 0.4175859770505647 -0.0801356291103265 -0.178276436548822
Ni 0.48548254789656986 0.2725383941711265 9.530445207380891 0.9303307960931655 0.1281342684767922 0.524802007317451
Ni 2.8741188250804286 1.7090744903998667 9.694692681411611 -0.012645456678152414 0.4497774741814447 0.010466189638646492
Ni 5.343788900864374 3.1521967138656968 0.9854173783183818 1.5978570538864418 0.7304910315512709 -0.4098970930467392
Ni 3.996486441050003 6.864104838777102 10.814679846354602 0.45670865408363925 0.8423705287320976 -0.4714675575603687
Ni 6.9548920135098555 6.0629476807493194 11.87771579173512 0.9511279353441751 0.8800433606925231 0.3372616289681998
Ni 7.7087136612732845 3.8446517746512012 8.498179167073985 -0.2500469815239048 0.9701625833781227 1.343280045702667
Ni 3.194836964541042 8.758920151714666 12.97000183680384 -0.0996400176918413 -0.23171810130772996 -0.05733791448952061
Ni 0.11924956485106805 4.914031334831786 10.565646924557043 -1.2412409316510302 -0.1149509370172988 1.437892014052298
Ni 8.62122596613636 2.909346947511375 6.39186839312689 -0.21577057683953804 -1.3261302733962579 0.208842225150821
Ni 3.8007351427283584 2.671557121102491 11.801803928741066 -0.975791499529126 -0.2595310097549401 0.0957054585241255
Ni 1.0522487004373788 3.7297409943407356 0.2971169384934833 -0.11293004993252809 0.018686006445277497 -1.3962365432950403
Ni 2.665530778212518 8.231911451631639 8.600778338551441 0.9711172339819082 -0.06471518079019822 -1.7217939964524347
Ni 5.503710354166967 8.173526126567515 3.9366879796047205 -0.7075575626835492 0.29037602016025477 1.2174749395796838
Ni 2.7092103679036827 8.460757492299125 3.9242915825888414 0.7995452060364553 0.3745125428998582 0.4467284029424758
Ni 5.403359437086889 3.2112384635713918 5.642528666943962 -0.22953163517937245 -0.31483106787882553 -0.5859603239943263
Ni 6.362240849269787 5.8768239438373735 9.618500014543107 -0.9922553015121042 -0.016745080668822774 -0.3059301658447699
Ni 7.688692709705386 0.2942669615079984 3.1489182374614093 0.22520164034545087 -1.5420072939066733 -0.15733248730730323
Ni 4.626015906333855 0.527955045607958 2.087736691693326 -1.1604198464379045 0.5251503917958052 0.027378649123268976
Ni 6.072356433945162 5.630072097669272 0.714502723434251 -0.44696005933730765 1.4906711055265425 1.3632320633445618
Ni 7.5469141041350865 0.11772246585852576 12.432492165857468 1.0105754399775306 0.3355109648256802 -0.360193812284341
Ni 0.09944012788989857 5.210361475456276 6.122139861102041 -1.3746266783347487 0.2511918937616255 -0.10336246084875102
Ni 7.270459042935923 6.734305982915464 2.9875526499473612 0.4017814059181403 -1.95458296222684 0.5399614886667088
P 8.275463403198053 2.03291976391685 4.353490275975203 -0.5125879817497623 0.6669143352408902 -0.02699786874508254
P 1.6932017778863377 3.574797427903385 2.3271621095007897 0.28310108376539633 -0.9404637707621094 -0.19156852567203783
P 4.8042351965202235 0.8718039483759086 8.68740542211824 0.15097826295450126 1.2183424297863017 -0.19496803827189002
P 8.783289916532969 1.9190665566400256 13.160736045121928 -0.5180482335333851 1.2712549615146171 -0.5293186642408819
P 6.241303726069348 8.161601078912318 1.879402097673133 0.5062898074458765 0.5358783197362706 -1.4395676019825079
P 2.04164474144439 3.514543116012567 6.593824727713156 -1.0917999312766615 -0.19557276173542446 0.16606395364303012
P 7.013167934467052 4.544345740511802 6.517032161658329 0.2503267175478528 -0.3352461412000678 0.18543130242604838
P 2.4334117313460903 8.947578417103786 10.564539207974393 -0.4087825198263218 -1.0643343788665411 2.9160914694743907
