# total energy = -340889.8562062169 ev
CRYSTAL
PRIMVEC
9.02280350457072 0.00000000000000 0.00000000000000
0.00000000000000 9.02280350457072 0.00000000000000
0.00000000000000 0.00000000000000 13.20578496789615
PRIMCOORD
 96 1
Ni 6.213291760002861 1.9252586776675857 11.489547362438909 -0.4233527043310128 0.8436316548327084 -0.45460600591833966
Ni 4.645372180130947 0.3457881051434645 5.854850977936892 0.22460874395645833 -1.6206959061578283 0.35404784728760313
Ni 2.870758224632752 1.3875086299571462 4.800659134544956 -1.0968151251030658 0.189673365531854 -0.01394926309124049
Ni 3.4592164263077323 4.2623090704219475 4.960489070368422 0.045971324523791796 -0.34532923646768265 0.031722270803945365
Ni 5.057199986430509 4.558888611492136 2.387381393545287 -0.563823639996287 0.004098595549405845 1.8185669770091262
Ni 7.3354848619658215 5.8728162813815175 2.633590233490485 -1.1944849064424137 0.8132324737155606 -0.16661905481555175
Ni 4.906338716984402 4.551498935674171 11.44534735642003 1.124233883435651 -1.4504351408246312 -1.9903110117560692
Ni 5.336609133017687 7.737225174291655 12.498046828163258 0.8732615618839992 1.1765548043265543 0.3917687588771447
Ni 1.8499182709764972 6.520797915744056 0.16633357236752982 1.2506727664878912 -0.07542331123632172 0.5937782773768484
Ni 2.6067780715116537 1.4949611932247115 0.5961041251037261 1.1180889468801776 -0.6179299349223873 -0.3635084784798707
Ni 0.7403805527770003 8.879304534499784 4.660664929268759 -0.3812709446696143 -0.4179736994072867 -0.2892056540012374
Ni 8.626395360900837 2.5087453147812737 1.3617016082544096 -0.05393325968334582 -0.358932171963098 0.38713485964955907
Ni 7.189892909586492 0.44260819712422994 4.852610630789981 -0.6951314211050544 2.0267229747261997 0.24465923484943028
Ni 0.7928652966909394 7.434465013031839 2.5515955094419502 0.7829389649383419 -0.8357921041836315 -0.4048782996759091
Ni 7.638272091635227 3.942865746051733 4.061188080330167 -0.408246959037826 0.3039347326812959 -0.43938893185826905
Ni 7.6203618272901 3.8008829149510186 12.548163086238107 0.17755292811923615 0.9098612153849039 -0.784860350330771
Ni 7.865601618171991 8.461756270973616 7.127003069026306 0.07632319734277178 1.9406313851427548 -0.09620450964773108
Ni 6.655896348005812 0.46237535436720434 0.23932534338655936 2.494716714805355 0.5498499514250144 0.0026574922275051007
Ni 1.9659605428871665 6.531841826856618 9.236680625788562 -0.3868237561670435 0.11985145964270971 -0.5953307094656328
Ni 9.066202879912861 4.9689208799555855 1.3576999950367452 0.678832941055347 -0.6851198025053233 -0.11469048426706055
Ni 6.314329110197688 1.7679009899199714 6.775267132015684 0.1300584820826986 0.5825145315375709 0.6843443577918795
Ni 3.586627430246039 4.230954829313979 0.15405895089896018 -1.463143846640551 0.3611363787032683 1.0496670066623537
Ni 5.992621062225143 5.569893709664164 5.156225251512509 -0.9749960002110241 0.7264217465779038 -1.9511536248303172
Ni 5.048168160430776 2.6740791605546272 9.412184975325053 1.1385269030195553 0.28969519204314625 0.17005559130092648
P 0.18308440650190172 5.522199171967267 12.452552952165997 -0.13786769371447222 0.1187908795886793 -1.0383819206668377
P 4.050607039021587 6.16469494198631 12.473087949960997 -2.792720169603881 -1.2857796374933532 2.402972554921823
P 2.3546989958067885 8.32624278976482 1.300467452080788 0.29949212352891 0.9576595658151056 -0.0011420840242431945
P 6.21363462652433 7.782555737551059 5.93032131299401 -1.4351987834908508 -0.9012526477802865 0.9693930522019499
P 4.660828242006617 0.9271200968538195 12.722703800393207 -0.965664438397453 0.8616229492038064 -0.8432344193942898
P 3.993212987888412 6.226699645552916 8.270729993098122 -0.07102106840356802 0.4300010628854659 1.620841944817389
P 4.816841532077946 0.9415746275746726 3.661779260350319 -0.053113334885211756 0.6517157731235809 0.13585169172570796
P 0.24509271918978612 5.594354529129977 3.6241424413766024 -0.8424288927738588 -0.32102048451898907 -0.04772713087263393
Ni 1.3224542189101107 1.020127152203728 2.5905658987281153 0.8078056462730345 0.26515092704487886 -0.03572136466100945
Ni 1.9793684284372213 6.369007297568706 4.499989556785778 0.7221699132800853 0.9489355556785463 1.8604438197485702
Ni 6.693250753239478 5.981901972027656 9.21036110886426 -2.113424172869186 -1.4140715145939324 0.3215385618059882
Ni 8.380370586140849 2.23862965548653 9.950572032941167 0.3853083479637816 0.9173076443606202 0.2930114009005728
Ni 2.531717371719658 5.118961074310808 7.065371909512037 -1.7863327995657687 -0.9887267195335552 0.23094959857282163
Ni 0.6774744711710605 9.450754752149292 8.759185760104918 -0.289632714236327 -0.9935570510426629 1.4629857237961321
Ni 1.2573546938470925 1.11966671706793 11.330853397537886 -0.8661599178422115 0.5399694590865088 0.2841673202463816
Ni 4.269626563814339 6.989866385522451 1.8444387225952403 -0.32107216369253094 -2.2284028778006264 -1.191180010438897
Ni 5.631853299214787 7.990296758348139 8.160990149220236 -1.36754303201509 -1.9288649886354459 -0.874236524202759
Ni 5.314394991547811 2.7916733546151007 4.830939662072536 -0.6221843393233671 0.05903227147280801 -0.20668841203261176
Ni 0.9148490845065284 7.3656661386582405 6.700430197742962 0.14149860559884017 -0.06827898688205661 0.18171117326198383
Ni 5.162487076930906 4.71173489764148 7.3486491318295695 0.194376170324162 -0.9386035776249191 0.33954399724447326
Ni 8.446255095081966 7.350607080123218 9.058574099810189 0.8357795057781412 0.057654674398991024 0.3716807298780179
Ni 4.596423472789731 0.34231161907183855 10.348382914474907 -1.1593142720785519 -0.4890922126206673 0.8181216834870619
Ni 7.835826367623416 7.28503836929398 4.8178791544455475 3.5374805665899722 -2.1620702160116636 -1.2872760195332218
Ni 7.4664508503635645 6.102320303488646 6.944935532444655 -0.1806153690946438 -0.2565405596680485 0.35912191937640087
Ni 2.442996147888105 5.163723200968831 2.5137078565393693 -0.05010925795156531 -0.059383998385271926 -0.8759013134996916
Ni 2.3190859915900552 5.149178442216012 11.228112542099554 -0.6897848120811605 -0.15683317907338148 0.5319303908321162
Ni 0.9633376288847211 3.4665339197001246 3.820314423915082 0.8896811408926033 -0.42183986723091227 -0.6859926920285798
Ni 3.3473065982610777 2.7338732773380814 2.9640648370487854 0.784240714468901 0.18494973480393953 -0.8501198336602134
Ni 1.0823123118342648 3.461553332335636 8.242060035941126 -0.5940996652720091 -0.17177591642614287 -0.19546708939549565
Ni 3.7918691345576776 2.5890211948208677 6.831669577077561 0.03435456622046986 0.2609268616612022 0.7193010763727224
Ni 3.95168102477475 6.577515256637491 6.105628063140497 1.1811113133489852 2.0917572294187137 -0.8635024256147065
Ni 0.556716882309881 7.395396275190831 11.249519142683338 1.9524067805111276 -0.700645151834432 0.38841166947945366
P 0.3843163770729993 5.592676287735421 7.842347147493554 0.09345291504452292 -0.0999079266412473 1.9784206880763864
P 8.175643181611413 1.5824462930183394 7.717236056090046 1.1342825259209046 0.05630510234963207 1.0584519519438351
P 1.5859922546745784 3.1762252268515296 10.470311663190998 0.17646560859232835 0.20853266433020218 -1.579388562768609
P 4.109246236995884 5.943825742538269 3.8899749759939493 0.4464247556591279 1.2396363061680715 -1.3928555426379496
P 6.756121645912951 3.9849751685699735 10.311539199902166 -0.0564259441982125 -0.16539803792425706 -0.02998086263280643
P 6.24115417627377 7.754648207264169 10.396967100566984 -0.03556838402291294 1.8550025941283408 -1.3429905394867065
P 2.6109736749980437 8.321505818086639 5.718686050337305 -0.6367133861774776 0.676795341800028 -0.4020472579850172
P 6.831299642146502 3.785408807468957 1.4067858489865488 0.5196867975780727 0.6271337129088426 1.1624435617361528
Ni 5.014440922082118 2.6590832616419817 0.9763647521398818 0.3319304465632735 -1.4619943064171403 -0.5680597895648217
Ni 1.1895844190378992 1.0802099986894713 6.659571335747762 1.2750087721300944 -0.14042002782268076 0.20206993942399393
Ni 6.531661370792688 0.779696515425593 9.14521737206558 2.6073811697813225 0.5245258708379289 0.344410067087523
Ni 2.684644863097773 1.7246637170021637 8.983697465203404 0.46369408426253694 0.008218017034418105 0.6741319360352519
Ni 6.575521217131056 2.0708596528501118 3.012622857011592 0.09857712364496571 -0.279291480211319 -2.2583423456725362
Ni 3.9941242910112624 6.912252232425836 10.59551568946743 0.3891824862072072 0.43274263018634507 -2.851211223861238
Ni 8.360610647140431 7.3183054446796145 0.40786228429468363 -0.8031411509178297 -0.8068746498183331 0.13769954356772413
Ni 7.518304900334065 3.9230516702321365 8.139635880894991 0.5614515402196847 -0.7930495710097826 0.0940373267930832
Ni 2.92608605383392 8.565635804175352 12.140209671631137 0.23678343164577928 -0.20305132950065677 1.5206871922726586
Ni -0.18404984644393124 5.026314931088761 10.245773791963243 0.5245348696989934 -0.6800591001529642 -0.349108758114773
Ni 8.650603541877148 2.53530844739188 5.7561505337699685 -0.8254832660584558 -0.5094445510247743 0.22397676679941425
Ni 3.42584107728374 2.4286318451992175 11.447645464394187 0.8305198000410987 -0.003714986957741989 0.180373942507799
Ni 1.4210012754226935 3.2759452477796622 12.709432159171419 -1.6582679508743312 0.7324579254696546 -0.6167688247347507
Ni 3.0299114502164772 8.479071030307772 7.994650260890468 0.2504596435812912 -0.46576253675579143 -0.5064494729521923
Ni 5.937446620678316 7.813982161084599 3.570725641892461 -1.9421951300854485 -0.027218212286004732 0.24410567633880537
Ni 3.3019128753792972 8.384466938792077 3.403777616627247 -0.9172379674649493 -0.045082751271251394 0.995176588923957
Ni 3.471009230085607 4.157617484932522 9.156323540520198 -1.4633302516197444 1.367015441646394 0.42751763434197987
Ni 7.23110005178508 6.39523658646104 11.542252262750843 0.7800480165437921 -1.6364020040391751 1.2496060157862736
Ni 0.3431741990574276 0.34383647281205343 0.43637344011542256 0.48280303717784595 0.07417221243804001 -0.7192316565873679
Ni 4.869363269484991 0.17669175043715488 1.5826078011955573 -1.6287969379984077 1.1964705694138749 0.9098244486096976
Ni 5.810983011075646 5.427974038185825 0.32137420425427327 1.0910478836019857 1.1690412695583285 0.3516333243088396
Ni 8.084882804257441 8.965147484111641 11.01985722152027 -1.6403008248729491 0.8061619400220246 -0.02580976197425232
Ni 0.20728266239469567 4.812961726703435 5.844259109264477 0.5260225099881135 0.5701724650324503 -0.6267241361752497
Ni 8.016643343682029 8.760862196938836 2.610743593516532 -0.8076670638126412 0.4890688155818997 -0.6924793281941881
P 8.607573793432861 1.6013851569278714 3.6279987874628024 -0.27120613210002326 0.6621346544640596 0.7675604255997427
P 1.7409769451815036 3.2795814374678667 1.6036047665142197 0.6824543398580183 -0.13983818717728175 0.5649590391523108
P 4.678873848399691 0.9683543074619959 8.100877527483943 -1.001270617636837 0.822442679459919 -0.52706740631286
P 8.139831675724356 1.7171026079234653 12.373318303615283 1.8258012899740363 -0.9189768045329268 0.14373058025315247
P 6.394018508029508 7.645761018288353 1.4438542313588836 0.9380759872562231 -1.251827963138257 -0.6087459544302742
P 1.8735219241386396 3.1248223170408553 5.903685997957832 -0.6925322929193105 -0.3515415359259817 0.5806839060867355
P 6.749201155861207 3.847621035509083 6.097836872580286 0.6840561371274994 -0.03359866189105182 -0.28011166211976923
P 2.313681332475329 8.682580356405676 10.119896664568348 -0.47119193530147885 -0.793490258091627 -0.7932316051136016
