# total energy = -340870.60231971747 ev
CRYSTAL
PRIMVEC
9.19929639840353 0.00000000000000 0.00000000000000
0.00000000000000 9.19929639840353 0.00000000000000
0.00000000000000 0.00000000000000 13.46410015819241
PRIMCOORD
 96 1
Ni 3.5428238671569203 5.136381201934286 6.77339877314665 -0.9547305650937685 0.09086124305794675 0.12716779079846485
Ni 4.390152668789895 5.249964915767638 2.1159099485412445 -1.3219465743322139 0.2394967168118843 0.10989203443715267
Ni 5.569962444373221 5.236027981576537 8.185096135428662 -0.6952761742130349 0.6254504116691486 0.46942095944398515
Ni 2.042289818544845 1.3905196618190854 12.067078745862217 -1.7413148400941816 -0.5219264855418688 0.015197276565728666
Ni 4.722136880729474 2.092315592888877 12.950108177336002 -0.5140640520746567 0.5697274070752317 -1.7420851426013029
Ni 6.13445887524355 0.5636445760148198 0.6910207950842888 0.9770024891180917 -1.9677776065402435 -0.8688487775282842
Ni 8.600247507267957 0.5836898430791166 6.1967850289320845 -2.089833015812807 -2.946561355928474 -0.47694220752169475
Ni 6.002623757162578 8.693675562479063 11.755950259008213 -2.1547772818946758 0.39571540222971846 1.299869025706884
Ni 2.3374860437978144 1.708548540974572 9.097450164342032 0.06090429168454027 -0.7065756583862541 0.962261583363491
Ni 8.156639031648627 6.436269394676983 11.461274713936906 -0.9657274304249045 0.5780091874680497 -0.4707054825833635
Ni 1.7652162073885547 2.88358388167659 4.40636918865265 0.1216517460762421 0.3423300446300427 0.545024505011913
Ni 3.8345243597414944 0.38506139293126074 11.10688653531151 0.6055999526021247 0.17041168908876456 -0.07764294459545983
Ni 2.0309746838550398 3.7477105987108525 1.8641987978238097 1.5452628247294935 0.3510411992507954 0.5427745326354717
Ni 6.216213023201514 4.438697356398107 3.5061057951236783 0.42349102968109 -0.7215232808350218 0.09520717873146828
Ni 8.651009225331652 3.977205448390987 11.794565225978884 -1.382275453129258 -0.8533928479845302 0.7621773069109584
Ni 5.018942982869206 6.430952201302424 4.864377323076819 -1.0964963083110664 0.1093302483964117 1.467502123609247
Ni 1.8586350633031643 6.760369809519681 7.665610022452868 0.46397202051427194 -0.29836443768237003 0.6471988590898338
Ni 4.121137641363905 4.527728147884232 9.968739453627906 -0.5297431533728103 -0.61007315788213 0.30592708052097634
Ni 9.063054914673975 4.066650208219421 0.7671210554159497 -1.277719486193038 0.16343345799871853 -1.9065930646111233
Ni 7.918671629895883 6.240020802532585 4.594152588161634 0.39456586200630756 0.8266225218692216 -2.5044190296947835
Ni -0.047131675666460926 5.736874479992588 2.359112669929735 0.45670094077415535 1.1654242416310316 2.252617270263301
Ni 4.291646601913121 1.0573855378175336 7.776446826352582 -0.9275200661172478 -1.2140756840901479 -0.28571563857010795
Ni 7.5595862904797455 4.698549884514303 7.307249587600599 2.5596028739557792 0.850483130536903 1.517496967470135
Ni 1.4716758555048248 9.326430773348052 0.6729037005655067 -0.10924154533734735 0.6417270373419851 -0.21847357759299793
P 5.148183899338368 8.607349364162697 2.5412274629380227 1.2896373206765468 -0.5779361681382692 -0.502506172033728
P 8.341066527795954 8.036671006047207 7.536449139863218 1.0357128584751065 0.058071707331751606 -0.5960801860371476
P 5.581341974138496 0.780245691726474 9.858036959457031 0.8388676577851617 0.5048409908144919 -0.8814332990615142
P 7.382665420272974 2.5343601881039257 3.6435874413937577 0.8709339421920871 -0.21488894556553315 0.683201759547004
P 1.653702335266753 0.8909481858973481 5.555193893778902 -1.976544039878964 0.016451717798120054 -0.2946656486745441
P 2.1322865361630257 5.9300505071073975 1.6372484735544073 0.5398349903911734 0.8724809749642329 0.781065659175029
P 2.8257387053111485 7.037103046705628 5.73011943657574 -0.22864203348556753 0.06590483022292522 -1.612770223552848
P 3.8698404589887807 6.563118494057243 8.867456712791828 -0.9529575323537457 -0.8774684008764952 0.9419010174292681
Ni 2.7519695467115173 6.4968007656191915 10.818404876570808 -1.1824521436475959 0.01969876398050801 -2.494776107288381
Ni 4.16385917429029 7.114036763299807 0.5417640492996155 -0.7053124754031144 0.5925788577521084 1.0171667200418029
Ni 6.468844103568527 3.5672020028707276 10.462710397843015 0.1435043231749593 1.944059179877381 0.9980443973900553
Ni 6.390420100942032 -0.2090135359619378 7.529178935842606 0.6326680124635103 1.1370919703452416 0.11067185002597067
Ni 5.41804526204197 3.162451355649557 1.5439961249063712 -0.05351725519184977 0.6499674229739064 -0.867892584262602
Ni 6.792410959214471 6.8395481544588295 6.413825871016237 -0.9475831554157099 0.32264824993039914 2.1037172299940674
Ni 6.453628467164513 7.09838875996049 0.6918432121910112 0.19478471861649035 0.23844667828081514 0.3246346842328086
Ni 9.195892756072986 0.9455128931323965 3.9897762870524653 -0.3416307045701729 -0.01595600910862413 -1.2780395885366183
Ni 7.540138977687675 2.04898690639377 1.4685425751183634 -0.07899225953450267 1.0525489561958388 1.1821438683785574
Ni 5.556770653198278 2.7455392384609696 8.598982603999788 -0.7673742777308655 -0.10040492088232386 1.5099698058551543
Ni 3.4917953694948487 1.2605612002232518 4.745233554441421 2.738521057853658 -0.010566976882568899 -0.267194696947785
Ni 2.166655107871246 6.370328837395257 12.946203995903193 -0.099349483034616 0.1793323886171621 2.167747726012415
Ni 6.330523481458033 5.124109340408921 12.853705069638163 0.4465697658774244 -1.3063425492463696 -0.36748623218069615
Ni 1.256237530870237 3.95182458935914 8.209829363987208 0.6742010987102904 0.8745918506596485 -1.516977090410923
Ni -0.04030119801834693 6.141625127213759 6.34610157014398 1.0347947175362116 -0.4045535693466387 2.0758328448789736
Ni 0.3018629554234588 7.7232509744361035 9.34399131042884 1.9862761795650627 0.30124870120870056 -0.10459041971858116
Ni 4.804902951301975 3.1054341159687344 6.43213707069108 0.1376038985301243 -0.5919273402110387 -0.48680341658649073
Ni 1.6635823797032168 3.586787305110236 12.987713061551435 0.565315136940149 0.24231953097266007 -0.7502085645848564
Ni 4.398156056741221 7.615168439907227 7.1561290643458815 0.1289037996529651 0.617073500459363 -0.8248546313355213
Ni 2.20147444510776 1.2792449714061735 2.570296319935027 -1.307617045083419 0.4530432894169101 1.0279506980311846
Ni 3.5550405329033112 7.553441160420567 3.3752071654259765 -1.0612598537062754 -0.7226465958061877 -0.026182571932638777
Ni -0.020129900592057968 3.3123262941587464 2.875043254809911 -0.17871455252750512 0.013698323422698989 2.2281280268726853
Ni 0.3206295202748427 2.465337866496115 6.514591285112374 1.414888354068273 1.914159049883839 -0.2949782948189565
Ni 4.051931333826179 0.852829980937449 1.3438010345652847 -1.630584883136766 -0.6813127700544073 0.12856518536662376
P 6.161109237191814 4.738447233416486 5.771130820283561 -1.1701388734978817 0.011190726509496856 -0.6241738589495702
P 1.2412334782856254 4.378975523547527 5.996749086420375 0.18112650440310743 0.2699725168032383 -0.19029017318024646
P 7.724814854840386 8.201071633723227 12.82820461975187 1.4954564427303279 0.7798469562765795 0.13045288930763985
P 3.1154337512596437 8.818123645473927 13.061133566813877 1.3895226216099748 -0.6951141947138738 -0.9921974516909751
P 5.562851388181986 0.9742606946816978 5.906431313354492 -1.0707875906910524 1.8556150309013593 0.47648069450424396
P 3.238566334855611 3.3268427840290813 8.136759351921254 3.1847650649605472 0.05222990383899392 -0.5087030448730594
P 8.21330669806261 7.970454469870608 3.2771757822483845 0.9567162280652297 0.07173172131734742 0.660351851532024
P 0.9149914672187095 5.501722062967552 11.523371805142695 0.22517901463763154 0.1890817546944421 0.33071405765766915
Ni 2.8004590385407546 8.400300797932257 9.356028589893564 0.462094600985901 0.23289798054844404 0.6772825658490916
Ni 7.167641063980696 2.5967498169382814 7.082157521223342 0.18644637395412406 -2.985507912395 -0.9812898036395358
Ni 1.3080479687344497 8.138277235843058 2.698070868542763 -0.37866230340217366 -1.258938091820477 -0.019277874393005507
Ni 5.711548816739716 7.81580509648011 9.45104444367984 -1.8201170951050656 0.09493567023763651 0.14449831165711244
Ni 5.6610538782744 1.4731753408336363 3.1795740062171456 -0.9041708498683461 -1.1074962589659958 0.8049216398570203
Ni 4.702707966530395 6.618746639967204 11.8134826592928 1.089139610835679 0.14903810850899496 0.006811623605194721
Ni 0.646278176717781 7.92207536959932 5.052093567721385 0.9014585931435056 0.6238689261146417 -0.13457076813075536
Ni 3.8981466943062846 4.500571824628699 12.870158011420859 0.5019621266048001 0.11638509836066407 0.21093407468284317
Ni 4.008556650848593 4.342905081987587 4.515065316257795 -0.9038931707269273 -0.47123101606953033 -0.6110200951764315
Ni 7.619547305039217 6.516137686853313 8.958379799567133 -1.124182461372425 0.6335218758233735 -1.102257636274876
Ni 2.0040299444189107 9.177310177151517 7.433826387804585 -0.12371557058380629 -0.16708339604647998 -1.64098216721069
Ni 9.178101316650155 5.164015888607599 9.643433011014611 0.45907226921980937 -0.4286993133549069 -0.3339973563946313
Ni 1.5229527341722826 3.5490793887740484 10.550791821930774 -2.571367984911507 0.634182649335824 -1.0751859768690644
Ni 8.170474773578276 4.054617528402946 5.0277375103191675 0.8866282129988923 -1.4191759257000334 0.25789424548246553
Ni 0.7278759366353179 8.239441899407112 11.953172136721864 -0.014286334715685073 0.280239188836569 -0.19563266843908245
Ni 6.611157220358189 8.685607779452267 4.919189491387604 0.5730197046732584 -0.39312964378041326 -1.5923399807229544
Ni 8.599548360734278 1.254627653983476 13.013214431367379 0.18362073157987086 -0.20618730402647714 -1.9810223873652917
Ni 8.850808745923421 6.4278336397903555 0.2584919521644713 0.4285710153071587 1.0204695591627908 -1.2592337686840251
Ni 6.289743000092256 6.693509322588379 3.0696534522484122 0.07488955022003876 1.9592734257239741 -2.1835880354787816
Ni 8.015181449433074 1.8333461972362748 10.654627041267553 0.9208814777548077 0.01793138766744009 -1.2259765492927917
Ni 9.303248546178697 1.0131645195623362 8.352494813832656 -1.5382411419960218 0.22181112660666316 0.8006073287523825
Ni 1.6286066544262747 5.325380748440014 4.04624524866214 0.3266306316169149 1.085506642068782 0.13142605185418654
Ni 8.567488812446499 8.915139426318385 1.3714936768065202 -1.3471706390063252 -0.6435759176252659 0.40655671581959657
Ni 7.7589810420257 8.752624654423999 10.458360970459811 1.051035861985422 -0.16513347140896076 -0.7726818059867079
P 6.2412995047454976 5.886409044531434 10.416083763554173 -0.6268622044150107 -1.7067342739058347 1.0893643252519756
P 0.4565500459295889 2.0715067842154307 1.266116655377051 2.4755056890945433 -1.475366613958988 -0.6000841649902181
P 3.7586393629478354 2.8333557228096513 2.990646214224086 -0.04552935189036675 -0.0128323758779779 0.005014165385139752
P 8.58641176533831 3.145285468388438 8.833863641778201 -1.6155017635513984 -0.5881619596313354 -0.02314018556188918
P 7.2824390849514895 5.009964469489327 1.454270786534816 -2.0044243112289997 0.516460063110659 0.1486151620389634
P 0.8185718007871777 0.5736037344011473 10.244268502902557 -0.06304396373536239 -1.03058093656518 2.1039956804664346
P 3.212173553209228 2.9742429486424666 11.28568958158132 4.347136892918501 -0.35055114698825435 2.3133264152178996
P 6.8023186015404224 2.4815654255146646 12.383807764422851 0.01266114040743626 0.44326281299137854 0.6667880940756711
