# total energy = -381164.9672376358 ev
CRYSTAL
PRIMVEC
9.30538435223964 0.00000000000000 0.00000000000000

0.00000000000000 9.30538435223964 0.00000000000000

0.00000000000000 0.00000000000000 13.61937060216466

PRIMCOORD
 96 1
Ni 4.500074568681804 8.628994576981055 11.813768886240474 -0.7482997775979177 -0.7478012406949444 -0.6427338813399447
Ni 4.772061647993383 7.290442953670892 4.252838881216024 0.03752756463181279 1.4457017399047036 0.6932979674407415
Ni 2.9170984145195 2.9490158828570654 7.305444163789549 0.6991809085840798 -0.14406070989906156 -0.4869692527403936
Ni 0.5448972527511723 2.3111876176296238 4.313840328355067 0.5878945649025616 -0.9688235528517251 0.24048967685277295
Ni 4.041086485372637 7.703294941348092 9.06867584883052 1.153884616422548 -1.1660672745316691 0.9765438043141182
Ni 4.623547713687974 4.75060343167081 0.291883852139388 -1.0921133487520225 0.1930242842819579 0.9127236245343635
Ni 3.484010345577673 0.18467372737040857 3.2755399587962857 1.0486470500382712 -1.774408280214041 -0.6158753663862038
Ni 5.355472025512929 0.31486163772712905 9.358959174860852 0.3697506027348406 -0.2777069093330185 1.6534221927462558
Ni 2.2266388953803165 1.4196294371950646 1.808298592010553 0.11300486903452152 1.1157574705335236 0.037526021969916015
Ni 4.100110538336247 2.608708671611256 0.9342708251623322 -0.6027593978295361 -0.6371970106821154 -0.3391459904751062
Ni 8.01721208256319 2.1771993883023315 2.708865315039164 1.881739753012869 0.14794898920987426 1.8532442166763372
Ni 2.7335962350393825 1.1599999083068928 5.194808981393664 -0.10977119258857225 1.0894427438983947 1.2853330368742382
Ni 5.776531362191216 4.514637495197341 12.049697601176522 -0.8057189389473349 0.04624874655489455 -0.9844535460794982
Ni 2.844376835785366 7.0347589077492305 2.897479872683905 3.0734026166254553 0.09279291286302083 1.3251031176833243
Ni 0.9890599977059925 4.635570270274603 12.152604916219762 -0.49263467855628706 0.9017290731960729 0.02574728416743308
Ni 3.0635558588824594 0.34973542667427077 8.353958123216351 -0.2686265442983051 1.0166028771185331 -3.8506951819112976
Ni 7.349038958954173 -0.16041924304916488 8.053392347473771 0.14940294804758142 2.298576767712551 -1.557136436238628
Ni 5.245268358596953 1.7370919298494094 7.623715294344341 -2.711338583901595 -1.2583266834887232 -0.3857413217361421
Ni 5.657748130899953 7.833607543855169 7.156012718586739 -0.8048758742207494 0.7411752507379945 -0.8953704779678967
Ni 8.63091148615818 1.7971861020138413 12.433668467431184 -1.3307621157413145 2.596701321469973 0.481207667666268
Ni 4.5803707302808885 1.7283448685557325 11.336872590740157 0.41832954008480855 0.9402778800035483 0.13041175165705926
Ni 2.8168422034789935 6.597936249973615 -0.04010155387776698 -0.18042870700513441 -0.06357155410405826 1.0196771451684825
Ni 6.034039263446453 5.793997568625505 5.86117779097625 -0.6164289248968288 -0.36361003705474154 -0.24435558756608242
Ni 6.4569782877644455 3.250296312118108 10.172838798315382 -0.6762551530258418 -0.8969295949249005 -0.45005361066096683
P 2.639546715363645 0.4241180165157675 12.471788904979777 -0.5479661041387401 0.8444772906624554 1.7982370072025224
Ni 0.18019969857253634 3.2307084780508846 6.770121221001211 -0.2722235176209441 -0.32309227944635327 -1.1196925439218717
P 5.769747736996439 4.319010399902691 3.9812556555854512 0.39417376877421145 -0.08692796944181158 -0.0818785799433622
Ni 8.347032125640942 0.9508800056975281 5.509062977522413 -0.9179722745278126 0.1465251122791541 0.39373359591299933
P 7.786699101321736 8.0797907923504 13.49019064063388 0.19976520255021724 0.48547672735526715 0.1471455194719724
P 3.825611005248824 2.684324224879787 9.409514397522997 -0.43336869380611814 -1.3924791331351374 -0.3967348446331683
P 6.127679346210572 0.2752495470664338 5.663764992423881 0.062457752214589206 -0.43430997467346494 2.091015723266999
Ni 0.9466460558160142 6.057544664327121 6.6076008221646925 0.11357282572284956 0.9217194002750707 -0.36984264822801466
Ni 1.0966488516182196 6.03719378874279 2.3515748468070887 -1.3590326805512336 -1.9535671193678164 -0.7006400096281095
Ni 7.47544330003216 6.089778515732757 12.452735199974528 1.2336674901791462 -0.15393940246535426 0.35485800189372435
Ni 1.316935215453555 2.507140401376698 13.43940464443973 0.9986002698935253 -0.3028165599164527 -0.11884795807885982
Ni 1.8522181450891664 7.573345248830858 8.554340269916393 -0.9074824307400823 -0.8642963822709114 -1.3661842039943504
Ni 1.4247753147433662 4.603866825777201 8.29997107480409 -0.20368176399580407 0.14518273931864675 1.8809820489112379
Ni 8.439276400751814 7.103721111203954 1.7922951919968662 -0.011644269107147687 0.4057262494985013 -0.6772727956570788
Ni 2.051679058738067 7.903770141891684 11.179120270847127 0.020434613705268036 -0.9867816799920426 1.1500518729400195
Ni 6.188071290674363 3.174690064233932 1.7653970479803738 -0.8366518810807655 0.4004482889290136 1.2723664494112408
Ni 6.08131061596973 6.163430632902388 8.657370416033118 -1.3071704444643035 -0.6792684859308689 -0.5181446499019334
Ni 8.336675232853855 5.008511464453312 5.522069113235362 -0.5782328734430816 2.040365762320615 -1.2934620937392756
Ni 5.2868727320480495 4.07995507582337 7.241977720334874 -1.0278913055481587 0.4441529289058157 1.158584593001379
Ni 3.29696281465831 5.924580027278877 7.55386163506841 0.987914250934589 -0.36113432182073935 -0.3703761521339815
Ni 6.144056822675329 7.9664605162911535 1.9647984071694022 -0.6756923385438364 1.2153928602396746 -0.4902983171136266
Ni 0.43252915343422993 8.949648816469157 9.545531200639676 0.4519261450933314 2.3273723517880045 -1.4785506681139244
Ni 8.190794722320904 7.043059310593868 8.13938526537497 0.47865199112394985 -1.4158671730417747 -0.017083180734531873
Ni 9.348189123008403 9.196325250335203 11.778671768068815 0.11236646411957422 -1.435679322671695 0.6282176900016406
Ni 3.3850568883468632 7.977738642129384 6.020306377215381 0.049434343371727765 0.19043261229538172 1.3590146828291048
Ni 1.044045513859543 1.966432432662136 8.548238729394836 0.11062299906590625 -0.7365521501436864 0.11452927609884793
Ni 6.708540048416854 6.441903565109385 3.488738411368436 2.6931009778476453 -1.1439295620923653 1.3070084649651426
Ni 0.8163920772303734 3.352869563863003 2.2153951994641994 0.9446474698261537 0.0869002015276697 -0.5059277961207674
Ni 8.235032519544456 4.547355226589435 2.758385778961037 -0.1587753904014169 1.4657077507129854 3.0218432564909246
Ni 0.391657113731871 6.923699145472597 12.78232446952028 0.3763485676673325 0.6435913442442335 1.6602502714116825
Ni 8.072634951781424 8.782747442678316 3.4986253822455975 0.46742475494956276 0.38397805918813227 -0.8024821771775922
Ni 7.482831775210011 7.681445898882608 5.422538722174544 -0.5211397279745155 -0.31572349778610787 0.7589616281871381
P 7.734598254318229 3.83299017504232 12.143085508024622 1.2558080308319275 -0.625714978184445 -0.1932456562641446
Ni 9.30724543184651 8.404083437121297 6.60713834456225 -0.21476039040746886 -2.733347741182835 0.5399234363399217
P 1.7301128915831778 4.657344869665245 0.6043782000866113 0.4923940233003907 -0.2164184948361821 0.1654322335963022
Ni 5.967645346073702 7.079592249571502 10.84927231161631 0.8205945705075868 0.3486454453251092 -0.38782340107615143
P 9.25650317095883 6.6432627771667 4.2048584584049 -0.38666794731546955 0.23229917062218056 0.22031551589774317
P 2.028378376313208 6.09232819104602 10.123700785690497 0.7323797639335515 -1.9262031255325667 -0.12660857586088517
P 8.762861836311734 3.594949137857691 8.997473839361554 0.4760590335857931 0.06184274433840962 0.1685358122222904
Ni 4.188623354320774 2.4121789540341734 3.432285436102106 -0.3126669703479712 -0.02418842432074544 -2.0123839323957085
Ni 9.137189532759333 6.927840041510562 10.498927382266789 0.9530110112995006 -0.9199957327157445 0.4941179479700329
Ni 6.741797492101536 0.5358310167741196 11.556076738375008 0.12089198509208213 -1.1531935038927945 -0.1761964140913417
Ni 4.940275080978275 2.575655946382383 5.447339432557424 0.6472633937791821 0.36729134256107066 1.0971678804567944
Ni 4.853455844946355 5.7044053280558 2.4750070481220967 -0.8197139676748464 -0.2322261512924 -0.1605929032261299
Ni 5.126792204989406 0.394127693278117 0.12201126912400345 -0.724378748005946 -0.756587985748639 0.617421113606769
Ni 3.9884738422296055 5.939356977634578 11.656042621423639 -1.315695194105863 0.845772098214479 -0.4400533049151454
Ni 1.8606674340834841 8.441621357609268 1.547950687450177 -0.46656780626590616 -0.4928100277918867 -1.1267090844490208
Ni 7.518229457296338 4.596710985208225 7.494603086419056 0.26554764826266525 1.3027527750125822 1.3415149833824445
Ni 1.0720361099993092 4.539082739897862 4.7552170412340065 -0.6642843538172108 0.824757957856657 -1.4093707666841533
Ni 9.423469682440157 0.4284292010874277 0.7958346221133615 -0.8263620691189834 0.11435855484893852 -1.397111746811142
Ni 3.068487712590596 5.795235184744716 5.031444584196149 0.334768687343017 -0.40548430869102425 0.28193200315795963
Ni 6.748767224983412 5.44234709385098 1.2240302580534792 0.2652275459190852 0.5954600359546455 -0.7400570779731512
Ni 5.559771739026416 6.925811467721178 13.453854045266135 -1.3128356131698808 1.250281958807376 -0.45751700891754754
Ni 6.12084919409402 2.2727656856279297 13.164497535517558 1.125433817281023 1.9230005594348687 -0.5667130457289401
Ni 2.8271153478068864 0.5154885160357077 10.440201101602538 -0.7253112871225444 1.7967200563373638 -0.5669655280593784
Ni 1.5720051060077889 2.9292698572558074 10.703340621469406 0.24621398093105984 -0.9233893317783259 -0.44360502682214564
Ni 8.31005252821427 3.7348555916347483 0.7775839717779481 0.39385803730600555 -1.1795722509966393 -3.3777374129586475
Ni 3.2849867849934564 3.559514234233944 12.327355381714025 0.18171297303419673 0.4783691697762084 -0.10998973635728154
Ni 3.049579171581286 4.272111262753614 2.712787534544786 -1.178645368306996 0.5434342777066575 -0.7079126320301228
Ni 7.209225559020666 2.3858074947721724 7.77540794794541 2.1288855017295787 -0.39775762947072785 -0.6493498439945655
Ni 7.638836543921176 5.274608235468191 10.206356792762003 0.3199958999092166 -1.312745881669552 -0.4327732263139643
Ni 8.147720098141722 1.6805151929711584 9.810332662152343 0.9926936746011034 -1.2709518284519015 0.7568322405489611
Ni 7.414967607109174 3.0692786702607693 4.868611524445304 -0.5477372759573857 -0.4293976249735121 0.15853910602089472
Ni 1.6268324306273045 8.360645902952271 4.590545237534618 -1.6231963039821786 -0.17647100790896705 -0.6528933383714498
P 1.1913404428144503 0.6118411183393017 6.694765287956184 2.3377035585106833 2.9999451708662526 0.4475789238682292
Ni 6.0816642205752185 0.9509823649254328 3.7497665395251603 -0.07911361560371537 0.03284352889258215 -1.2831319154578613
P 4.044585309890108 8.219669329974392 1.2505264094658366 -0.17094724987726043 -0.8770613952460636 0.38591281431699986
Ni 4.440436360350766 4.6772397814161835 9.727036444637214 -0.08338164685144994 0.4417512614428586 -0.2746462681298238
P 0.6119862823352393 0.4366095644738867 2.8601085185758874 -0.09073885854746953 0.9124207485819642 1.6602908948416308
P 7.742172837183179 8.430454896383297 9.926165156064643 -1.9591063040184904 0.22267218905537778 1.7343042131043036
P 2.8011719362252143 3.5018580727705158 4.866772780496761 1.5513532538979475 -1.3981324747661728 0.4849704771428099
Ni 7.15469600670051 0.878133302425636 1.3261940728867556 -1.1686208941914584 -1.7315312783448567 -1.8329780102281334
