# total energy = -340892.79062198795 ev
CRYSTAL
PRIMVEC
9.03990965776443 0.00000000000000 0.00000000000000
0.00000000000000 9.03990965776443 0.00000000000000
0.00000000000000 0.00000000000000 13.23082155221200
PRIMCOORD
 96 1
Ni 6.296468640734116 2.132659261050208 11.49794119431146 0.07567296535328256 -0.34108845891345774 0.05957271735731031
Ni 4.782347099121498 0.35510572022488623 5.766719103234941 -0.5999106155268313 -0.4565775278224136 0.7487116683243558
Ni 2.898222066627443 1.609167148823159 4.99501910318032 0.08007083731066211 0.017151057857989815 -1.0029672886129695
Ni 3.6717580722769334 4.239907336836118 4.865978916750145 -0.6937772210700052 0.4596823919999825 0.3176214861397691
Ni 5.026713929453944 4.674193623311444 2.6473546374605768 0.27984529583226 -0.2701203552350122 1.0590849575421437
Ni 7.327822861871967 6.270976096285407 2.777917144630171 -0.18980166357960215 -1.6081705199973078 -1.9268528433014236
Ni 5.1025768489623 4.607894927926043 11.76791537594173 -0.35414297810457074 -0.4639653356460525 0.3352119455280227
Ni 5.589394048838848 7.959269571902732 12.38082032784528 -0.9346026839956421 0.13417430402328503 0.21941357290876404
Ni 1.8134148613317145 6.349487709241803 0.3453426180955935 0.6949393596989063 1.4073699342040407 1.1398965296735724
Ni 2.5892831636009808 1.61347918559693 0.2070401405157209 0.7968368059663566 -0.36829895788997863 -0.0018355105468420003
Ni 0.6086435386223017 9.261206360572055 4.571474037029091 1.157153002761175 -1.4100641932067521 0.5566050107606607
Ni 8.47203131169694 2.1929644965173485 1.2411253182769597 0.7153981417738906 1.0007579396664765 0.04000199431423433
Ni 7.254771354180472 0.557588842422666 4.753423909063468 -2.5778867598666313 -0.9544292318032658 -0.4855541175604218
Ni 0.8615160196894245 7.412725690759298 2.699471523012242 0.13556938459859877 0.2492705083691965 -0.7845147940658941
Ni 7.576682527165763 3.7103765651439136 3.8144855854978146 1.0661128109232025 0.43451052072004526 -0.5591234063071403
Ni 7.415184546110379 3.9801636206500364 12.727070552842523 0.766451251695964 -0.13350453164977008 0.16781873155060775
Ni 7.9943625001119125 8.704257543733421 6.8875422114874425 -0.39372048328687675 0.0232402014748632 0.2353585262737947
Ni 6.855785913830043 0.6522177098108358 0.38957851065066856 -0.5157519813000407 -0.09239027810796346 -0.17344147705402385
Ni 1.7594375624298562 6.4789211317299635 9.308015011336387 0.21182779014170613 0.2940339286278162 -0.5426472630289879
Ni -0.03846933436222706 4.682591699124512 1.4429403911716334 -0.18997315616045993 0.2357112816275231 0.1383307493938198
Ni 6.466418937058842 1.7956604793114082 6.962256158513731 0.15290813298736247 0.8646380818810463 -0.3313478345869261
Ni 3.584911662873123 4.691749127325413 0.7540522889649863 -0.1643055761910267 -1.3297100203277163 -1.3885445739674214
Ni 6.032557526324327 5.424732099500823 4.832306158304402 -0.6845510744860469 0.08807133901763543 -0.019770497758707886
Ni 5.476395181601664 2.7203618495961144 9.145924012225743 -0.26291329596361174 0.892821486293798 0.37574281576253354
P 0.19916909141944755 5.590252840229851 12.5075453934835 -1.6498339611743649 -0.46848533500359313 -0.6299403291197022
P 3.953441648525787 6.253330193177649 12.541071705397304 -0.19574913941228866 0.574474949062546 -0.20506578882752424
P 2.2804708193058243 8.397994453883136 1.2839175373042127 0.075003964310716 0.5223841419045777 -0.25200564791217245
P 6.238604180799299 7.838857978974789 5.8506429099365285 1.7162388709621603 -1.4575306142188316 0.7161206217622119
P 4.6125956808031106 0.9605446109723415 12.476544832250182 -0.006648872775085323 0.5827060787230868 -0.12653067143509822
P 4.059732903003772 5.978507908147437 8.155676971006903 -0.2541959706952719 0.7347194678103218 0.17264803461845105
P 4.812558476266031 1.0155705393621608 3.6535055912498455 -0.6121184704469329 -0.3052339111086937 -0.08623917090490309
P 0.21039213891344474 5.53400652407387 3.615387909362461 0.4131194566387788 -1.021367645497028 -0.9414901551440947
Ni 1.4459787047139068 1.175884292288899 2.3530621956099296 0.467455351077182 -0.3116087042867859 -0.14509583603179527
Ni 1.8800118737266214 6.56932926542909 4.8013065010620215 0.10430168483356875 0.2251615311361348 0.3383630895624947
Ni 5.944499769063734 5.636482936793928 9.232454024801289 0.6330865880581678 0.366822116234136 0.3278400785439838
Ni 8.321742818271483 2.0920158284823374 10.115809561559377 0.6382254519466298 1.6386612323869973 -0.7514789466568478
Ni 2.4062611583142575 5.343589872915146 6.8909023458036085 -0.7969602189180984 -1.1035642709014413 0.6272607254050101
Ni 0.413284769006092 0.15161645611322666 8.966897646884526 0.23053359408132554 -0.5046245039283116 0.42661903378711047
Ni 1.4289203957157812 1.2874277341160685 11.350483096512564 -0.14174645994358814 0.3014361346291583 -0.499410820937856
Ni 4.071014709908733 6.694938806249945 1.821593267346873 -0.012616403212429883 2.193440502792829 -0.19134458258668982
Ni 5.675625744404888 7.698269308312973 8.108323213707019 -0.7829402504899227 0.8096866653458313 -0.9005916171575199
Ni 5.511931065370413 2.699787015849568 4.828323174232025 -0.29970938174603867 0.39580770483320865 0.33446066918429496
Ni 0.8713405932024942 7.399473183609721 7.103521918388032 0.04210130004542426 0.43622441808735846 -0.547973817448224
Ni 5.260648704363052 4.326572948052348 7.233316033260413 0.258488941643671 0.16827484525141986 -0.7936627791137494
Ni 8.112694913882692 7.1875144284009 9.181210394495633 0.177800525353668 -0.19947852454773388 -0.39933911502523484
Ni 4.710778136568155 0.23762124995385459 10.135602443144643 0.01783060042351768 -0.3196248897230431 2.152917345867802
Ni 8.33922600301042 7.123511869997759 4.663388219630756 -0.48816635837228833 1.0608394783394053 1.9953796845282281
Ni 7.243390108272343 6.001713355523266 6.862946426049128 0.7274558442693729 1.3730405647945514 0.2944100810203123
Ni 2.1399815876471773 5.2463114080879985 2.559304112127487 0.4177772671257644 0.05200698919491043 1.196434573969617
Ni 2.180950456952691 5.382904438804307 11.37451027165094 0.06020546584530277 -0.12023506823437356 1.033928255770858
Ni 1.2554626145520138 3.1532559900270787 3.7329700106547854 -0.48019002503503105 0.5155406366201831 0.46171022106328863
Ni 3.6154846363928157 2.7567113252089723 2.8554623912739547 0.012995898039035683 -0.4239484289334827 -0.4970199521081763
Ni 1.1134727579364574 3.3158658799360765 8.319010957657158 -0.48455292998941707 0.026061472973742214 -0.6503829132447703
Ni 3.5333209000473143 2.753493117470057 7.4580156367479615 0.6875582367434868 -0.48715128684421266 0.1688137484740254
Ni 4.1295029235906995 6.754222531957262 6.068580661208604 0.8846242951949861 1.2333077928468825 0.2816157574691215
Ni 0.5601408088403506 7.527116704040845 11.44712153575568 0.2689463895315691 -0.8611665783926781 -0.23779541785006145
P 0.38389873558785875 5.528428899987043 7.898747378610496 -1.311239986547987 -0.672114905605223 0.25353005497649883
P 8.592008988974692 1.6698159008467004 7.675821405343103 -1.1331137024237838 0.005829719307899638 3.184684332321283
P 1.7506236507853559 3.4567167079698824 10.34217522034547 1.2459169969704609 -1.0202163055014042 0.9827237078725849
P 3.91373836653333 6.287645689180237 3.9864463576684237 -0.878651622551319 -1.7849040375390424 -1.1442784607913519
P 6.691078764945122 4.108132577818803 10.457190891365105 1.7488821109184782 -0.9433639751280398 -0.07768613912856942
P 6.388314120024499 7.747536814428386 10.340839121739258 -0.5402273407335857 0.30581549464377655 -1.1360840979060176
P 2.331320309562557 8.525764533045564 5.824749897502332 1.0860918251482907 -0.2605849049407512 -0.3103709752249429
P 6.810821404579022 4.005556726095577 1.703256333621404 0.269812079965974 0.06284496035067887 -1.0119342679982704
Ni 5.083466480535146 2.850681183203415 0.4916074478564671 0.5301815264618094 -0.06620462085153114 -0.010460533211691662
Ni 1.4831508120802508 1.164846562937171 6.862284704682588 0.30041437823286327 -0.12780105350708956 1.1162596069809225
Ni 6.844413707831292 0.6332528839246846 9.054221363503546 1.0722801160761792 -0.8508034899907992 0.4162333196774122
Ni 2.731797334960518 1.2594763343162787 9.233485478461429 -0.2602941131732098 1.5860302364548426 -0.1389259597756575
Ni 6.4829438914036075 1.9563087088851683 2.547700484448635 -0.5596823641344039 -0.5134007074590449 0.006822936459104379
Ni 4.0166848545410945 6.945534134144504 10.208835653014656 0.21366664312265782 0.45420542804581127 0.888441097837915
Ni 8.15212699859378 7.224252620117053 0.45182823062522665 -0.2572041613939764 -0.5633227891004685 0.037971851258082986
Ni 7.684736563972648 4.122777231012742 8.250197359482526 0.16180826369046972 -1.133265654620616 0.292997774053818
Ni 2.965243954763162 8.262540451748578 12.218213149909095 0.2551423937689412 0.3268378625317145 0.8808815403231024
Ni 9.08366254036899 5.0756198391941965 10.16149545557884 -0.8891550931858043 -1.2851345477101865 0.5459606436729372
Ni 8.578765521734494 2.1561087859792685 5.700763924405941 0.5912933061714655 2.159268999117443 -1.3213421079789953
Ni 3.872245182483836 2.5969128471168355 11.178535884206022 -1.070182610117202 -0.42857410063095225 0.2150498966234296
Ni 1.015814616915393 3.4079011973234183 12.610970092697412 0.04501821658190311 0.8879104221454256 -0.11145989314490481
Ni 3.0125498005433364 8.17769186231752 8.136981534420245 1.063070167442137 0.06381863711785782 -1.2623579161353036
Ni 5.646553395842106 7.5219639556948295 3.811323425197049 -0.5088567968421043 2.116755294124948 -0.7342813518316387
Ni 3.0577583873475898 8.394550248409747 3.4007840766693516 0.48468637024348793 0.7865585639688002 0.729779607306543
Ni 3.699284596335912 4.59214740578787 9.767839041807317 -0.291432229338911 -1.445703796787233 -1.1995435519122437
Ni 7.151065513784873 6.198783379984915 11.594670936639305 0.8940437887366732 -0.8198250393314138 -0.45602345509115655
Ni 0.40357319436025946 0.06252905317436837 0.07404047377755482 0.9510392322851106 0.581392759228302 0.9432793858340336
Ni 4.535937249269404 9.57109445408331 1.4487485329476246 -0.39811012771414017 -1.0762023339487208 0.5131420544810196
Ni 5.911919935661909 5.797076926911414 0.5075665038741092 0.5178757125112629 0.12803399545350208 0.33294886052545886
Ni 7.881408832421623 0.013337482297739352 11.428042807011353 -0.7511012516024548 -0.18225341891869903 -0.8051358127503552
Ni 9.230380269589752 4.633857547662458 5.550011683629345 0.2647801739690214 0.3019459843860413 1.5066906208832502
Ni 7.983948524507333 8.683890627902592 2.511633054008401 -0.6514260097973038 0.868478281562743 -0.2984258870479247
P 8.592641782631219 1.621054629656511 3.42442795965006 -0.22374382485300176 0.9265597590865075 -0.7987995861196824
P 1.9825244460841953 3.3641028363822856 1.4331754810604649 -0.6436407094249302 -0.8884639806560506 0.4458102620035806
P 4.827700324475814 0.8984973849678725 8.159566844012677 -1.1241364386258381 0.2159389840966023 -1.7402542600401514
P 8.513054420458726 1.9162980699738263 12.295772860407885 -0.8410939760125192 -0.781461351951551 0.43871170328558634
P 6.152381525142637 7.828019127629399 1.4672450915279447 0.472975766674779 -0.15645754090151762 0.17253799140314802
P 1.9462020901994748 3.2563380766755277 6.1897886701528355 -0.2872966099039826 0.1528698235502593 -2.10645725463305
P 7.105359731964778 3.973835684084754 5.983493418169942 -0.3864833421084892 -1.0675793681664 0.49151907689460506
P 2.108956618658536 8.482698404764129 10.232544623342894 0.6383241823080232 -0.1631480655478158 -0.5820792437723653
