# total energy = -381174.4375037238 ev
CRYSTAL
PRIMVEC
9.21620847032892 0.00000000000000 0.00000000000000

0.00000000000000 9.21620847032892 0.00000000000000

0.00000000000000 0.00000000000000 13.48885268495678

PRIMCOORD
 96 1
Ni 5.63278994142892 8.844721539162252 8.905961401204893 -0.052670590920838325 -0.20436053523038353 -0.004593532907953379
Ni 3.2959834189813573 7.615306977865892 6.786794720159742 -0.9092832313942469 1.2620905214065297 0.7925078395736996
Ni 2.065997452759846 9.03444640672934 11.780139234164828 0.42804676737257247 0.8097902808032312 0.04562294004543756
Ni 3.7234403840366923 4.848979059665675 13.066044545279146 2.121939923649681 -1.4298897125731116 0.6699217546086462
Ni 4.503620079662688 0.3542609157643326 6.9098135924405275 2.42507350058592 -0.8142688853998751 -1.5744934394598369
Ni 8.633163473729311 1.5342959536983254 6.700546676433273 0.5427367374190007 0.4810847689351586 1.1626921874118492
Ni 4.528125977984891 8.447862386227909 2.685239107975354 -1.0328972434031822 0.7597864380812785 0.39983868036947273
Ni 7.863388877466148 8.03831251423013 8.538794107098923 0.3747765951945223 -1.0452321108194516 -0.6603716490263659
Ni 5.676318094033571 6.244220859965951 3.731326693624624 -1.4919373738334758 -0.6841800642998733 -1.4822155185600216
Ni 5.406707131446978 4.421346986649406 1.1888632440275766 -0.35323563579895295 2.3340109401504447 1.5774316961525543
Ni 7.370736453692772 5.322618445365073 7.941440947000087 0.3940156459297924 1.3920538726722607 0.34138979220396043
Ni 6.166436060477648 5.011792598499843 5.661136233820647 0.5408482621470363 0.1458183160201166 0.4452039958781494
Ni 1.9991891575595242 4.1548511025257335 4.980691581396379 0.6113612805659343 0.780387916381714 -0.9987046566818736
Ni 4.519379796146692 2.2970109342733327 2.0637136763009356 -0.9964878515362128 -0.6086487667307776 -0.1329067501647711
Ni 3.6442915856948024 2.199291475864033 5.507646733095759 0.038122517903334346 1.2702038945422833 -0.6635541605194056
Ni 8.287887439602557 1.0374778036964296 9.303760607403193 -0.8077187429861832 0.35433478240040267 0.4746696094374341
Ni 3.815731495657057 2.163901235338549 7.983053971484636 0.1806019993582051 1.1822765373016801 1.2782979844043276
Ni 3.499403572335131 1.5411804614255489 10.617803924597814 0.13204800170890163 -0.033738272792709634 -0.4794369489190905
Ni 5.629877619552344 1.1004798047985678 3.8738369251989893 -0.38968950775061273 -0.18770672872378638 1.0975615163507872
Ni 8.155542685970797 1.1779789018242963 4.093043522041331 1.3103632403699883 0.2751471190256423 0.43588323269785567
Ni 3.988986998687937 6.618242248311193 1.2546347157750033 -0.6795433368588103 -0.30099699020921067 0.49166203023037264
Ni 8.692313099690915 1.8233531161569945 1.8961279847209094 -0.3968189197065424 1.9797723170082746 0.5131268849723678
Ni 5.909838384250947 1.882760795955763 12.412293719067902 -0.24520148050614543 -0.3623203717090405 0.11861424480149896
Ni 1.5228586389868344 5.6977826435606165 6.659446994760514 0.7711273170153945 1.123422186167633 0.6296217694380188
P 4.420065933672052 3.4049558679327445 11.317268988062834 1.0531256546349155 0.9050339691995897 -0.8563203060439704
Ni 7.517873221919167 6.616905898083018 11.356777952153642 -0.9806408572016272 0.27650106195037544 0.04436669904083326
P 0.8188592009544856 3.7173853350717856 9.911365877804256 -0.918674957021792 -1.5093581404130845 0.09396970677994139
Ni 8.106457159658628 3.3563219358356142 10.886555936554984 0.03023848716956728 -0.8959721161076375 -1.12776709339989
P 9.101337647805893 8.012654589849154 4.161566953637953 -0.01293059201873902 0.6993919961536214 0.6252544936082587
P 6.447217067730096 1.3816110279728833 7.546514432981941 0.7371687006817628 0.25051003720325243 1.2818373650161534
P 3.0537630279681345 4.154722075607151 7.063208166218173 0.839466210601109 -0.6317336735746991 -0.3572920652565137
Ni 6.350944554050615 4.569534402641402 10.006408949273816 -0.23525156838228514 0.08588847243370369 0.09510664859786201
Ni 2.100917666653351 4.546355638338904 11.6187044401178 -1.1325688856639076 0.17196360695691676 -1.4626525088264295
Ni 7.968785437531106 3.2443726515483595 8.474425342280657 -0.18321938237639412 -0.680214651894222 -0.305290475378242
Ni 3.5575578477819554 2.3091210322031466 12.87925135362642 -1.2687103407158924 -0.10324161900017058 1.7694187974192492
Ni 1.6261815521460021 5.338553269810011 0.3528711115270297 -0.8354642885305675 2.324799705964822 0.0036602224604066
Ni 7.951781532903627 4.149653160948553 1.3590829279883798 -1.4320808066871593 1.7842260376354109 -1.1857171875521129
Ni 6.205088838801575 7.552249679512932 1.3282445728263166 0.5180906567355466 -0.9571162917171259 -0.07323761643891258
Ni 1.2013696389216084 2.1283543192690715 5.274437950724676 -1.036233506865267 -1.2914463488608274 -0.750971668003126
Ni 6.420655954919043 -0.08559553616677999 11.2422435213905 -0.5121557793083502 -0.7658254451865069 -1.1168954407927085
Ni 1.4891549646113929 6.8997421198243165 2.663036340149848 -0.7760121559115215 -1.8447549482584034 -1.2311742914436474
Ni 1.9359106702032807 2.558640660324751 2.8630363585403376 0.050304661791823045 -0.7263430708211684 0.08347549211683687
Ni 0.1835490862712219 5.763208507490411 10.114805385195815 0.07239018083695276 0.24807263140635338 -0.885657621555507
Ni 0.5477515261123358 4.489390253784732 2.348085318373366 1.8158372367827889 0.5561082736299003 2.0842917742796043
Ni 5.329641196219348 7.8852036429150605 5.126155607785437 -0.8555021810180493 1.0517118050065244 0.5402440529041341
Ni 1.0655503746965924 3.182587189964285 7.624007078661739 0.1032606451635641 1.0038134386633486 -0.9644526774775389
Ni 6.8227683466813875 3.1234283477942113 3.5115394756486618 0.15784696504987653 1.0191891497884704 -0.5764007053303493
Ni 0.5857176969052348 8.592464697125004 9.874811630148987 1.024012539319043 -0.823332281153724 -0.4028949506972932
Ni 6.38269439223038 0.6157560851720867 1.584589724940935 -0.32020570192717757 1.0550400980488088 0.8150276179427705
Ni 1.1339622901707251 2.2077243066142462 11.687376252670791 -0.43418810438362 -0.03699303228458145 -1.1461826197926002
Ni 0.41780390830367026 8.256469384927719 6.7414988987705105 0.7007006876627159 0.8059709070571409 -0.31730009824460836
Ni 1.3783669225913806 0.21199399209357989 3.367384150862369 1.3180595805729818 1.3760559545821076 0.33534230045829994
Ni 3.276214651812826 9.033893434221131 8.908321672194106 -0.4046008776448064 -1.0789750115978514 1.1121910933385037
Ni 3.1357596347273096 6.898949525895881 12.444815875517467 -3.362242402646842 0.6790602265748047 0.3597330705978385
Ni 4.378915562852706 0.051059638166481236 13.02882857385572 0.031106491596817398 0.2999024715934513 1.4380835612378136
Ni 2.6010628679129817 6.811284950927546 10.10997609195744 -1.5862400384728037 0.9848646654749879 -0.8351184751553746
P 4.1259582889717255 8.3864271405657 11.122030984588886 -0.4979445208049747 0.5536875800035496 -2.316172626417443
Ni 8.919879719236556 6.8967929331138595 0.6704607337885232 -0.815648282245905 -1.0688001279473787 0.15818043712989532
P 8.650950756076757 0.062360552992613734 11.60779152766826 1.789134273570306 0.3486935249542253 -1.5323116638854641
Ni 0.7674604063163017 0.9983734311574635 0.24343324404789876 0.3697716857807632 -2.5248274181478063 -0.9200332708218993
P 3.768258805827169 0.2668884946045023 4.684718576101689 -0.8365973736937462 -1.3207073026084737 -0.10345579189350569
P 3.3472992677433098 5.940657385375223 3.48705753946848 0.28433932704787157 -0.24662818565034297 -0.9452889600648946
P 6.455336547392323 2.703593187143714 1.1086066574275708 0.7791735843586387 -2.2895398543212635 -0.7540377085229595
Ni 6.0938768511919355 2.6477521800229042 5.858317014040109 0.24115276435806854 -0.2741377039245214 -0.20007733447399736
Ni 4.547433934729915 4.061444829680478 4.01992120241809 -0.36681157471117476 -0.6632361150583546 -0.5618017244702518
Ni 2.2676665265042852 0.8591404833150934 6.971174186814126 -1.675774335189211 -1.5514432425085927 -1.760440762290355
Ni 7.155012662031312 0.07968149519146664 5.8299762513734645 -1.5370450648053915 -0.15720856013492926 0.6205483463818409
Ni 5.232170575438745 7.138091703280065 12.566646778526447 3.6260152183972716 -0.8591343784539978 0.5081101484840668
Ni 5.399149840501432 3.8928342957185675 7.89990810352923 0.16674683864266768 0.1555095751659515 -0.6091401045448993
Ni 1.8934608139896398 8.0725322962799 0.8321498951893296 0.06802367633814091 -0.40677654513988654 -1.6800516224083257
Ni 8.146667477214015 2.5909066061788453 13.036611661908784 0.937457636945934 -1.4351818142099864 0.6504726447450991
Ni 2.157274781448491 7.64419057521143 4.609127234229287 1.563064885907921 0.2590047049378249 2.4833526959427874
Ni 4.396085359232648 5.605537612982603 10.86282972946936 0.5620984297750643 -0.7990117021304886 -0.6647882900368228
Ni 7.804552602592532 6.359921141100569 3.1658339662071953 1.2502220521037177 -2.10740162082419 -2.091125509371986
Ni 8.953629474654347 4.862093724318738 12.38249679546297 0.006488435937821084 0.21707464036294227 1.2886554163792516
Ni 7.5739077694178505 9.090176819348509 13.298161206946514 0.2560242821532623 -0.4527643247239106 1.0458424907099408
Ni 3.74708917497117 5.775447632338809 5.625175509990859 1.3177839583140918 -0.705639776835546 -0.2866090969186548
Ni 8.78258586165631 4.699676482448788 6.233846174091072 -1.7107426237342793 -2.4730695688492244 0.01982757624888843
Ni 2.8068055058012398 3.979798438843169 9.249292815344441 0.9556595046659412 -0.21672008523700095 1.0259611784049814
Ni 5.907220981045415 6.934459577131477 7.190542988925542 -1.9549377744630976 0.5775810987916956 0.5208615346124643
Ni 3.080831032245048 4.338852704632842 1.820333886262164 0.15719596172943895 0.16706745520688002 1.1640031929137888
Ni 0.6638038664105136 7.189241660289554 11.989080818013084 -0.2699414064549867 -0.10180051567826984 0.5324991188513926
Ni 1.6076201082870634 1.478252189991172 8.94126132288737 -1.1385029917601555 0.056506419727160744 2.803440127124546
Ni 3.910308226978026 5.868042878838688 8.285176952691478 0.588496974373251 0.2038064624991264 0.000287449333431763
Ni 0.25143936434594255 5.966241580088438 4.600899003307112 1.5135680647293739 -0.45858067429537147 -0.5064695275568504
Ni 8.952781583475092 8.805220869659069 1.9993449114826702 -1.2092420101469303 -1.2694366773589556 -0.7019885532362039
Ni 1.3298804498297734 3.070674770510911 0.46651617817279706 0.12634272379400824 1.3959082134213443 -0.05482080449462171
Ni 7.773936358054598 7.113493642873159 5.965634231950252 0.37530547111479884 -1.271104809089998 -1.1778228724057005
P 8.95161112499938 3.3587734472886814 4.108461317191091 0.5341639081483252 0.20829149485367357 0.16807764163894925
Ni 5.816293868278638 1.8744016948733115 9.671642157665604 0.3480705466582457 1.2466726441895626 0.05723301348054015
P 6.944744865784196 5.9764900039072755 0.1332507069243774 0.8062185042915728 -0.5038295188308419 -0.6841062736391444
Ni 7.081144751142833 8.372538314401142 3.422729325967483 -1.5392703545914845 1.3972924953633807 0.7840964755815528
P 0.9487164999201434 6.872158007873073 8.286215619386066 -0.10071756702673622 0.8221691140835582 1.8037021440821517
P 6.2042778124561995 6.763987369058591 9.380498445609286 0.13502508205935454 -0.8851511142327337 0.638193827377746
P 2.924081758584257 0.6020239345515211 1.1560341878359548 0.43180931973879827 2.1307909462824077 0.7170079094631716
Ni 6.375127885076362 4.124308587655563 12.536229604091472 -0.21644060632336917 1.5904391641558158 -1.004258239510251
