# total energy = -340854.63344848604 ev
CRYSTAL
PRIMVEC
9.38866674433152 0.00000000000000 0.00000000000000
0.00000000000000 9.38866674433152 0.00000000000000
0.00000000000000 0.00000000000000 13.74126280130327
PRIMCOORD
 96 1
Ni 5.114213352927346 8.013058111996829 4.0005484752511435 -1.6296302325329806 -1.3026257625164148 -0.07787794342440137
Ni 8.458109083995051 6.0567040576298625 11.13484803047108 1.0590705593644405 1.189976477049099 -2.3591820400994337
Ni 5.267370674324872 1.124668395157836 7.778956399841698 0.3605745926625274 -1.952498826004302 -1.1532444117353882
Ni 0.6420214458529112 7.007954388450438 3.8658980938363796 -0.21791256288320537 0.9671883312411473 0.6363457184254138
Ni 5.5375013952989205 0.017384055434295425 11.169805792408894 -1.291355331808918 1.1850803252990625 1.1025330014234498
Ni 1.8053091829979102 4.41607209018474 1.092074699518551 -2.7269662631365232 -0.9539088405234217 -1.750753102688946
Ni 3.3779953688606192 3.481993630928933 3.448355915542244 -0.13282987418024866 -0.4624571265316423 4.826303104674707
Ni 7.542423022987129 2.831330856159558 8.274040516047581 0.01354328590207345 -2.163776400069493 -2.0905724650819932
Ni 3.042003150332249 0.22228701386256314 7.124253681751208 1.8985388268480785 0.17606991581580644 -3.4842088517500254
Ni 9.048459063284886 7.813933877979778 0.02963814333278451 2.0634265007948205 -2.297960731395107 -0.29055522605059636
Ni 7.3361352362068635 2.9020369057791724 13.566776551447651 -0.8517272873566493 0.22783804952703343 2.34469438800622
Ni 7.954313223871756 5.100524676742855 12.925801003075502 -0.32669516630626316 -0.6400573629490461 2.239021790967054
Ni 2.9985336230797173 2.3755486380167055 -0.1928131721986597 -2.7082961975308453 -2.092019996161797 2.393648963528052
Ni 1.442230660771148 2.3203057226054966 9.743132152514082 0.5383447789988922 -1.2118689062468162 -2.314116772329679
Ni 5.517034101689738 5.844069532097392 5.015176062392561 2.229211746855167 -0.9308069643986356 2.820142527480891
Ni 6.28184428733088 5.696573576776166 7.689555636903457 0.5690188110439813 -0.06448403861599863 -0.5334350004021006
Ni 3.4909222530492703 1.2573114796122138 11.04317990450228 1.580104357888711 0.5840309681820973 -1.2128965761803823
Ni 5.381968741202714 2.039086986148675 9.753891564659094 0.07244340267239137 0.5982052027999504 1.0174616255744025
Ni 7.924156826131986 4.298835807938009 4.011307887396155 1.233015201307128 -2.2163287202449125 1.3487451825822965
Ni 0.21581916130872533 1.7785702599708668 1.1077697337967491 -0.14951890480015542 0.47105720949582747 -0.32804730945878335
Ni 2.6981807836983474 5.5250895777983065 11.6452666561503 1.2850347889075289 -0.6606174464885849 -0.3624085605474726
Ni 7.022093720641003 4.443759268557897 9.672543461229383 -0.8275203510931425 1.8335973889796873 1.458715121445236
Ni 0.28745750554090527 1.3704167484699352 7.829798847126933 1.5177952154368441 1.1513258545564364 0.22871093905028997
Ni 1.486498224701102 1.0719791971143784 11.831158503189009 -0.5091056796281167 0.21997381628760826 1.1511597612922175
P 3.1240319321044674 8.146921723134323 5.332667913004924 -0.42913331556853196 0.18233080912385374 -0.03967392155085425
P 5.3131967569424985 8.787050413761724 2.0396709612232122 1.946062840570971 -0.7500229309366114 -2.5335892235008366
P 7.278141441425246 2.5496520750298695 2.7329723662339207 0.10705327943677692 -0.3574075077884555 -0.697171848573851
P 0.050419018412860936 0.9413077326865735 5.416997857008155 1.4888134834925133 0.8806272582204512 -0.6530668878348366
P 8.69489126051964 3.1523763171531485 9.993855560359899 -0.12677646889731714 -0.629976067453644 -0.08017265299584903
P 6.940215157537476 -0.20803501767048038 8.555379427439355 -0.5834642970453499 0.8558793618518098 1.6288948970288528
P 1.0169803870397929 6.744874556238086 11.668269828660328 -0.4021904684311009 1.2143317659650117 0.8293820868922297
P 8.529322121621497 7.033144181456604 2.285556389070492 -0.010191852931337285 0.44149800778147186 -0.6561941206099086
Ni 8.296370521148535 4.587039712488974 1.6158759308448034 0.6093249668621957 -0.25043907475600097 -0.6416429622686111
Ni 4.257234625377325 0.7638112314943458 3.0756652762526002 -1.2504400816517947 2.3183940595487944 1.8792437260638926
Ni 8.752443787961978 0.7687168098937945 3.3845139202151406 0.4956693516175527 1.0597048505143298 -0.4650487985182184
Ni 0.1975995145298348 8.778778998316913 11.217226070648003 -0.7267498193412839 -2.0315247669902172 0.1943466026378072
Ni 4.012932126751379 8.892682303852057 9.194031280780186 0.7161111086805151 2.347697950719234 1.1817479184917197
Ni 2.072735967935516 6.091207408094885 5.795212787838921 -0.09700849360626519 0.44779283965124816 0.3544756788536411
Ni 6.280971141319113 6.3559114796624625 11.963501150306007 -1.5070593170765787 0.07213229918987576 -0.42513447882178396
Ni 1.526738050576772 2.966424382646962 4.844537043426088 1.174826765891854 -2.4810585005919723 2.806215118766522
Ni 2.4499725996864288 7.582230970190311 8.183265252290814 -1.153810311541187 -2.3642435137827413 -0.8112360121108222
Ni 1.1410140640448032 5.153298372787451 10.074269491443689 -0.8926044851869853 -0.4742507767324607 -2.0730563105751005
Ni 0.2413619681863145 2.9170212179811257 3.074140556765385 -0.44919666197731023 1.2295658093059467 -0.7103816623959056
Ni 2.44171057290841 2.470899937968479 7.346450564412557 0.21819924088568873 0.7729196330291269 0.16511033148050921
Ni 0.3849860373220229 8.267378318091122 6.346402637934306 0.8242609636155804 0.5006475215584345 -1.4151048409544533
Ni 4.38286437573718 6.699132971621599 9.443311650539886 0.6450789845333535 -1.2568773526367063 1.4396683892264301
Ni 0.8019029304077306 8.858751662061419 2.3053580262040376 0.9954475831971568 -1.6967085142387166 -2.7999136020285262
Ni 4.781469613109423 7.4529302511143145 7.04107760489686 -0.8018743683902642 0.3843045892896156 -0.17272722459581866
Ni 8.724493726918611 1.2106404169831997 12.899775618724743 -0.5210538531289284 -0.6593010416700065 -1.9823660458773793
Ni 2.716225801274884 8.372747325511245 11.434874144248045 -0.2308786361255701 -0.8512259222401984 -0.8990592396733936
Ni 6.802492804347976 2.6311081481277023 11.473734774971796 0.22588683933793355 0.36269780965311726 -0.8014825322684842
Ni 3.338562968329165 7.999388213145925 2.3042032201884735 -1.1553522021070102 0.4085493207695932 -0.23519166167862718
Ni 8.010757888632494 0.4933669290494044 6.821204417266829 -3.7897718640633635 -1.3520899306848133 -0.5603608782586671
Ni 7.057254277781549 8.022794159461382 10.674556435667451 1.9639872862598755 -0.4231205337155487 -1.868937201931562
Ni 3.8667224187808227 9.491848241260712 13.240476253649904 0.2214545145981928 -0.5286586620593798 0.7528737701218453
Ni 8.407832773317446 6.147849234858281 5.272962564266905 -0.6377451698761017 2.0267216891746194 0.4808199453095461
P 7.823773200779055 6.590599983492168 9.087289650274897 -0.13085295295953592 -0.6532962302368233 -0.457348087439851
P 7.522274944048915 8.801302409953808 12.837004870278744 -1.84076511037272 0.32538287525274284 -1.7512740081894227
P 1.8292221173201992 0.11161528743764004 8.729439676585269 -1.4712358796200662 1.3176217217046147 2.5734158685794712
P 4.2010997866207616 7.049273911007327 12.280237213241517 0.36898981330941616 1.2941431789667002 -0.8708812345772808
P 3.7419282597655634 5.648278274791928 7.712571953546996 0.1325100289469847 -1.7810959766468617 -0.6801963970617769
P 6.7588918357603385 3.78333228032359 6.135597963559831 0.23129952571307263 0.18175179669193214 0.7996891878134872
P 1.4309454832857174 4.340624763834558 7.9100343935416495 -0.35924533232814254 0.18356365308969033 -0.07110822880073561
P 5.921394591806216 5.325880845780116 0.07735510344256151 -0.20906051180921414 -3.245676555733939 -0.5557213226041269
Ni 0.1803121623635094 6.450962342276853 7.675319601444923 0.31996736066412634 -2.317928175655969 0.47494420325505954
Ni 4.935284141182476 4.614820777530063 10.889937146236933 0.5128939430259555 -0.2957979625067744 1.031689082027694
Ni 3.643563197773171 5.659300569607149 13.732083746542262 -0.6021811567285629 -1.8848392178737992 -0.1471825433574949
Ni 5.67902615853967 3.4954663677771802 4.343544639207244 -1.4342245925030397 -0.4199130825218445 -0.8239706860686712
Ni 6.713356801813303 7.0920486769171625 0.6352794442287119 1.3432993289763768 2.5790789804025196 1.3835640900336945
Ni 7.389584916260571 1.944702718876601 4.840937428577575 0.023951368609274878 -0.3155946855177274 1.4944552551593229
Ni 8.11663388405945 0.01770514783862298 1.256186717330388 -2.613253055181067 -0.04703421857066739 0.5719989767182277
Ni 4.925022328377504 3.2873947343062064 13.26022249764937 3.006777106186422 1.3722872315682946 0.8027449439206755
Ni 4.72266839298359 6.008361812311658 1.796642504681104 1.4617855328404439 0.4415651135739815 0.6012128792780226
Ni 8.058067380603447 0.8782046254360948 10.329416839082462 -0.45202641811662153 1.2441473066645476 -1.0424715173551788
Ni 6.8657818072009595 5.782592541935497 2.9447112129543203 -1.553535349150931 2.681135063735021 -0.5046103628609245
Ni 9.122141320277947 8.481881188315441 8.698383844566711 -0.00487763980727547 0.521106817854051 0.8988322112642521
Ni 0.6954335712394454 3.2494739091284583 11.541176385147413 -0.06822165128155994 1.3830339285618374 2.5318629848383494
Ni 3.555741608589546 3.99484955450767 5.8164433800583915 0.7277175825711919 1.6051638719605 0.7738269753347446
Ni 7.263232238557639 8.691999551147333 4.134444007855735 1.0738196926491572 -1.1112822083709892 0.09804927616595371
Ni 5.609963125608865 -0.1529657925949458 5.797933623475591 -0.09180612346971931 2.1544065288188188 0.2453943132432419
Ni 2.044907959560461 7.314409861247391 13.794991569523441 -0.1675063425165115 1.0629413551737563 -0.0960975517562216
Ni 2.176828116671762 5.9513350502097415 2.587534406673766 0.8886372730091212 0.07204205346891464 0.6517854500192516
Ni 5.267408228992045 3.3491158298047257 7.677655501743072 -0.7220999792740983 1.7572423099577157 -0.08865857897967312
Ni 8.83982410980632 4.262736384118142 6.3861833580037874 1.2625024121329675 -1.1260763359610284 1.0629320992023759
Ni 5.829019499227887 1.4443618881332052 1.2910468371335522 0.3620169815360088 0.2826591111319713 -0.1317710938984311
Ni 1.815514663802122 0.5782339047932079 3.952729178673321 0.9258889582717279 0.0042068389924959804 1.8816037416556368
Ni 2.2201943685895684 2.01920178988067 1.99458564441557 0.990743749963584 -0.9928805938009287 0.7837097816660954
Ni 3.459075895286724 3.627536743557173 9.482598526736046 -0.877775904814585 0.20276773682196692 -0.6989281691433253
P 3.6548108205914285 3.7784595622579173 1.6381646258118685 2.3573593850683983 -0.1862746242629502 -5.817530479142929
P 3.333680861596699 3.241502931021028 11.825744997916049 -0.07615941807139787 2.479978637264232 -4.006661384998693
P 1.6743185038991362 9.738957951257824 0.11975901701406469 0.3678554425946568 -0.5366357667275855 1.0132581290160163
P 4.063799923436955 6.001789745556416 3.7210929304180858 -2.7602445655736783 -0.2542234814990976 0.24432807676225665
P 0.005173155403055076 3.6524824312267143 13.526610896039648 0.6620037853131502 -0.3141944627360912 1.5600777782551392
P 3.8314867523059304 1.9360275907596811 5.426576174870581 -0.23116814234153094 -0.9233361099428874 0.04687660994688056
P 6.8315695054065255 7.457549475176569 5.987838186701716 -0.3081747389045725 0.07220840384344983 -0.04174751625043133
P 0.8057729388598891 4.767996876261177 4.331314961842417 -0.9610439089063061 2.133823305350828 -0.5415429742212158
