# total energy = -340860.76893349446 ev
CRYSTAL
PRIMVEC
9.31447813497726 0.00000000000000 0.00000000000000
0.00000000000000 9.31447813497726 0.00000000000000
0.00000000000000 0.00000000000000 13.63268027241840
PRIMCOORD
 96 1
Ni 1.2174395671879112 3.29686889648158 5.15856577618905 0.8972198724718096 2.2035716776895597 0.006932465453775157
Ni 1.693185859066429 4.824638936034527 3.1268051523137133 2.4535245568377615 1.0694341619869518 -0.5566073247535059
Ni 8.803644333797166 8.314680797260186 1.7652957554529103 -1.1725400267402064 3.714242880487113 -1.080899225203758
Ni 4.805125104068722 8.93123405707526 4.225230836362393 1.0392599523964166 -1.7837295576149668 0.31679950445910604
Ni 4.178670553857633 4.7920662055407695 2.468768932096294 0.26123359426834364 0.46759419064789154 0.12445064897761794
Ni 8.644804535938988 3.2857846673458715 9.802892247620399 1.489720568687815 -0.5719812361064149 0.20183108394031044
Ni 7.143059148659291 5.59844853240268 -0.07149327792531839 0.4569328542793034 -1.2109757050085854 0.4989163977999408
Ni 1.5029842128889812 8.960006480436775 6.65919622042039 -0.3897648410732384 -0.9484614442556053 0.9852924970410256
Ni 4.755972602262728 5.452825979202962 12.986955360726572 -0.5337545885250485 -0.8756496025002016 0.1610878405846774
Ni 3.0357654417486604 8.471853303508876 9.547593575742416 -0.8548267522175794 0.7388417175088114 -0.4535479969674705
Ni 0.13414991032034565 7.768004753391401 4.858605112476774 0.2855845123088824 0.5923014357210058 -1.0370901984386074
Ni 7.922513318856215 4.515137452235104 4.8740103280797555 1.1973617137695765 2.1917764848268444 -5.188743289791064
Ni 6.774848508353674 0.8549871373459039 6.393618090328819 0.30776439084003127 1.4365956638383774 -0.28762622532925947
Ni 1.5720790126609845 6.175992757242672 8.885344417005602 0.12109535935213983 0.5775391898101666 0.17632574058035438
Ni 6.1041688153389355 4.042688485662502 6.190218759897267 -1.4400723095330683 -0.9453049009044946 2.2452698287592945
Ni 2.861295949361306 5.029315281436253 10.737575923899872 -0.6271689370221522 -0.938997213518912 0.7962642212923384
Ni 5.10809713860417 2.1096734402211013 12.132377128976515 -1.085886394005704 -1.5321445421799809 0.46930191736761756
Ni 7.36267591719856 2.6036295371082825 12.04829067643651 0.7248577445248935 1.2993416924485042 -1.14276305258809
Ni 2.4264774749805214 6.540049140241965 5.343288646250848 0.10105695264402596 0.6616101494191573 -1.338522476413024
Ni 1.0649243000718718 3.2093686876573417 11.701365481862759 0.9741022847521611 -0.7376299565888974 -0.002186466128357525
Ni 3.3476514319840014 7.433037486014643 7.5552313320336495 0.5333750936984428 -0.307593926700438 -0.718672441649788
Ni -0.09152220053919528 1.2611337847304387 11.11152055702561 1.7689997076039596 -0.2087211261919244 -1.6586788131595047
Ni 8.326258693743956 1.005963652652516 9.083877863991361 0.1418665304612202 0.04146520912332214 -2.7408975285056343
Ni 4.540724324029886 1.1682218640340607 6.063488762963059 -1.019119987113432 0.6951013391980674 -1.0464240742450237
P 7.662201594775846 4.326323663319186 2.436077907728567 -1.489520793972183 0.1663290343789587 -0.9746895247141989
P 3.461213550994552 6.829673527423236 3.228532295240372 0.39744112667157355 -0.6661054661863497 -0.3590015917484527
P 3.7682466980536713 1.2806383022179793 10.252989260699758 -0.33304142023926514 -0.23527547964168516 -0.6883244254855501
P 0.7932628842252333 7.5822367988682355 10.814968992358432 0.8282703418852897 -0.04531132234228971 -0.31652542486211294
P 6.666707415693529 8.511719270484365 2.4667244041170604 0.21005167207788986 0.49438148604406473 1.4965759010467516
P 5.198727012125549 1.7926086000702526 0.9509057716263212 -2.5057580602211815 0.6646864743516359 2.152493885177138
P 6.816577370982222 8.271377787804802 9.814998275021813 -0.286497511041455 1.7203973732152245 0.606824054817213
P 0.530969039170008 5.448373658592148 4.763149407766142 -0.024304123963003302 0.876929754764206 0.5050109407334529
Ni 6.9074494209385 4.116775845784707 8.557969380862891 -0.594245189710938 -0.1593603163706094 0.15067050190609535
Ni 3.314911040881468 7.248573558448622 11.397493668726883 -0.11055563616308058 -0.41335728368119784 1.496432690600668
Ni 5.096705531685707 1.6768575786673563 3.3015894740664344 0.46547200209856604 0.4712958078691948 -0.6942482471691527
Ni 2.9034160200769974 6.323813527313001 1.0022937482159873 0.13664127750653884 1.1908581083231038 0.11288531273752173
Ni 4.045082306576685 3.3251849104080953 8.756120934239775 0.6706277795367354 -0.22136298332565102 0.5731678002153483
Ni 2.5136330481089435 2.4461962254681637 7.053793846203778 1.4034590291854088 0.43169979074412745 -0.3689759293523452
Ni 0.21150385797019147 3.3445403962433913 2.6511883316830835 -0.7495115385178318 -2.2687547992551123 0.7139902056827704
Ni 3.7315569681666507 8.874555456830903 2.1491239814659573 -0.4661042363659263 -0.40195906914658514 -1.4434803067733528
Ni 8.22289592843391 3.3602073486856274 6.478958271643335 2.3777842285816537 -4.130740509569505 4.298489307114126
Ni 2.9935056538589895 1.700236919113262 13.57874980586465 0.5832053869570085 -0.20283355706289583 -2.456982176369059
Ni 0.9147050518482286 1.157687189116005 1.1405373717339327 0.12447584578859854 0.7192370559040064 -0.378617051986535
Ni 0.2826636775736121 6.7045987132767735 0.685745861608863 1.2348352852350024 -2.599588927430413 -1.96564796179175
Ni 6.441669620803855 6.121754550303824 3.7178087982470664 -1.0216391539908598 0.43111023678924465 0.6167528838951507
Ni 1.6440333572604353 3.786819767714682 9.104667779479513 -0.6848750334843688 0.2942398739910352 -0.7461876163509213
Ni 1.475078036006139 1.4302381376369797 9.09062620349457 0.35591215418985156 -0.6624588705726979 0.39970344034318905
Ni 7.6986864061410305 6.087337553113536 6.572315424400794 -2.3229233148777153 0.14100675356408618 -0.37279581731906763
Ni 0.427695692851309 6.632364934329364 6.755565675448848 3.044490561576796 -0.3057766709860411 1.5970530699279077
Ni 4.6532152780399265 0.38166074692071145 8.19588580436019 -0.6797891343210293 0.6411737359416764 1.2597824420986432
Ni 0.4149348576278465 8.587576381476977 12.905608296244392 -0.6531267945384945 -0.28683329711431893 -0.06685099618627842
Ni 8.297998566687031 6.402027201306733 2.521419020490909 -0.25129602343965757 -2.347362935977319 1.4737365345547329
Ni 0.3859128062488214 5.2912570392130505 10.877760684688308 0.6478426633214197 0.004757055069011162 -0.4975318587475883
Ni 5.74218024651454 0.11302560506246934 13.599784692131179 -0.2540039092891238 -2.5716634046647386 0.44904265289794926
Ni 5.062847403191337 9.137009510912291 11.266183742829627 -1.305510026042745 -2.3511357727561895 0.7713330052682974
Ni 3.0481723267980416 5.048512421141039 7.048805011644883 -0.2534950879735054 -0.8719366724249887 1.4237290922883543
P 3.5534734582123595 3.6433116010811886 12.1923744778268 -1.2177999270192703 -0.2571146870039636 1.1924341945609722
P 4.078828661331871 5.8127653628089915 9.284836801117406 -1.265588507257459 0.219097584330242 -1.3284949169736926
P 4.576305631003335 7.517221740576435 13.287977874961094 -0.8155081571236148 0.88447594254258 -0.43128352914231527
P 2.4470811009033673 8.836123919508271 0.009832363256851813 0.06225643483706052 -0.2593230075091921 0.4690142109238697
P 8.953234854737902 1.5645529142226213 13.12366302677857 0.04177914081931514 0.2295696875061595 0.27293905563072995
P 5.923458622513829 2.1871792138666715 7.905632689896009 0.14933095715906541 0.5911349262167304 0.26342211727923015
P 7.33981818753551 2.1840309202129995 4.685443372837868 0.1403531791404873 -0.5417113814782799 -0.40115945606342523
P 3.2856822080849537 8.613545146880636 5.699700636937807 1.0061587989670737 0.27074513330320465 -0.2766751256343945
Ni 6.232242891486826 3.4074969548385607 0.26022509943250177 0.0034175103219812107 2.2193230269865456 0.6629340104369035
Ni 5.279232047772546 4.098705757950023 11.016677744984833 0.9597053926005408 0.8025469689772565 -1.3415391517521604
Ni 0.5260267770024393 1.2446751016356516 5.048522667067131 -2.2100434014568324 -2.0536473099208696 -2.75501314197141
Ni 1.2945448182680737 7.2225861640884315 2.9444677201356586 1.102799624821275 -0.24934918412593185 -0.6766392758381379
Ni 7.696814196009704 6.6355039135047695 8.902713124626908 1.0618494076611584 -0.8252269270732756 0.1720746786134843
Ni 5.933592774866477 3.8223917602098663 3.93970854540916 0.3061127141692212 -0.9215270817586063 -2.32072810699861
Ni 7.56129785172784 0.2018745503395232 12.14305152106855 -1.515203543450268 -1.889730227417513 -0.3781599098444584
Ni 5.604428427449002 6.559143820685832 10.554748550165064 0.577855949719637 0.030054910403851463 0.5826371731583644
Ni 2.711500509898734 1.0398683535382118 4.013951457318395 0.11410350141533897 -0.04894531955045119 0.9308000224201003
Ni 8.041449891825845 6.636034838765893 11.604396174434015 -0.2501626811661627 1.808645604130356 -0.6537878251612611
Ni 1.4100164053230113 5.004380423120042 13.180021208970599 1.2099102398585484 0.9990718102133052 -0.9720777981229645
Ni 8.248371026489508 8.551622495372916 6.80325300982371 1.7879903897738496 -0.006395362003382534 1.1250255260990107
Ni 3.1064157593909694 2.3436624487237294 2.0306419550356747 1.2059101175602198 0.09182463541248058 2.545645126224106
Ni 2.157121392504545 0.2054447898586131 11.5403777653166 0.454032907023689 0.5219131158054303 -0.388894265542827
Ni 8.199274411553107 0.9046631128304076 2.955306047045163 0.2901140247481197 0.3868155286369273 3.702888374706242
Ni 0.20750235810741813 8.38425063542372 8.808443152999448 1.0798759261455662 -0.7532195834970383 0.7658976931853391
Ni 4.451249445813403 5.141806235446294 5.162027967760262 -1.937781060178153 1.620869198510899 -1.1334787990726867
Ni 5.670300417741212 6.842229444124862 1.5498583933112822 -0.8867081743072083 0.06788946475312178 -0.723840616114289
Ni 5.565326247691269 5.9669851794475814 7.839404886534067 -0.8441178504405075 -1.5138791682118895 -0.19345674383368616
Ni 9.03659012073408 3.615293650459163 0.33885513060469385 -1.3012682200472558 -0.4582466879947204 -0.0950094608983654
Ni 7.4053548566101695 1.4950482774069447 1.090300664657858 -0.10146807203951555 0.6246402570630274 -1.9673456612091471
Ni 6.326235291661979 1.0903062533448171 10.013230864359603 -0.14330789089343707 1.7461415720588638 -0.7447354572854271
Ni 6.03979645604744 8.084212661541843 7.355090206099299 0.2296789593905141 0.8326309328468305 -0.02601133646209714
Ni 7.2842107522916635 8.367493889024443 4.7593733182773885 -1.950787756850466 -0.21691008976061998 -1.4541411289213084
P 4.017911973476802 3.0745788726801697 5.046259248848663 -0.9012410778160608 -1.0614742837099267 -0.22900378770036042
P 0.9691435200697808 0.08603969863223906 2.9233788098951905 0.7238964090528888 -0.0834405251138434 2.710412986763532
P 7.479973141993496 7.653231752206361 13.464493758223334 0.8847816467084567 1.2688589504786147 0.48706618332957413
P 7.452895953676266 4.60119391692822 10.979542783036731 -0.551940515405456 0.759679480189769 0.32118657778320814
P 0.625542662788916 1.5241932798990716 7.018690371965338 -1.4815557734888354 1.2672368414941595 3.1006200575805116
P 5.806589863719097 6.685420202528518 5.711056848838862 0.10522882463352845 0.7694355311352684 -0.2595117264812305
P 1.843856859485939 3.510403310713607 0.9459290458891708 -0.8147124006951968 0.7278044858580434 0.5487952849082549
P 9.051344254306319 4.8786163375819465 7.919196433145942 0.5669184768715269 -0.7347773176314507 1.3995650934476411
