# total energy = -381169.9312929773 ev
CRYSTAL
PRIMVEC
9.23435076089260 0.00000000000000 0.00000000000000
0.00000000000000 9.23435076089260 0.00000000000000
0.00000000000000 0.00000000000000 13.51540576104178
PRIMCOORD
 96 1
Ni 8.537129594527043 2.1314543787048987 4.979981028347323 0.6645962286306748 0.9923979977375554 1.185717701772745
Ni 6.9850845556129695 0.5588195078531162 3.826143357577261 1.0226418842237615 0.22941902086090812 0.3606152160924757
Ni 5.065752448711961 8.78113807957976 0.5484364038342971 -0.7646630494472895 -0.6268331509492883 1.3541642967153387
Ni 3.4056932087056366 1.7030728459469673 0.6169756022054098 0.9157374716600228 0.002133244292918907 0.5198158669567692
Ni 7.142253205915622 9.328725846577228 1.0590101225939212 1.7435175041724553 0.693482829758038 0.4727819054964181
Ni 0.4477376554312211 5.743987810567357 1.048654721627447 0.01610436176103033 -1.560617709919009 0.7015324395353918
Ni 0.9930897861044673 3.109307486019744 3.1294651503408755 0.14704087557330806 0.970384983801574 -1.0622227318401771
Ni 0.43040016183878704 8.48470618513996 8.53443778127421 -0.4235398806411545 0.9915019682858472 -0.8376931778610862
Ni 7.190844359728344 4.060316335612509 10.809256379298363 0.08204184499410386 0.5124853947336271 -0.8982879087250077
Ni 2.648005492725446 3.923481725730917 1.104164251045737 -3.3305530419633613 0.16084872799067781 1.1202641001546256
Ni 3.607703866403686 1.4355629381551045 11.742359822725623 1.0173441261599316 -1.0883222571407063 -0.1184394097865315
Ni 2.8727049502938606 5.417673556998332 10.371397632333284 1.2184313899556822 -1.0380142529147736 0.6455322700206884
Ni 2.723136170684457 8.622224136979389 8.04883005328769 0.4141227010923126 0.8743285696959331 0.7985519888852505
Ni 5.216410881713591 5.8235417425507485 6.787437128659221 -0.11847257701731209 -0.23258764839687684 0.7983054200920832
Ni 5.690437810384919 5.896760909897972 11.238897477502901 -0.6159275597803779 0.21280532356362705 -0.025472433239491617
Ni 7.211326149761909 0.4675813518257786 8.498351785289914 2.116059296499188 -0.4845544726513139 -0.7111434802625946
Ni 6.846753980904761 2.9729899997819214 3.5507676297896404 0.17328258287865642 -0.21325886616127787 -0.41197762972485175
Ni 2.117519743375481 -0.12509036255756614 2.249085232701097 0.9469164683659885 0.33351296055904495 -0.5786990144462227
Ni 4.7861270726946525 2.0810348234374207 4.626998893156148 0.1492355692317817 1.4766092281168377 1.0406581182955241
Ni 1.3554364764232532 7.0708809087247175 10.214119093256334 -1.1721582179207553 0.09838583356976603 -0.07027981936216929
Ni 1.0228982704274379 7.823794465350826 0.5266996655295137 1.0388755724738041 2.8609770449987506 -0.2973048860696041
Ni 6.401159618289946 8.310149252315576 10.37469614243247 -0.7106228318724342 -0.23173429925764605 -0.04001022184435045
Ni 0.29734332486194376 6.8250809596203705 12.295019095172343 -0.29757330923964237 -2.0388231004238437 -1.0146881765943234
Ni 3.4928193083299326 7.931448526762595 10.111767396063351 0.5384671635093694 -0.396066357811234 0.17536543354961412
P 4.996744145321143 5.771727800315251 9.127358823128656 -0.11015248718739093 0.7455684947096837 0.1669224449885835
Ni 1.0676109969118937 1.3170031084702782 0.6981667845823782 -1.0466032801353653 0.06885414265923624 -0.03285175642269826
P 1.8204414443809684 6.904745703813143 2.253152964220387 0.3359290261997054 -0.535808899950916 1.2560983083788368
Ni 2.025388625627563 7.656920512376724 4.285938304824003 -0.0006592308505537033 -0.0973404230243872 0.17899454566176914
P 6.854630882121456 7.800791697553887 5.686579698628371 -0.9395219756741302 0.3928434799985621 -0.2754849619810353
P 3.4513755420221592 2.3707256418066613 2.8131775548505007 -0.46734299386903383 -2.8518002635954884 -1.2048958173630926
P 2.0219257440844673 0.6154168437934776 9.942648572414246 0.00874200785868817 -0.01462597744329094 -0.1781872192691254
Ni 6.602828605009077 1.3209092388508905 5.980567260416286 0.8139348990992241 0.09859692113930763 1.947008235203376
Ni 8.072872608982637 6.323101651133172 10.542516616361684 -0.3721335011447204 0.2266077766643581 -0.1762979726662125
Ni 7.54546189844294 4.6926569740834045 2.0343385584050795 -1.3431671742738867 1.207724030840507 1.424727708756198
Ni 2.405797706075138 2.9536717379468365 5.500864899754593 0.4922495273027265 -0.10148041333468975 0.07546959109322487
Ni 6.839698936907626 3.7440028839399453 6.278865417149046 -1.2804109169822722 -1.2442689198440764 -0.5401450654324246
Ni 5.948002322385011 1.3346314841123323 12.803319316769539 -0.41126414859759497 -0.13267072289456505 -1.1081359494325238
Ni 3.7460067380595508 4.285302058055152 12.63149852208174 0.04914406582481859 -0.09740135816930967 -1.4884859249497657
Ni 1.5601066271464006 4.277572906450962 8.223921655022329 -1.9141063422690323 0.519543330021673 0.6632888226731609
Ni 1.0369437179662353 1.1344769309213825 3.9130210531655325 1.3318018698597387 -2.38676277793118 0.4266992522057425
Ni 4.647288608693455 6.929087452473412 4.621687294586577 0.5202408703093299 0.269112225685472 0.08448516432827385
Ni 0.36888276380199486 2.3339544569943724 9.831052366653816 -1.852483684361229 -0.915483446667688 -0.7754786520055548
Ni 6.0132984167616295 4.975763700345372 4.617065502020392 -0.7610866449499408 0.960985287754229 -1.9893167661635995
Ni 3.8319508407838025 3.973421094757752 8.592702840965726 1.0885006917000997 1.1837891172914643 -0.705297563004779
Ni 7.111059568975413 1.6687302953902365 10.695375595154568 -0.9820961015909151 -0.028373408936370487 -0.5746821799773457
Ni 2.608584049238841 2.845648302503804 9.993439348583145 0.4436852452407778 -0.26680414637758565 1.2121193316947254
Ni 6.136687811905226 7.959567124892535 2.9335999530879735 1.233283624477166 -0.06042735204812173 0.3207633742028605
Ni 1.9365818741610181 2.0483913934245024 7.917189765720743 -0.936885823602864 -1.4644985608962326 -0.8092495778084127
Ni 4.873991920381476 6.225697719088967 13.737463471529887 0.819703169041569 0.4780495816532605 0.5779418245652239
Ni 9.041334381552605 3.4322604359042694 0.9740162345650945 1.6326952446115495 -0.8461238251269427 -0.5106198022797981
Ni 1.4854007293233422 2.131426675652554 11.82407459279191 -1.2440166946239544 0.8558012003157068 2.0412322240859684
Ni 8.450095838410563 2.850025384774277 12.225725450342374 0.015112944382038486 0.587455163372298 0.9907257522414551
Ni 6.83117563113622 2.716118064090449 0.9323139064354368 0.22470181789089688 -0.35132222082632397 0.008565373071507829
Ni 7.519421029238858 7.246693713255397 8.482066084251503 0.2337220191116362 -0.05367177849184305 -0.34641527044300985
Ni 4.813276063992525 4.027026501044879 1.2572614760887857 2.3517050149960985 -0.1669970069802608 0.9777833331481741
Ni 4.951726685260894 3.183366979288091 10.55564047569248 -0.04752992726016331 -0.15040722094237965 0.31035092062028485
P 2.9989569941797507 8.911148504233758 -0.1570033554236609 0.5453772603656414 0.1595868305591187 0.6767120380576023
Ni 7.551768960026766 7.868377910924339 12.510426948984321 -1.5165358891084462 -0.3771741488924214 0.19251160631159747
P 8.519473515832644 1.414702539739494 2.4233392788198453 0.30145130413780985 1.0047824874448372 -0.2107276150989919
Ni 1.1887010387108754 6.968573536415488 6.66856887165829 -1.8805390478365485 1.171373003015299 -1.6904285947672757
P 9.081309886086105 0.3620124068204924 6.692436898123463 0.07622112454726873 1.128292626886057 -0.05418008558682927
P 5.305596241562182 5.97070959095694 2.5357878151574154 0.6327037507974523 -2.0695130733085323 -0.41852288704253726
P 8.219735723813034 4.730148438256657 4.70994367874654 -0.3224965548438833 -1.6756455229208305 -1.264612259387119
Ni 3.698551409392963 0.21880978863991682 3.9664879441909346 -0.27697620181458105 0.019308470520624812 -0.7846423207826938
Ni 2.4393368681138705 0.42694189747108185 6.017964534211567 -2.1167732918470765 0.3484117320477484 -1.2862362654147976
Ni 0.3216010409301009 4.44303400375548 10.950438521527927 1.6468507101763252 0.8425440781954844 0.11007921074729429
Ni 3.6338278447648023 4.187584158084373 3.543482650458045 1.1430078216090445 2.2717041116914234 0.9431526304481822
Ni 5.327906433050502 1.1181783017918772 2.2786702457351535 -0.7940728700679743 1.0340514116122839 0.21756597817706397
Ni 4.028383950609772 7.654408768964132 2.3956999434954698 -2.3553981475769694 -0.20868024565165993 -1.0808120648065902
Ni 7.382771106372899 6.934129408000159 1.2727336308233388 0.007193946645277933 0.34405525485126554 0.11937143468249764
Ni 2.7448553637227557 6.2545458309306525 8.049356411282242 2.2554830218468704 -0.13123733288214817 1.3432674472971768
Ni 4.70233457370251 0.7229637867361802 9.57909772275354 -0.46096897202189 -0.08170425914902703 1.2038416650669654
Ni 8.751754375392743 6.333490295762459 3.442657391449261 -0.10666041487373243 0.7172349378723132 -0.1626155900831135
Ni 4.8557725462893995 9.083563067676813 5.96067277509243 0.853566397447917 -1.5032096043131853 -1.462231876349243
Ni 7.878387947171582 5.937872239577607 6.474095291068174 -0.16409114618737544 1.5484324807067267 -0.3364980113292979
Ni 2.911129083896054 5.437490473775624 5.6900536613924055 0.2677575114297905 -0.3321551609795699 -0.11691346006030834
Ni 4.078794271526468 1.3353055917193886 7.377803025652403 0.7530398633860644 1.2959048988528132 0.6252403525408715
Ni 8.550463997055658 9.166773802569715 10.472831435058577 1.3477617356231046 -0.7920008180302941 0.4660592420606038
Ni 8.480726179953095 0.7236692911358935 12.677342456536941 0.2341940736520483 -0.4744942602018345 0.6609246933163585
Ni 1.44605316064299 8.977183346672904 11.961188080067103 -0.3494322028924627 -0.1502508978701735 -1.3255448332064335
Ni 7.70564094710039 5.272334110046897 13.257045448682621 -0.7710059609461818 -0.9646251984996613 -2.1625037040046564
Ni 1.574983166255541 5.195522780245636 3.6646613420245298 -0.27194378159699617 1.045867173300289 0.14104506300118935
Ni 5.510598828913467 8.279860581751963 8.030475857674203 -1.3377128360275348 -1.0057728763825646 0.2306508363854802
Ni 6.975240737679795 4.770225520648755 8.310284997272065 -0.5152701565676158 0.138263129380678 2.112248921614162
Ni 9.03688342447588 8.483127111156309 2.31564828000495 -1.0984829997237922 0.24022896699221852 0.7560089733167173
Ni 4.699351878400057 8.086123902354217 12.047254076221675 0.3781048882368069 -0.10743483114591174 -0.8354992555335611
Ni 8.365444544795732 2.8817453797090367 7.636218021359478 1.4341713706676011 -1.299461248745504 0.8047298355611883
Ni 6.009540035993523 2.259544058396325 8.545480217938834 -0.10557669489125043 2.9219723537352 -1.0454593963389092
P 3.2735311803195293 7.618856518455012 6.163917142054899 0.09791120792619266 -1.0258773604419236 0.3963864601548141
Ni 9.060818861701758 8.488649252923699 4.752800300723896 -1.265756143183575 -0.20961664142300027 1.5676062254217003
P 1.5563297776767302 4.794502628853554 12.843162770086863 -0.46245069877373907 -0.19713162158211212 -0.5654861153003744
Ni 2.750626832961249 6.688172474932526 12.638783501413336 0.03913707521077776 -0.050048322806642835 -0.7629769199941182
P 0.2524237489199804 6.1902378120876635 8.495378324338242 -0.11192114905203951 -0.838716219808962 0.21211806768861532
P 4.527112767621852 3.331264341406026 6.786666060368958 0.9640119903956946 -0.009028428750855418 -2.794981969054864
P 5.866047459198405 3.6182587293470427 12.497844222609327 0.35018887855282915 0.11231375650476787 0.9267523347132879
Ni 0.6310358247054578 4.671694997809197 6.070160778569423 0.2993347720154393 -1.1676716429043117 -0.40011661662120773
