# total energy = -340870.8668327363 ev
CRYSTAL
PRIMVEC
9.24023604359556 0.00000000000000 0.00000000000000

0.00000000000000 9.24023604359556 0.00000000000000

0.00000000000000 0.00000000000000 13.52401946717626

PRIMCOORD
 96 1
Ni 2.0245818564847826 7.421544838072514 4.346849920327091 -0.20572373412649733 0.2577561772427045 0.7862939974535038
Ni 2.9836628870955924 7.793344204400887 8.512396250757677 0.42189334617666696 1.0337382512472393 -0.26512778711642726
Ni 8.35588975755026 4.517754548897802 4.6165724022001235 0.7819352062641759 2.68749083074972 0.8950514040655811
Ni 9.148655784693009 2.5228615699141512 4.925285906915213 -1.272872442513382 -1.9000771178694764 -0.21894306103024874
Ni 4.5424906600308645 7.140013334896509 4.827222980874591 -0.4422996777471609 -1.6862217557747798 -0.5454986164348541
Ni 5.5129741415711475 9.142159898952798 5.1251300298668125 0.25359278989363426 0.38984094572681244 -0.13516546429196077
Ni 6.613458500037491 4.220339080448083 12.185398282095948 -0.7072724273429626 1.507367592345617 -1.5626522238505345
Ni 8.423435880965535 5.58944633273186 8.477950499886616 -0.10473208750276801 -0.6940225043115918 -0.31583842609741736
Ni 7.5207942103848895 3.5125832223095097 0.591548805157016 0.32948018525056805 1.5558444569000818 1.6013000181297197
Ni 1.7896303817816102 3.3418883470905816 3.6335924258162264 2.0162608988526114 -1.8055229993409745 -1.0200486695752884
Ni 3.60934697120209 8.237051085423879 0.6938576195299658 0.5291296881585275 0.31761454416123364 -0.5474454557485798
Ni 7.314090136404083 6.724784860489916 6.147734909265993 -2.1830090230468597 -0.2250787416143414 0.08237171752969684
Ni 4.566275026880511 7.1276129385048135 10.669639248044204 -0.4722931387854576 1.01311774678341 -1.1332247740803516
Ni 8.276885741790945 0.0144508047071338 11.826822617165606 -1.2746686151818563 -1.4563761888994144 -3.147118201142051
Ni 1.1289904857900261 8.435762355471141 6.294470777179386 -0.21394200827123155 0.7508389990800037 0.8611064145787042
Ni 5.744063197726087 0.15075629449314493 2.4434925648422636 0.7161746149285989 -0.14072856020203506 -0.03247123315482795
Ni 2.218691489122905 6.224463054957294 0.8130252440494502 -0.9930993946799542 1.2261945788408688 0.09411291722602501
Ni 1.8678766982084973 3.5591540105465804 11.925236672165155 -1.5560416605125524 -0.0376841448143351 -0.40576533026655276
Ni 7.331831389065823 6.18065509721286 13.455168379827619 0.47213887259578036 -0.20572270568523277 0.6034456252632833
Ni 4.856039580119854 3.654596405725291 7.136205433739268 0.5999131866299926 -1.3820458536169553 0.38725698704972017
Ni 5.054399721208186 7.8191429426465024 7.242693606747065 -1.7748813631957172 -1.7902696727263296 -0.4699940583386357
Ni 7.0205648072098805 1.5772250823360672 12.839121861620182 -0.2640749203718807 -0.32061836398456395 -0.3126397166544616
Ni 3.3569406911457773 1.8564465265717403 1.8333293047440613 -0.48252252982294974 0.5664975872840243 0.6619166249159827
Ni 8.19914763833093 8.606281666210604 2.334016099589255 0.11983963256816779 -0.5902892903869833 0.046314823906139585
P 2.617712590004137 6.144304009727813 12.060219884213723 1.569822773457045 -0.7268891731326255 -0.6459050799790746
P 0.2428186114303631 7.331286215155906 0.8560256051883453 -1.1658559298518114 -0.21094435909548834 -0.30091471490804955
P 6.537087951470152 7.316474117230505 3.507873474141963 1.2013142706594213 0.6860471994155991 0.7909281537914057
P 5.654728598385611 4.6289607862853295 0.6556002714073582 -0.6141069616318714 3.1237494445091234 1.17666998974818
P 3.608995842243159 3.5162146349637102 9.005712109536063 -0.17787971533103558 -0.24433244763763076 1.6155786395359208
P 6.843484929079878 7.333143502543932 11.745475277617217 0.09182617807437735 1.156543394201634 1.0932101813606268
P 8.556948047480898 3.3041604644770977 9.150526932434676 -1.0440038948393053 0.7673858476950913 -0.378085090742465
P 0.3758807784641497 0.2096498611415163 4.346633698810276 0.23631446242916077 -0.4570691227468515 -1.3629479564452398
Ni 8.7615268672366 7.118178657792502 10.255547322636255 0.44172246508745217 0.3604732911979727 0.6336108359927539
Ni 8.723946828395299 7.133286443262267 4.271304524813238 -0.0718222241486247 0.44653454176411483 -0.8564586313940475
Ni 6.2795256198590215 3.6580152929569802 9.479796265624406 0.9113730240437402 -0.34498368020280584 -0.5711574546535388
Ni 6.950218892358925 1.4598001662811684 4.032240221172701 0.7422371163436056 0.9159627002969516 -0.6207167536389052
Ni 4.968761216172239 2.8859473939195963 13.376742802826962 -0.9433292652353625 -2.261028891365764 -1.1043535995719562
Ni 3.163782802791071 4.365068893177692 13.506167089041515 2.255583294870161 -0.034473865407153526 -0.6595478675734899
Ni 8.972481449667615 2.5799200257403236 11.202053316399478 -0.5209139851169545 -0.23293551865459886 0.613164395212944
Ni 7.712639985261487 5.618460673022416 2.2544271769062476 0.3119792002523272 0.5080456137947186 0.8185361453166613
Ni 6.16355142081865 4.88352004127403 3.8914550650896 -1.1679423800671949 1.127269584938181 0.13111726236451612
Ni 1.868920844849527 1.557053647669098 5.253824337456222 2.1218352797510165 -1.2424573205566345 0.3956778641235637
Ni 0.1074426893619411 0.1885830476292749 0.11241024010722861 0.7920252435103263 -1.4629831526929709 2.2388348717672284
Ni 4.732266622096926 5.403190900490864 8.523918824752048 1.2730873867376655 1.9988781845997896 0.5387695252411366
Ni 2.744544066064063 5.823593906923798 9.688052699213115 -0.6165153139630479 0.03399486888820597 0.4178274036374094
Ni 1.65474142013781 8.557724227284849 1.979050594770861 -1.367735350531554 0.337628011168683 0.2019123308002071
Ni 6.349464964336479 8.437924570639291 0.3362845201797263 0.9884554681500396 0.6340486948611209 -0.3827472721048247
Ni 0.1515232340613348 3.5934260449853292 7.14881003934129 0.5449885095676549 -0.3360755790798986 -0.5580592267086841
Ni 2.5691921120214274 3.209106159200363 7.187001781789992 -0.9562644852397917 0.5107275315022559 -0.7643475750893998
Ni 8.680942771162098 8.360731641089194 8.135211675027605 -0.8013578337651618 -0.17452519703650587 -0.6624557852489042
Ni 6.616045766050661 8.466162731125895 10.023962065820932 -0.5818750981813592 0.022783316443102695 -1.5822910811273845
Ni 0.8765638772150389 4.629154831236318 9.970623728912269 -1.3967201677996783 -0.18244059522884062 0.7999408988129773
Ni 4.346994992028543 1.9859299502951664 5.76125927647791 -0.9024469251987038 -1.5496815226224794 -0.04415124059591751
Ni 3.910282969476873 4.409385063888999 4.5822218257574026 -1.75619535675044 -0.46307213440782186 1.1524900500678668
Ni 1.2719184525461777 2.2018835002730577 9.247061523480376 0.5332398536721591 0.49333658971931804 -0.28765013658865946
Ni 3.080703843061012 0.9129057244643243 7.662844354743715 -0.35940859737888425 -0.40481170810403183 0.5000528253972292
P 6.71238446409822 6.940442722923445 8.28321807535818 0.191742846466373 0.4684452257942771 0.4914303738355408
P 6.455099339559929 1.8055051068195638 6.116981556605157 0.673616172741098 1.121358875880701 0.2794586019168026
P 1.0409679999276586 0.8658257992368049 11.603824311443281 0.5735745487354638 0.13201226337495975 -0.11249270528479335
P 7.670587672311704 3.3792188995663284 2.9977607147966436 0.5173296101998058 -0.609673608450866 -0.5942899269059443
P 1.577021797149318 4.423457942953496 5.376689904327388 -0.7109444768779111 1.1823752676630732 1.751284549712384
P 6.006439692168867 2.5008790490379624 11.279058669163621 -1.6980560294055467 -2.0214560699003057 -1.7515820263481445
P 1.1036352788609545 6.728249948900412 8.39135655447295 -0.5068377095295464 0.022495095778722548 0.001265754086301046
P 1.7284045796270806 3.928707999584952 1.409270861043947 -0.39785018918453413 -0.8776447785533593 1.564748187147615
Ni 0.377775026795221 2.404410987689746 0.4251857524629957 -0.23675232129752774 2.6830114548221276 -1.0120448254342054
Ni 4.984626700974433 1.692875873124792 8.868848509510068 -0.6539287216144996 -0.557373256385253 0.9313828915067637
Ni 3.0370529693245194 5.923443894560659 6.902645538541751 -0.7626277641848156 -0.25237357277455247 -1.2347861771646218
Ni 7.988442542265471 9.190791259764644 5.655284860578443 -0.07340165282060263 0.1796208663918584 0.9169260926514854
Ni 4.031561063844244 4.760015050088181 2.32645573868934 -0.8308666418575562 0.17955298926840044 -0.9436203141132201
Ni 5.338721775584109 6.7684911756409765 1.843431654501916 -0.2848502052460191 -0.5384982738576211 -0.27671652039529115
Ni 2.250487140377619 1.2957582608103924 13.44848768937218 1.4046823600695486 -0.7375595083622781 -1.5930521762986305
Ni 6.687075458347955 5.803145265183989 10.22812137887307 -0.45751623758659915 0.48985120227387896 -0.2313524904381951
Ni 7.521708993725261 1.3028824825823728 9.56735119555725 0.01133419406589661 0.8938098183489962 0.023177723668043954
Ni 5.6987583217883175 2.9518672358408784 2.2947959189003173 -0.6101006686859557 -0.6583469052868532 -0.1264512243474145
Ni 9.314896866274982 5.0871655972178385 0.6038540271203705 1.3186193097311936 0.15295312729268498 -0.25605590672214606
Ni 1.1670417766551562 5.412116968236302 3.1826883251587392 -0.4542835895819144 1.7033926111271116 -0.7432807271167716
Ni 5.025228296909688 0.09552093718268154 11.979332708406249 -0.38164426884863306 0.21464623342710776 -0.49998957625946144
Ni 7.696155404663286 1.4681071382305981 1.4440132234829473 0.014351640735981733 -0.9210719964990589 2.227413517304164
Ni 1.170322060350426 9.085378650199466 9.624881827430828 0.6491752660899143 -0.32235205884621904 0.5414712404430158
Ni 4.4045154596427825 4.7711680146520985 10.898749969722646 -0.28863975419543836 -1.040986191058904 1.0362409630644347
Ni 3.690855090852724 8.986240160716227 3.252945533746386 -0.6255164890203938 0.8018717972871029 1.2577767245225242
Ni 0.8434071392326818 1.5449212181144805 2.4882032936205793 -0.3706715718872132 -1.031007225469321 0.7990407555962109
Ni 7.1370749399244096 4.148634850940212 7.008890693349025 -0.5347963995260016 -0.2500744923277306 -0.8406805426241845
Ni 0.24223740060097584 6.229369620146557 6.303774770567463 2.268573793592558 -1.4622645293593912 0.42878775930365515
Ni 5.023389489993184 6.652489255893322 12.825923108858706 -0.9606070784792036 -1.0607631165755151 0.8416321079041763
Ni 1.2176875088629704 7.847584388319856 11.845851034668899 0.2761711894147824 -0.06711402003967797 1.0876727964821655
Ni 3.6565553357066913 2.384073228779073 11.133135017973649 0.9666877374556447 -0.8674053602135384 -0.7846189237439262
Ni 6.3833581491090134 0.24464725408752902 7.585879659016924 1.448229905643196 0.8704999399784621 0.510243906997618
P 8.709430418014259 4.541779161877243 12.130057586097806 1.169134343492767 0.3462684604525004 -0.3021524439698925
P 3.772658898047721 -0.0809721859764777 10.122579406007233 -0.1566460027632399 0.7539112102474242 -1.049309880433251
P 4.10162977162236 2.341891552528631 3.745841885821208 -0.11875025615873099 0.5558092543322427 -0.46308987501963467
P 5.197503252443803 5.319298800013808 5.9425758027044795 1.494139009470485 1.4424348962279738 0.8524122292388159
P 8.770360532624426 1.3238762982321 7.713059491965051 0.6238604414742095 -0.6293867706090774 -0.13683076780952566
P 3.206260166585875 8.888552388247515 5.923006831409149 1.3204244812607324 -0.363696940341593 -0.6559964027768057
P 4.697708140349576 0.8236986403773551 0.5500601465886735 1.0948950252622176 -0.5801378037752783 -0.4108154910959506
P 3.11818223930894 7.022560698134327 2.586319813028617 1.2343899701674677 -1.211480669669462 0.23307332978404374
