# total energy = -340866.0120837551 ev
CRYSTAL
PRIMVEC
9.26425094775551 0.00000000000000 0.00000000000000

0.00000000000000 9.26425094775551 0.00000000000000

0.00000000000000 0.00000000000000 13.55916770687441

PRIMCOORD
 96 1
Ni 1.0370031866596052 1.9142258383678257 4.421928852448567 -0.5682857895326987 -0.09623304889282137 -0.6634333186708251
Ni 4.704192048302849 6.433447853572782 9.441641830844812 -0.5299185026084099 0.1604108691223108 -1.906995185145548
Ni 5.634952805854639 1.119297527239019 6.427045329788652 0.70018903813362 -0.13821042176587164 1.9906884497001458
Ni 4.391708866073463 6.846049795077382 0.019052858362672814 0.24371306888607705 0.3883707889391892 0.16742972364230518
Ni 8.973705445250738 4.344322222815139 7.997468332972366 0.38444188619842823 -0.1810300880345592 0.06977536892192499
Ni 8.917212043376004 5.535547393897293 12.8225116075979 -1.3133007257317577 0.38076418023652486 0.2298820765402557
Ni 1.4401926492687096 4.502240643339364 4.016469648373522 -1.519110591814158 -1.1971030607915512 -0.819193576395002
Ni 8.104060950763497 2.1974988375681788 2.526845735676964 1.7315091668576694 -0.4997887731025651 -0.9473859518032394
Ni 6.462389373326254 9.060882046044647 10.216507480264873 0.5244649356930065 0.4420654502491677 1.4081206963271362
Ni 2.1597655437282652 6.5444799003862775 13.207686734368135 -0.8269863329665436 -1.654656065153357 -1.31965623563614
Ni 4.947786260978196 4.282223949157161 0.13983460280374574 -0.8557659762023971 -0.11776655208922299 -0.4940588125973233
Ni 8.322762121320542 6.96615154350376 1.4322003800333316 0.8387023358518911 -1.807815909140209 1.8070445781918232
Ni 2.4909903054907088 4.141166465237071 8.451714008613916 -1.0337243672901681 -1.207955687235339 -1.1554643022048423
Ni 1.152250467624134 6.712598261130916 10.960689004340672 0.5651642131845814 1.6249181717692918 0.7321167400801519
Ni 2.140023425100017 8.301102302759846 0.9671535142891665 0.488627614279423 0.9010153349584998 1.1179609059427456
Ni 3.3766804825045225 5.673325333005369 4.148210075182194 -1.566305504332406 0.6218822347019161 -0.3546204319616215
Ni 2.4864600868097075 3.6171619068837213 0.6819044503758122 0.9203238054791246 1.9556921361306192 0.016834555058835524
Ni 4.725018084284221 3.0272422035092603 11.388670528733472 -0.19533493469300553 0.72997706802933 -0.27014118117061864
Ni 0.24808830077791091 3.937899536648428 1.4711834213171453 -0.7221958814220144 -0.5346884131932276 -1.3446224186631748
Ni 8.768122453941748 4.970946888181678 5.5628926832239 -1.587262566200047 -0.5870530428378727 -0.7433851139051197
Ni 2.0127974677458473 2.5907477589815486 11.64609070942421 0.16170567667433441 -0.24293788128294938 -0.5568384669277056
Ni 1.504115980350321 1.1348707329706407 6.959920408360936 -0.3707155377512712 1.2702720287760576 -0.4739450725665837
Ni 8.644954238473627 7.264905105926921 6.627884098221282 0.28819161091442624 -2.313293762207752 0.2332049702659016
Ni 6.686083975108369 6.180691296775738 13.54042898042495 0.29666879514750194 -0.2581492989160651 -0.3918227520435317
P 5.9958694916919475 7.916042979125628 3.30447769041021 0.11187949718082667 0.5762793492611366 1.3928120909945239
P 5.6118199714038015 4.025400386223184 5.380860344080498 -0.2964651637771281 0.29048863447871903 0.8740017824841334
P 8.77818343039894 5.245900590090541 2.9163194748561656 1.3064438507109244 -0.2932525703771014 0.13018909412329194
P 1.3828191435602426 2.2706771552803025 2.166931441785023 -0.6859500117161025 0.19653024055268734 2.7066108394086226
P -0.005036973204213367 2.9181927063843838 5.9839723407100625 -0.5335722973109134 -0.7736619105117902 0.3683107849645205
P 2.054078969673334 8.857679967212173 12.40952612610681 2.594003462922836 -1.3025938808372146 0.08607487741289692
P 3.6803163051421777 5.355867248052676 1.5951140846328038 -1.0579025071982682 0.7920548111966812 -0.24228070731492468
P 1.9351908381124179 8.006656616996533 3.095069489912291 0.0659469963147703 -1.537643360511023 1.9097586068232981
Ni 3.4109582107656764 5.680412484929635 6.698066357198363 0.15473901554851416 1.2538226249707827 -1.8366737139121658
Ni 5.4298330270897175 6.182525618450253 4.893531102116406 0.6991276867486411 -0.8821053854278744 0.15384581431028344
Ni 3.712528105456781 7.958380605653593 4.7961351061752335 0.6661252636806916 0.13308852715827402 -1.9606852184698362
Ni 6.650277645451785 1.7727792559107176 0.3368842926258864 0.699313320396886 -1.9535115835395327 0.21390832681981867
Ni 2.0077391867646064 1.4191627997679472 0.40510160399102363 -0.4806744208706173 -2.55844124954751 -1.5311271566590596
Ni 5.688796631977295 1.0202904780695723 11.928488236916271 -0.8398143379691472 -0.3273423129719588 0.8111547652509256
Ni 8.975465652918205 6.789176558916511 9.08588996487388 -0.9308133921565389 -1.1280236894953863 0.2576168234513627
Ni 2.830108209004099 0.6954487851644087 2.8538385876367873 -0.8448261893614418 0.9299854969386048 -0.0011996767350559985
Ni 7.7111084853783325 6.710939960223146 3.829990468807051 -0.3890760425363299 1.4417859497900654 1.444788484061815
Ni 2.297876995868072 3.760192676241548 6.1425059074928114 -0.813135028905748 -1.8783255851249971 -0.7878585137271464
Ni 6.4577665121364385 7.862115774745039 6.081259944915923 -0.7681936883083672 0.7199929602334245 -0.7590611298794798
Ni 0.10946916768980394 9.046781856203166 2.5577475709169386 -0.17414750198211298 0.842988879042387 -0.28068784633821336
Ni 0.15930713173134564 7.820510024036703 13.326437755016007 0.4351175581764248 -0.6158195734476039 -1.9543052830854215
Ni 5.667201663172769 6.0732908363077485 2.169073336588801 1.1640756980229372 0.7670210081565049 -0.3538688985075777
Ni 8.08159514237612 3.5198224228729256 10.144372317201993 0.2069709762700371 1.1799170359305677 0.17035666748111308
Ni 1.536790993208994 5.859907345756624 1.7876002044707702 0.23961498755730343 1.2138813086911546 0.8671312806165453
Ni 2.85851240220645 0.8632910712327816 10.268927391027058 0.34707810083798935 1.7674675872301495 1.0547667897827642
Ni 1.067788292338474 4.6807164365694 10.00963490523319 -0.9631059336416574 -0.5748783551485519 2.0804101798370107
Ni 8.880896179920944 1.0694002719918365 8.48550351085362 -2.5237030747353764 1.155603655996184 -0.3649282416455328
Ni 7.468663039812279 7.0233953496998875 11.341863827580323 4.620064378585004 1.7269837681834903 -0.9466997243694922
Ni 0.30865519376519385 0.4876636814209098 11.95850811547234 -0.18227938706062802 0.5594496792983076 -0.15920245063650645
Ni 0.8820317243407516 6.721445620722646 4.839999481248453 1.802435618664902 -0.4256769815888153 -1.143646740744624
Ni 4.602739236900714 2.177812304445219 1.7427464074034178 0.1461042226916516 0.18013200170032204 0.9050859054834477
Ni 7.073728024738496 3.8395873062950856 0.9349519046505326 1.1009723418045492 1.7671847658824082 1.1889395511441523
P 8.8412359218977 8.716159270748014 10.109511867560402 -1.1248257513833788 -0.12495175698375253 0.4792490012780005
P 4.094094806508713 4.348509664213529 9.672540314112297 1.1347946896706327 -0.18179524833535787 1.4611759242809028
P 0.9488723680249138 2.5347083054000024 9.27720971552588 1.2632027806341017 0.7410695783980658 0.8535216602529107
P 6.19700564257787 2.25004566856744 3.276206902420551 -1.6947467625266555 -0.5021248774349094 -0.305958447979544
P 3.871613821592061 2.1841861090516175 13.227483512076583 1.26418648470361 0.45763990764865703 -1.3923981433855568
P 5.845872005671313 8.081048551574119 12.321961353200972 -0.3313889722375067 0.6682603077458233 0.7884179857750422
P 4.66556012212744 7.258596151076693 7.205762128300108 2.034419314929193 0.5938042455187774 0.6426287232206481
P 6.943250315324957 4.048950111963686 12.33930310442585 -0.0598892201564646 0.1994600126049726 -0.24398483449022496
Ni 4.695455859721695 4.225156163727781 3.046120893955363 1.1178207808204554 -1.695013900145113 0.5796485228436855
Ni 6.817793829889133 5.513146435266085 7.293625210084328 -0.7218534104809311 0.13366702536956335 -0.9461004002225966
Ni 5.9073310460184745 3.119523406538816 9.08026285888852 -0.01455501499603945 1.434535181764923 1.2032996765205664
Ni 7.144581015479389 2.952229564122621 7.020652205013907 0.3532739452360561 0.1334860197070088 -0.9618059838833112
Ni 2.0857905004403423 6.519874050045297 8.338047208849753 0.02623347977523224 0.5015155259856847 2.5580026193481946
Ni 5.6726583069419085 6.035696506231056 11.397700394067567 -2.631059230124553 -2.815655181133499 0.26437496811080274
Ni 3.6694400746074223 1.9001441770281084 8.16234791160887 0.16289404055548073 0.05925132946214957 0.566262845565399
Ni 6.657559346644559 8.41778554261099 1.1814226672245522 -1.5477791633934441 0.757669905958908 -0.44473502666153086
Ni 8.927134056069976 2.710747600648232 12.558108034592767 -1.0757441633653797 0.957276471444074 1.4871867465223678
Ni 4.14175937729348 8.101244618495555 2.3718779790584628 -0.0010096722114369709 -0.8023723910726052 -0.3903708500883535
Ni 7.609498181711214 1.3251769745762154 4.713044966445109 0.5770866756537802 -0.31997378842202956 1.28845229922951
Ni 3.249417468146827 2.7605151563830748 4.166705225641808 0.6439870370207554 -0.21945033968397043 0.24460447035209487
Ni 4.806395264026377 0.8455602214708836 4.426621195519993 -0.07724776603957019 -0.4255288860467252 -2.329814128460278
Ni 7.918220078082754 1.4956855120482535 10.943523273882539 -1.7360494779301843 -0.9207187269246981 -1.1024116453542367
Ni 0.8119884291268917 8.504063511069402 8.075189839316725 0.5619143387887161 -0.020779912859828727 -0.07864927437278713
Ni 0.48079701866762137 8.8885855081525 5.081610217810094 -0.10337711613677035 1.1595834665795386 0.016269683694301013
Ni 4.538575035296186 3.9127563597563277 7.311238403860032 1.8571242684570337 -0.6466275599673961 -0.6370196045639868
Ni 7.032557693821585 4.183596734273852 3.739034980078623 0.4822767323607307 0.47280581675581806 -0.05095849332573804
Ni 4.455761896667414 0.22705752485206068 0.44936804755249565 -0.11699547825115333 -0.6874636201471515 -0.8387571003492265
Ni 3.8251165464183496 7.900247431372853 11.252997427425647 -0.6498496664491195 0.09126053537889443 0.6402075153736652
Ni 4.519814927261366 8.96232894516839 8.835980312372687 -0.43448429546780015 -0.7073619017329753 -0.5028067339932825
Ni 2.8324057432226843 8.166038789160018 6.71563878827019 -1.5613386472454338 1.6177473650524654 1.4954806111000436
Ni 6.657651989153374 7.800962454676964 8.532296315630449 0.609685178415092 -2.0641659500640066 -2.1809066319918764
Ni 3.3726968546255236 5.299549866944687 11.676436689611302 -0.42816503811799167 -0.9720600575111518 -0.9522011138036957
P 2.3658024833304454 8.343060095001674 9.570020261008624 0.47049028124876385 -2.086457414472355 -0.930875869963358
P 8.107312702822867 9.226267452779275 6.508861635022585 0.1504964382220763 2.002372056685661 0.08269619074865113
P 6.325324781536045 1.2258642051276827 8.518614869928808 -0.09456388872051456 -1.456475690591756 -0.1315198971195735
P 1.1436532428062014 5.495516565838793 6.801427604282064 0.05746518409600426 0.7912652254158501 -0.8370547729461391
P 7.307900494267466 5.438124531628564 9.356544127948688 -0.6433717720342598 0.17076033067743496 0.6597381292074251
P 3.4256791054162097 1.3122904016001977 6.125883062136328 0.27571533282428645 -0.16494603798850302 -1.3348247158464623
P 8.477910530831231 0.21428582858697232 0.5041281080873214 -1.3045432912541015 1.8834086560748597 0.9229522442409072
P 1.1306740273213698 4.236708684576877 12.535409693508266 2.3786203513297033 1.1050159157463033 -0.2660484991584838
