# total energy = -340887.38566862105 ev
CRYSTAL
PRIMVEC
9.14102335098633 0.00000000000000 0.00000000000000

0.00000000000000 9.14102335098633 0.00000000000000

0.00000000000000 0.00000000000000 13.37881166297393

PRIMCOORD
 96 1
Ni 6.174459721550203 2.3795638148640634 10.963909954437812 1.1643644329079494 0.010143259081588984 -0.0393317077200871
Ni 4.859733734386653 0.4590951079345827 5.623662779949994 -0.20490560910057615 -0.0635674403390002 0.6975924810510373
Ni 2.2177585578623735 1.688118515156601 4.6458328703470375 2.087044654434393 0.7329232951418474 1.3152254535582961
Ni 3.826487283907643 4.83135999743771 4.663399175210048 -0.9678064244411202 0.02541329786678204 -1.2607648606165707
Ni 3.6731923197859366 3.0232929718932122 2.897609383360416 -0.13804098606754292 0.5313135831837237 -0.1841470363969861
Ni 5.599809279122588 4.704455168165102 2.8811674243881016 -1.3417350698130506 0.353057715460192 0.8800089079101617
Ni 5.48915718963581 3.0491255043087127 -0.12434899910156384 0.4244248543492691 -0.07760540648930506 1.2935749651680561
Ni 5.907779501914742 7.968824352865814 12.477146978473694 -0.7357841616294103 -0.5490377399363641 -0.484102986936192
Ni 2.071730707424433 6.611994811453929 0.1829402174397215 0.23072565548747362 0.5782621840191203 0.7719809232649415
Ni 0.4471322504780485 0.1101831549811459 0.35080140251121594 0.28106554139260626 0.5026959194470311 0.07875263271987082
Ni 8.598768846454561 0.45497616274476504 6.342493671965877 -0.9146342112935151 -0.9142045799552643 0.13589308648660467
Ni 9.000169470456493 2.799758383185268 0.9969099679578297 -0.5171810004370835 -0.4369430414209378 0.45316258860359376
Ni 6.988074800356449 1.367533679932249 4.506144319707452 0.6821337232938058 0.1363072912058878 0.006131566819034602
Ni 1.0266009263933524 7.776872000355872 2.1660295058668617 -0.07307692249133221 -0.5627203796297793 0.5909042982631629
Ni 7.770729232562802 4.164110986938963 4.101314897790073 0.7288509248446867 -1.1229904979468532 -2.053098379395935
Ni 7.819094387909727 4.174010715391188 12.256316304517522 0.4928287968449641 -1.8192717163856345 0.7745157738716533
Ni 8.801233375991334 7.368423647234213 9.38036657634413 -0.7589233187500348 0.39213385552604724 0.2443859265833856
Ni 7.1439201100351 0.5862403461252838 0.19066986691266816 -0.17163553419353667 1.1009448310007233 0.13860508610112904
Ni 2.083961396869564 6.843564359819773 9.138772067504089 0.844408642208049 -0.03241106934085386 -0.5532551204518213
Ni 0.09654291971206952 5.2624689478198174 1.0894756283443563 0.19465616345842604 -0.5208666768187868 0.5201974186659042
Ni 6.585558971487323 2.214586622707321 6.856373676052554 0.633614949757812 -0.6362215341427236 0.7927994026721894
Ni 3.81969550344596 4.777693048459861 0.8801288222132344 0.44296507924530165 -1.2587450019730646 0.04871109205245804
Ni 6.530429458749219 5.949681953646042 4.819997705225231 -0.20753327653141032 1.2239263516319825 -0.14652151273472827
Ni 5.431331074964736 3.4021061268227086 8.744525208494505 0.5636274648250809 -0.5027152027207407 -0.07410793485900785
P 0.4918885297465459 5.779064749988818 12.283301519996574 -0.6357515364848406 -0.12697033007567812 0.4774767398689261
P 4.257267157443692 6.203116830227695 12.770008917622416 0.0116290995984961 0.7216338382709572 -1.706414942893203
P 2.5622563105668914 8.943339727347091 1.1480348531002584 0.3620758597984022 -0.004460606874514898 -0.2194912202242349
P 6.772949953269971 8.33702477950996 5.863813007076782 0.29426944167738994 -0.6374402370411731 0.3023915565638921
P 5.135564118547208 0.9747621821158211 12.442094809754488 -0.12306302460147192 0.6486201649173926 0.6389664438777125
P 4.395095509800705 6.56682901433256 8.048866811055158 -1.6895569907955998 -0.0014007370022685553 -0.5525694072387063
P 4.884414497840954 1.4150944252110351 3.524179925174726 0.8290594134454884 -0.7592583334919505 0.46318294895407325
P 0.46741161111633156 6.029464806767942 3.5808122221764926 -0.035840149627060856 -0.7924741581222867 -0.46872213360474757
Ni 0.814347274788724 9.17091464844274 4.270436630002437 0.1648683906730322 -1.0813895345766151 0.08177393604469788
Ni 2.2479330764411305 6.963421459972654 4.6260718057412955 -0.7749901424049105 0.14640889841626398 1.1444252707818612
Ni 5.9764103063646985 5.72678723658321 9.186414167892039 1.238200087942177 0.9707539371052186 0.31203293630839807
Ni 8.984913102232333 2.067215041814646 10.131145345498078 0.2265139313989712 1.3326549618886534 0.882002798411739
Ni 2.8204902244868806 5.6873345791503365 6.607140013872233 -1.6896287245737998 0.07502016226063209 1.5856422569878046
Ni 0.9666358122229054 0.138797300848181 9.027380469216032 -0.35855679090155024 0.4447183144909825 0.15655549993196266
Ni 1.4933690094551717 1.0767851454170954 11.756952245751375 0.49027851961928465 0.6212389446909623 -0.8280086035834708
Ni 4.2030151829617415 7.176480435747773 1.4667859990101906 0.4415553433819686 1.2002629465767716 -0.4574141647910961
Ni 6.070050951115013 8.123179675713704 8.1044963377788 -1.4315246770733734 -0.12072743448975981 -0.5673290820463842
Ni 5.317479627252402 3.0350117640222543 5.026566554314219 0.44876163132242064 0.26153826999295604 -2.0413463810663295
Ni 0.9044448588298207 7.87484549024594 7.003085275048414 0.7817205191502086 -0.9233247970889775 -0.08992510439692256
Ni 4.981501308451368 4.817072577704721 6.607166522840388 1.2013165846522664 -0.25579802507506916 2.0992679359734616
Ni 1.2550442447216514 7.724036884516667 11.340028335639039 -0.9950066390049962 -0.24392004269056058 0.7755740399328385
Ni 5.401869556219103 0.2291736861060762 10.378465791459517 -0.870699714694094 -0.4735455231353199 -0.8157608965643692
Ni 8.654318846273739 7.450692858748545 4.935457058971496 -1.2603025762681714 -0.15569495170388023 0.13910208034220561
Ni 7.572560984071777 6.411934371098075 7.140285639090867 -0.04396637827862106 -0.053742740939094535 -0.35748284111108114
Ni 2.5615707338042717 5.75135830775549 2.700098374459156 -0.599295864760968 -0.8907615184409755 -0.9956018493868338
Ni 2.5155273984267503 5.612241071084754 11.426401866705586 0.34471654258434825 -1.3963967230219887 -0.7185796248256657
Ni 1.2975042988865488 3.7020688130274673 3.8460335344610987 -0.5345668000136987 0.8482642685087133 -0.6808214322402856
Ni 1.6020923429831135 1.4972539444433486 2.253888453252418 0.4045561404498 0.022264210714839076 -0.047937961331859374
Ni 1.308171873312907 3.926051311886989 8.052733463996331 0.9438902799451551 0.10241475222350105 -0.18365492725191596
Ni 3.9428525130829164 2.31915993156554 6.691064664742704 0.5541357232845618 0.27319436617464565 1.2510772010151614
Ni 4.656848717768808 7.11665243692985 5.681205522892518 -0.48260377668284626 1.1909007886355814 0.8487982866353124
Ni 8.198538273460834 7.2816570521570965 0.1613884263300168 0.7400419084644997 0.39754268524644437 -0.13572390789859204
P 0.364095192989582 5.932176893640493 8.067009000398768 0.7803442076279722 -1.1244912508620954 -1.2297162188408821
P 8.783353534022218 1.8956837358072625 7.9665208149434115 1.0120376263453539 1.0324879237799058 -1.0765435193382233
P 2.1883244621872455 3.46336012530688 10.451193602642887 -0.6051500095488997 0.14288005932739908 -0.9019946681526336
P 4.608986318714469 6.590860765118247 3.5116704345127965 -0.6307188591569395 -0.07655639639950042 0.7343767397589224
P 7.229836589926569 4.116897600553238 10.082526983800157 -0.4694574691088753 0.03807212428137314 0.5981540378470408
P 6.856718292638564 7.779596025359346 10.213946564580203 -1.6661635515723239 0.26781099037554523 -1.1322670381527726
P 2.568316809148447 8.834918047594702 5.822592475698701 0.03912267703307455 0.37388493661818833 0.016462773541713584
P 6.99479345263012 4.047380116823627 1.6147426054069673 2.3469366470731776 0.35845703209889235 -2.6315973620162096
Ni 3.059646822359046 2.0462546749254944 0.1966407834639084 -0.517160174501477 -0.6837653453599579 1.9422930891158936
Ni 1.6784747353624208 1.6499547420374518 7.284936851389468 0.02252234947223218 -0.8357198561847994 -1.2818797882183148
Ni 7.548072182111011 0.5855556834650144 8.9235868896625 -1.2904842420578744 -0.8380505612005051 0.7753992049178711
Ni 3.342844871461884 2.1372261408133437 9.059783569324479 -0.5679502605701509 -0.472977823557308 0.6753061588490111
Ni 6.637297164506337 2.0396822790278497 2.0492063114141588 0.29724446514531394 0.04817913080838799 1.176282010281142
Ni 4.244661686034997 7.012773845857752 10.612287688016153 0.39223541410091806 0.36543243497546096 -0.7212008644985965
Ni 7.690827546135381 6.307507318615882 11.37843891639273 -0.10692292450649973 -0.8658061340472186 -0.28285734318570643
Ni 8.060344280163758 4.000395256025441 8.0341771862881 -0.4875446656278894 0.2610839560643568 0.34852203237336754
Ni 3.384765605240187 8.536792707113763 12.401529689761471 0.2894095424819274 0.3926840716025624 0.6896871101610316
Ni 0.31928680988712554 4.649810129672581 10.243407169223488 -0.3435646883680922 0.7864122681989231 -0.1120137087658458
Ni 8.842038904902443 2.6877442811967533 5.76076899145038 0.7605899078191805 0.9299495014943467 -0.10545559593235386
Ni 3.772345001707711 2.624497539589235 11.559226422797826 0.5773157609454509 0.3266812823491922 -1.2884877804531358
Ni 1.216441702474426 3.5650905758561033 12.417222998909004 0.06627609751941488 -0.04847043679656168 0.3490622211475537
Ni 3.349124754607478 8.833830265798014 8.088615637649484 0.6100749576543428 -0.1862867084478082 -0.3249876966968532
Ni 5.991145636249266 8.415308504777599 3.8127071909789922 -0.4420155708478387 -1.0208333702601127 -1.2302602642698102
Ni 3.359801470057338 8.833638304304479 3.667225973746447 0.7877230165905467 0.133524329144112 -1.2444540392716892
Ni 3.437198516045322 4.749365016628425 9.140805945233193 0.5638472941453708 0.14552443892878164 0.06218058729380259
Ni 5.4522914418538875 4.681236968471056 11.409758805216235 -0.8687148230535813 0.5051214981693881 -0.11662781049908948
Ni 8.126214495516233 -0.12259757899865871 2.7376661528460007 -0.16334835448407994 0.9308195628041259 -0.9662892164656456
Ni 4.880200486006719 0.5958265374714038 1.4155450776696636 -0.9807295602606917 -0.9517871661947284 -0.4004408327298459
Ni 6.2725977498633 5.672114775020185 0.2030230460727203 -0.09870876412682356 -0.007013712313671793 0.965696320076653
Ni 8.215842230949349 8.839388008086981 11.490098346669383 0.5892929879119851 1.017718735890531 -0.08328163093847593
Ni 0.2676427694101782 5.234762505586491 5.686650830592418 0.4389518443208505 -0.19060950419287817 1.000466890788619
Ni 7.65213359365314 6.6732579509616015 2.43798043965334 0.29654589641639256 -1.4956857851323146 1.3896853724400842
P 9.016147979537276 1.8262759443596703 3.5644369926757395 -0.9165188299107376 0.7998244278397708 0.32826893855128625
P 2.040815765942047 3.6866936114977884 1.5458814471647706 -1.1323207742088435 -0.23320137072147576 -0.7068757061251761
P 5.231855660112984 1.166824226907782 8.286047119646279 0.043074976812603236 0.1675276826727502 0.04323001433322877
P 8.588165259192714 1.8127015244598055 12.346395606511615 0.29941396199280695 0.0638273788686062 0.5099636567530379
P 6.407564961864314 7.975241351363931 1.3188321349204644 0.04191798039002458 0.1641554237664076 0.3987973835891519
P 2.3351475816698253 3.4670896628955297 5.9965169016588025 -1.3139743547600145 1.4457444202171812 -0.2724803708267565
P 7.063232295586543 4.284260599843896 6.110129768657745 0.13892107467965106 -0.07795867606366574 -0.1290773491163519
P 2.627504936321259 8.935432742018214 10.264197513075509 1.51595919066937 -0.0185358540206584 -0.0036422247382775982
