# total energy = -340860.49493118573 ev
CRYSTAL
PRIMVEC
9.39018401238824 0.00000000000000 0.00000000000000
0.00000000000000 9.39018401238824 0.00000000000000
0.00000000000000 0.00000000000000 13.74348347647937
PRIMCOORD
 96 1
Ni 6.0882384424681435 6.425214583491849 6.8038211660140355 -0.39998137659492405 0.9607960545615583 -0.19949960759365643
Ni 3.8806719284602846 0.567036586676464 4.111239444046033 0.5274091059229948 -0.19661482984669365 0.29618465642223185
Ni 1.2851875255311114 2.7415299338142454 13.545893421429014 -1.0681072156454121 -0.3285592160981954 0.3103735463281042
Ni 1.5058944089569928 -0.09076833506039807 6.856266282361121 -0.10958118806495322 -1.1777148860729263 -2.6575194811986105
Ni 5.529006037667753 2.498624655544134 12.090567970067044 -1.187777155404935 0.24373929413832213 1.9148337073533606
Ni 0.7496615791163999 0.8396392606886913 1.189734427700922 -0.49517647114153435 -0.009268055565487264 1.054120928668649
Ni 3.588834401656636 5.778352982123628 6.320366606625428 -0.45240102784722086 2.153395313945485 0.10665244445393246
Ni 8.422901096161558 2.110199696689829 2.3767842018121805 0.014052364328008058 0.10513832180225119 0.13671378261568715
Ni 1.3942263414918556 8.29544812948612 -0.09205760731594495 0.2951988954701948 -1.4957459489462885 0.2207721438191875
Ni 7.626989105046101 8.79771967848063 3.060632798718447 -0.2910619904836858 -0.09845782445828205 1.4863711925996081
Ni 2.9893744488390372 4.241846573508348 8.923107743706725 1.293464921952753 -0.22766552850491112 -0.7275550888513986
Ni 8.928675183767277 3.9837479776164244 3.846746132888069 0.3199727599807651 -0.7473883215272419 0.4582963102857333
Ni 0.9893591705511521 9.008867354651255 4.409651977647453 -1.3158080655346436 -0.2230833084508674 1.0872051128171274
Ni 3.124123588439165 0.8941004495286089 12.157704968213318 0.8163797610952909 -1.0524396843114843 0.8681208982233243
Ni 8.917228549539225 4.484639169571128 0.5312402664625514 0.3487246353024768 0.2791297578224741 -0.11765805153581672
Ni 6.669021319420609 6.9362659544742415 4.401529468535668 0.8078136166928347 -1.8770384908824578 -0.5213932387462181
Ni 1.6523624981195564 9.163936852306762 8.976542585441535 -0.6119734602286364 0.0766273588467519 2.0329450443765116
Ni 6.191380222911892 4.7044445953383605 8.467126045483838 -1.8077068943661703 -0.46343825949798895 -1.0310997851831274
Ni 3.2179127456744316 6.682721597795285 10.475503282574087 0.5470461634276321 -1.1556946730480935 -1.0662089701814346
Ni 1.2209304968005419 7.224300456780465 2.6472693893449772 2.932775614998291 -1.0996608220819772 1.6624994724571756
Ni 9.382399481769964 3.021085100018803 11.327557305455484 0.27045974085230196 -0.2317355848092267 -1.011022040596646
Ni 5.283020779063925 0.36349965459266165 13.364094765176173 0.13172455693121185 0.7254051323879314 -0.8061336578872502
Ni 8.432770179486974 8.28046139591108 12.894424995817738 0.3297547790681934 -0.19521203596189607 0.49690373824528616
Ni 6.8138742969447605 3.9314634334147858 10.873129682675371 0.6654781170149958 0.7904021060846065 -0.02351196707901112
P 4.69492294881888 5.549777124552456 12.176781126896081 1.979350141869191 3.796152313668411 1.6920463328763569
P 9.082833833580189 6.968690259633771 4.654588352704708 -0.06978436778298949 1.0936917489827358 -1.022297099289833
P 5.232276225029145 4.860941400953393 3.393829390704588 0.07667441003460343 -0.8719538988161692 1.5205792059398844
P 4.456684591969067 6.073984143240757 8.528710627863871 -0.6544218592008342 0.6787581219533536 -0.502083996894645
P 8.095146115771115 4.610739949758592 9.257830240583807 2.5516910753078696 0.8414130499148348 1.2073874734366947
P 8.875939910736314 1.593420313501438 4.982507661314175 -1.112719197927832 -0.8142251766461333 -0.15317784170898135
P 3.488406384372778 0.22379343688835945 10.021060635499664 -0.9204047952287051 0.25994650002580394 0.14777723951870034
P 2.242544949200226 4.3115968598463095 6.878200813036518 0.7183839638750918 -1.1956575865942762 -2.568893041008453
Ni 2.4963991819493443 2.2606961747644805 10.221852816816558 -0.9554576730677804 0.0987226480838945 0.12949103961500277
Ni 9.05085086706604 8.044260708977172 1.5819295454088473 -2.0660744799406285 0.14591138995455516 -2.4356003682591734
Ni 0.35518746376520294 1.8832765114928478 7.058309236179391 0.8664301407844627 -0.9285798748403298 1.7357792549879334
Ni -0.02596479762427265 7.437363730475719 10.324104407822391 1.6570549044028364 -0.26749962978271347 -1.0352580303258752
Ni 2.495657357417748 5.921844382975861 12.521316365994917 -0.8587415138909533 -0.19906020606339267 0.8989183432201551
Ni 6.0889614866318515 2.962941081035946 4.21626677342579 0.6930334009254451 -0.5328184498640244 -0.5033386952373525
Ni 5.999294620148115 7.582874020875969 13.289591167725627 1.3253319458646788 -1.3448946984879546 0.06078602093912111
Ni 3.9635403017683775 4.181261106699984 11.033942216831186 -0.3766920670496802 -1.8849811427683019 -1.8579151397894456
Ni 5.299143724896219 0.7924188426881923 2.061618641035807 -0.8904838392995567 0.23058475903423514 -0.5243888310394323
Ni 4.3849811473706986 1.5718980119011945 6.135310495562323 1.4295459560804478 -1.2159803573120282 0.7500620117046631
Ni 3.148716480189181 1.7204788924512167 8.021906437079467 -0.30829840896663036 0.2193940325247383 0.46674444105308655
Ni 3.7364199227085666 8.021996582845333 13.282760747924574 -1.4354037004128053 -0.6127877285998157 1.0405696723467757
Ni 5.938699763155807 6.2993391677190465 10.151308120916914 -0.9522671911549406 0.033124293357794564 0.910566983202677
Ni 8.581679716475046 5.751600348066431 6.407706585527777 0.86894802211031 1.4893099635129576 0.399151424494461
Ni 1.9473363463605882 8.475683320112243 11.332243946262064 -0.2553460251393151 -0.276558140440556 -0.15390623523457367
Ni 8.4157176054442 5.981105833848083 2.7674562316843465 -0.37354992187627284 0.3792919665663726 -0.495481661086779
Ni 5.536696598318103 2.0604786727049738 9.69179477451259 -2.216819029617769 0.37843193255892243 1.5373469123165266
Ni 5.182358007181461 8.338924681148043 5.36049449169604 0.2370495408229724 1.15814287747827 0.8893679805275586
Ni 7.008683053052374 1.4579950806573236 6.3575977469460225 -0.587538981335356 0.3868414967788564 -0.8345410053853498
Ni 7.9913751930031 6.027390050509339 11.523745479584507 0.3893470368095295 -0.9478063271701096 -0.23857369077698265
Ni 7.779006792919723 9.772740038148898 8.485061296817374 1.436358608126907 -0.8217263701191848 1.077300452108906
Ni 8.025931069917977 2.0856255853077013 13.27307101711249 0.08793404210882276 0.24101366767704302 -0.4400767019539131
Ni 8.352934835592878 3.4717763686074936 6.610890446695275 -0.7931611568869824 0.3143983512167811 -0.3431342856988929
Ni 3.831110537602482 8.15738425495367 1.9466546190062348 -0.6364588469645104 1.1216177859690426 0.4406269180304282
P 6.1546833840577255 0.678547838069732 3.908646225448629 -0.10075124847814908 -0.18380379412495443 2.463851906905699
P 3.0013187628161355 7.980839406617641 5.459062313540541 -0.5522205085397199 0.8961096701267665 0.7385403842183087
P 0.32815030713449583 7.55602748497933 8.031623399424987 -0.0011299998393851506 0.6624838102733623 -0.2808814504062582
P 0.07313826470505039 6.304146941898508 13.048131977782932 0.5519559420244236 0.06701426123702006 0.11347280980987554
P 0.7379942755656571 0.7024777828332834 12.72172448878849 -0.5352944222083426 0.5965105887063469 -0.35914968729054275
P 2.289401967082082 0.11058350121957501 2.881500015687381 -0.625814994097419 0.29477774877237617 -2.5708241965928953
P 2.9011818412345494 2.926460216412497 12.32477136487601 0.8206704180508448 1.2334360908946305 -0.4580114320554628
P 6.074247068391196 2.211444659976838 0.6436295000546075 0.7666718523472023 1.177923402539307 -0.4674077856686983
Ni 4.757799620509644 8.057144041348696 11.291110245494234 0.49982425432619076 1.1327928287492555 0.5443403344606947
Ni 5.2109511172917315 4.235902587071632 6.188003512765537 1.5846492969469161 -0.17779692580924217 -0.7247703270174098
Ni 4.7304647950479035 3.7470965618531897 1.5207712773798834 -1.2153383528526553 -1.578518758569146 -0.6083291786078298
Ni 4.44344443260766 5.964860815624514 1.8761643861734656 0.9766445915580406 0.6727738793454607 -2.0656741591784167
Ni 8.975860858087183 0.30408326568535804 10.866560309987968 0.04329532035352543 0.9152988414607075 0.8750199393360027
Ni 1.4077106456358126 2.3616876030849943 4.931313317468464 1.1088877399968837 0.1619440179373856 -0.07472114296297454
Ni 3.592534134130674 6.671387645774563 3.904180253964739 0.40555964201364997 -0.52389620767373 0.6771434691680661
Ni 5.399214915190195 9.159495295301125 9.438021297345392 1.9250448435584073 -0.7820629900912918 -1.4949100833085545
Ni 7.241061935120969 8.195959130596687 10.86323430683491 -1.864712622327253 0.3265041333413797 -0.384425431138196
Ni 7.305234452196041 0.287486115563879 0.8934731852411325 0.6442832281049354 -0.5105501253841273 -0.09300580020477531
Ni 3.0447671439262254 2.3973796922571253 2.695069181694837 -1.1649524442009356 0.09478397515112064 -0.36932508516164786
Ni 6.5968483656250285 5.035551871396903 13.122401759653266 -0.6362284761212591 -0.35637263876603786 1.157233478290123
Ni 3.17803263446316 0.8390880568911633 0.8901255846650038 -0.28104960055300626 -0.1705731543672933 -0.614969823852799
Ni 6.9131754921553075 4.104590254795102 1.8804519441624146 0.9758915154420998 0.47068799908186676 0.35442631367294447
Ni 7.362495793888136 2.6664178524441113 8.725641565542887 1.9976941915940176 -0.15881164295599098 -1.3058262717315834
Ni 2.2325444032995896 4.483794053016144 3.989445002215407 -1.2514469256497545 1.1392313852857476 -0.971758724220649
Ni 1.3052825191718271 5.162422646667798 10.406030006662482 -1.068076876628109 -0.20326704505588866 1.0949647021578885
Ni 8.01458772771331 8.654754127929275 5.7934420687036585 0.38236469195442535 -0.33867007927995224 -0.06435985433330851
Ni 2.0522716519376907 6.36880774853868 8.474369633378439 0.35685214950561767 0.8903825378350021 -1.2077571980712878
Ni 7.826643196068952 6.69108825168962 8.527570659533039 -0.6254087597979359 0.4645906279348773 0.5248765693091283
Ni 0.7202562180949504 4.303239596135918 8.14118618764982 -2.542855222183795 -0.27405517151304415 1.2532227866032546
Ni 3.749350205999812 3.1298140399093866 4.789604173528852 -0.04050953007827217 0.6115826525481209 -0.5271540524893954
Ni 2.3467759909815094 4.511326072340714 1.1613122189384368 2.2601662862551524 0.4091597006600824 -1.0524535682685552
Ni 3.7384857631763038 8.668050628394347 7.518372847362849 0.7065903136742735 -0.3537555128581649 -0.0213650959393374
P 6.209925836201806 9.007148950989455 7.337316015641603 -1.3552421031605497 -1.260721408973145 -1.0403511285780662
P 5.158826206217146 2.877227481992743 7.755530394040679 -0.13427277727436232 -1.572058604766099 0.3848879725969114
P 0.26353645141404447 1.6681192267780243 9.427370011697418 0.3951975820530355 0.9410692655565921 -1.2533523702025833
P 0.9775087584134963 3.400129265112792 1.9633804146477505 -3.0481739239656536 -2.654247752425874 2.7269999445879356
P 7.234507586727877 4.604720841850321 5.234096042677543 -0.8521132099411582 0.971390799358269 -0.8937946488403445
P 6.692618851672535 0.8999129733901058 11.414691639329453 0.41650585661250844 -0.9375267996209725 -0.4630495087000025
P 6.917081808676119 6.744321204469628 1.285268281113032 0.4296614201578601 -0.22931154874876633 0.40055216149672956
P 2.5392372011030573 6.527351614253562 0.9167617804412911 0.23298976893130197 2.428417991578121 0.2918682884350651
