# total energy = -340873.3794932823 ev
CRYSTAL
PRIMVEC
9.27599770413895 0.00000000000000 0.00000000000000

0.00000000000000 9.27599770413895 0.00000000000000

0.00000000000000 0.00000000000000 13.57636027222443

PRIMCOORD
 96 1
Ni 1.0500429234596471 6.771867808554131 2.547128635185659 -1.096031452859506 -0.30557869604262217 -0.06990469541093768
Ni 1.516885328511565 1.7639979034317506 8.753004755999926 -1.2399957463900193 1.2588733000208125 0.010150201060124455
Ni 5.67397001369759 3.830254187260432 5.086505319212879 0.2701843757037282 -0.3970266648419743 1.1520244232853578
Ni 0.13119692664784638 1.1447044785294853 6.655267591662081 0.2657664491416907 1.0308871549516891 0.3573848820806361
Ni 7.478337058497684 4.485121062794038 3.4228310397597994 -0.1679719692990204 -1.0557936883853818 0.4340150691408654
Ni 1.4470741708971013 8.465293922571739 7.335633256880301 0.6508469973653823 -0.7895760106388854 -1.4031867493606285
Ni 4.205941364319082 4.711242055242588 8.692278510392851 0.38883538728043354 0.5352694825076781 -0.6615245316838865
Ni 8.224822961902412 1.846350209743365 1.7168526458479725 1.0837518641612045 1.4773124248314493 -0.49657823658506733
Ni 0.9494911099410731 1.1445560625685725 11.65159908342323 -0.6485088361505089 -0.8762232156154844 -0.19404552645762063
Ni 1.040488645975871 2.726280614004015 13.528869903423312 -0.8423448177004849 1.2278629676822275 -0.9389594183024409
Ni 1.8893537344179137 7.150458372848142 4.853209342653941 -0.9888365056385422 0.037597498637799764 -0.5613386687909043
Ni 5.46883132772312 0.1051786811000375 12.072954779254571 -0.015280580308154327 0.9017061903779373 -0.8523831757730932
Ni 0.42140764141766274 4.9301741495844125 4.306679625388552 -0.07063257471589772 2.031345561099876 0.8186474740835449
Ni 6.603230172966708 6.609278123373913 3.403769792379788 0.6414347029125469 0.7926119692517317 -0.21106391539248812
Ni 6.733882598557955 4.022629100596383 7.836315428620143 -1.3443578521478783 0.08814153013393852 0.7329497775044087
Ni 2.372586827153164 5.925015611581971 7.224008685077859 1.3209749544475637 0.28679344501531895 0.8502100793811744
Ni 4.989234426030239 8.255359545860266 3.0505537194031263 -1.112065109283601 -0.1638180950316469 0.18483249249978492
Ni 8.583896827336359 2.6840933771144875 8.45002192019379 -0.23225700453033551 0.5774096062108378 0.812085504595311
Ni 1.700754152087688 1.7484606075236684 1.8511097240898944 0.5558709608081137 -0.19924712526321814 1.4797526588418257
Ni 3.33015733096644 5.082383993498277 10.865446231665231 0.32504580362829827 0.8316222890766581 -0.7208072286046038
Ni 3.8436208997401615 7.550847531401253 5.870757519071437 0.23742415055357177 0.23821630743756392 0.6881681024133439
Ni 3.747048489173568 2.408809597613499 9.292366909952971 0.061865884266861196 0.5329310641824887 1.5371661637642882
Ni 8.019981107849766 5.939755171700146 11.873830650096103 -0.9752361412462883 0.13123990398530946 0.683939409043977
Ni 7.324513191008892 8.169306116523382 13.438709062368162 0.4311467464541349 0.06808589703464403 0.9307298313037969
P 0.40771905182270335 3.244150281617342 3.193757497288836 -0.14373186580473313 -2.346405971380688 -1.9039821093508371
P 1.3207814641576747 0.07292232719510308 5.279100073690933 -0.05995889705213545 -0.3886870346280274 -0.823632328892646
P 7.851909308113323 1.2936955512910477 12.957278295958249 0.5746852653011393 -1.6689549982745322 -0.12612443713561505
P 3.450504123271788 0.8476842539530284 10.943564045092044 0.2068712174673792 0.37359543040222754 -0.10070985371725237
P 3.4722470615455463 4.197546586529939 12.746356025506948 -0.9140418291251549 -0.13056267541262673 0.7341515111219937
P 7.018692827550048 9.236305563517343 4.939921367817376 -0.3156121690192242 -0.24693646091938115 -0.8286783759569858
P 8.333305753332274 7.555235078245745 1.8345325888556654 -0.29579924805835506 -0.4739018780334741 0.15181104326844178
P 7.794370295266856 3.131669535240384 6.02829735118159 -1.1703355628897198 1.284267828834517 -1.0413615721204517
Ni 2.857322631492658 9.052826331838617 3.760746354766084 -0.911565085449888 0.9776041272578325 0.022324888749445423
Ni 6.305145991470455 8.401614199342495 10.15661067474487 0.809566080607567 0.10715098135690579 -1.1365083299276297
Ni 8.555382410845944 7.479394522219189 4.660737031343642 0.05076643191958999 -0.20372495852891365 -0.13978830777595277
Ni 5.978677257449587 1.9793123587263204 3.417319242011392 -1.070318621474434 0.41794156061777055 -0.7562946228779361
Ni 7.552535762956639 5.537028461762655 6.235486032616172 1.0021874730241513 0.056121525583916254 -1.1225336129150927
Ni 5.8608906404699885 6.005939414269799 10.435510238093602 -0.3073602134230771 -0.6056086943528732 0.6447377991438509
Ni 2.713238561438783 8.252790094536959 1.6172024592919452 0.0011662523939592819 -0.03846807416821117 -2.146144803030659
Ni 8.312425482831324 8.352544172265626 6.93165521487236 -0.8254917506988879 -0.3250288343474338 0.5633320450718492
Ni 0.5277096458218606 0.011999430439818017 0.49853756110465003 -0.6088338861583902 0.32259451387432825 -0.7528917678439743
Ni 3.472219233552875 6.655407659225192 12.755940913782663 0.46320711732378933 -0.004706918557366087 -0.77302170582463
Ni 3.9341917398873347 7.9843148972428555 10.595955312638626 -0.9439805256661161 -0.4268738301103938 2.026393359300923
Ni 0.9234663711949743 8.904809238820546 9.555517684649319 -1.373475338339125 -0.373984181200214 1.3003241109664314
Ni 9.12794336005572 4.603287995673476 1.5508549591652894 0.6410228121861089 -0.1215797551877261 -0.3190661890060956
Ni 0.3764329672622378 6.749011750573525 0.0804600028099733 -0.20369230551876533 0.6654971431783893 0.3579343268262029
Ni 1.5725598658490632 4.501938446364995 9.003841643939273 -0.41064194163256373 -0.8128658344047615 1.5645257867241635
Ni 7.568063782867165 1.8679725600488812 10.646622666494821 1.6327209556431623 0.1458314286462392 2.172306291917375
Ni 4.109072121830662 2.88553094006369 0.752779667747195 -0.5001003908057129 1.9047310717017198 1.1615359623202188
Ni 8.651824957446738 8.62639017214527 11.597347484110985 -0.11972573269812285 -0.3408362336933356 -0.7678699864203614
Ni 1.3536741514950237 2.4313502716771644 5.004626088776675 1.020507868599894 0.2406025482815534 -1.1671553653895252
Ni 2.864864017506551 1.2552650934121314 6.596712857083114 -0.2959450296076 -0.07168184191601848 -0.29483816969666643
Ni 3.1498968704400148 0.18774340775570864 8.743311338552795 1.2851761995813995 -1.2919466855360136 0.3969749856684324
Ni 2.2791960837486434 2.920260274917338 11.208615471687835 0.6376862916137083 0.9523263265276503 0.1993080604081406
Ni 2.340835087515334 5.4312728136145685 0.8504670532201475 -0.35251829801695417 -0.8448457297454677 -0.40739386700891134
Ni 5.097383281548049 8.742952357447336 0.5816449336174094 -0.9999431570746649 -1.0107513034337625 1.7045881740971096
P 2.5415212946624135 3.3503047976603826 7.4632644900672105 0.6618052961490989 -0.06374433223649667 -0.31129322992889613
P 2.077600828840971 7.126257295221762 9.135981011938917 1.9419994691348748 -0.26665039440854077 0.717408744446016
P 5.573241956225433 3.5098055756540987 9.99863579834929 0.5814822336183146 1.2792667760755 -0.3686591694428748
P 3.6860959092261005 2.516346237292542 4.726310913274038 1.0480664949444531 0.8670253511663004 0.4096798348296105
P 8.17778437829054 7.078198351878614 9.974021938831621 -0.8721017372479433 0.6745433125410577 1.3426328990369714
P 5.627209710012432 6.989436331255067 12.74923343994915 0.8473322436127473 -0.5030620445371982 -0.37843527499303214
P 8.230583356385347 0.6198388535586206 8.751864735900163 0.14593478699332285 -1.094801694217463 0.1400616160419975
P 0.365993759611518 4.71028662749421 12.85583505907444 -0.5008043588512731 0.08843874965938317 0.4850866910057001
Ni 4.776702770002788 2.6994729810641003 7.279019988590027 -0.1663488318733006 -0.39661451700522016 -1.7115725758347426
Ni 4.448991052309274 7.328631733924228 8.548287200314546 -0.2412890328256167 -0.3849365664466596 -1.8776172462040632
Ni 4.801831447384874 4.869527677556328 3.105660565690132 0.4975465140356077 -0.6207049265643633 0.3578183700736289
Ni 4.651152143067927 0.5111362209866545 4.993072833819352 1.692726903883149 0.3388022339824423 1.0672029586635878
Ni 3.500325506150779 4.982388739833126 5.293300698351042 0.25648733783260985 -0.19264607500693276 -0.1330173076007064
Ni 0.2901160995947343 3.930008264989099 6.740690253165083 1.7330906524121763 0.9628130849915869 0.22792932368925906
Ni 4.663971571691789 5.9676666483493515 1.1403011624891473 -0.7869110622122125 1.0629580673443049 -0.2697228626862774
Ni 8.176226010700953 1.7403162816685662 4.225058267684435 0.5751215815076095 0.41145029646647197 0.8364922155744496
Ni 6.139291155150151 7.486852424255069 5.9406484502648915 0.9367374709504577 0.5582656862925354 -0.33642139245509156
Ni 5.234222797509857 2.562123285236653 11.886102794864097 -0.5339019127361901 -1.2718141764521969 -0.1967842655450224
Ni 6.0293798600964985 1.5172378164187335 9.117150736898077 0.10122638834235469 0.38369549495070693 -0.09369125630757413
Ni 7.061761284207496 1.3776433291824772 6.887002417832166 -1.4486112002420148 -1.4727618293462894 -0.574100853552579
Ni 0.14122335240727688 6.466038169097731 8.332612836314762 0.4965337565003772 0.5729310016141939 -1.5833287783632797
Ni 7.671481879630871 3.4341412635811275 12.924260382653879 0.15994987032549227 0.36096565745335896 0.7988813472002113
Ni 6.7804944862822 6.690266858044639 8.306614070361823 0.4354055217304889 -0.1834404972482647 -0.5068986446744689
Ni 8.34580052204164 4.912058126355467 9.554947210799561 -0.2778616897433279 -1.468450346455129 1.161851950898741
Ni 6.00877786952226 1.6623793501941144 0.6840352498517935 1.0356133567827648 -0.15625468086209218 -0.3359038293887247
Ni 5.568845133383385 4.68554754200952 12.586819998722516 0.20750962238232648 1.8587273512780957 0.42599194172607274
Ni 1.1054948368557758 6.248822134303962 11.26847348392357 0.5775962683003472 0.4732871272676107 -0.713675502655829
Ni 0.19434606281682684 9.267064771416567 2.9155369369612805 0.588818876489044 -0.5959560017544575 0.7300716846256653
Ni 2.4329642952520936 4.428175713791222 3.0212564087188953 -0.17627020475207061 -0.6263215014201924 0.30897692309089364
Ni 6.911619987748858 5.7029296780707455 1.0570360980179176 1.476472188318341 0.16045252099352364 -0.4006807166547938
Ni 2.949294147270948 1.2723051009244581 13.081460713253442 0.2185278278697011 -1.5604379898080352 0.06341703080406498
Ni 7.019462735347284 9.252705527198232 2.4071835152417456 0.21009615216258012 -0.9775249372804649 0.4253707632023061
P 0.6542964016838463 6.055454689229405 6.115308063466361 -2.8744295709592302 0.4659473990730879 0.42710137274016763
P 3.854306848925899 0.9351133137276239 1.7084903340502793 0.06429480542332798 -0.4523614328585371 0.2711223141369653
P 3.189106512113724 6.691472737727057 3.106217125543556 1.4742535834004675 -1.1113806816220666 -0.21282717794049796
P 2.077433860884944 8.186513091991737 12.866751052999595 -1.653348402085527 0.854764017300444 0.22134909936858008
P 5.217488897916914 0.15321628964880496 7.816208776315451 -1.6180630965206715 -1.1756518328963108 -1.2189893193416812
P 6.427143911340961 3.62095057838284 1.7504948337879325 -0.43734207663156943 0.018849528606335278 -0.5683552093180534
P 5.011969896042603 5.795290785746432 6.90943085232539 0.11906084542061429 -0.44925939689444566 -0.768123240081748
P 0.24912268359080128 3.131140803379631 10.477569466216844 -0.4985294467741672 -0.3489637478964764 -0.8128663486253936
