# total energy = -340895.6677286798 ev
CRYSTAL
PRIMVEC
9.01523567717366 0.00000000000000 0.00000000000000

0.00000000000000 9.01523567717366 0.00000000000000

0.00000000000000 0.00000000000000 13.19470868753766

PRIMCOORD
 96 1
Ni 6.178050690073034 1.885698765108489 11.20912903691148 1.3227567289383348 -0.31945262581123696 0.2268376332869771
Ni 4.668305273003224 0.09129819075637852 5.832298380735848 -1.2986107278197505 0.5252920595799921 0.23198061094049727
Ni 2.7487002074301654 1.7353246380813645 4.748920409771165 -0.3001940346919411 -1.170103906494888 -0.47920760651710365
Ni 3.4588753786868645 4.335498841748228 4.970129946168207 0.0019190713995837917 -0.3641522827114568 -0.36827041864488835
Ni 5.102605224766095 4.625969727408537 2.5940663816608156 -0.7604245858859098 -0.1974722927509825 0.35584890505208394
Ni 7.194004616755754 5.920864053632398 2.6692633619333543 0.3002860801851151 0.8058390094649669 -1.404335261142775
Ni 5.040084567036293 4.574141138902606 11.682924735107555 0.20551136100537507 -0.2190711019676808 -1.382858836436554
Ni 5.501132722329708 8.088234834618316 12.152563508245345 0.8756539733755758 -0.9493217353733716 1.265209012430853
Ni 1.7611803333040141 6.610430396688618 0.47320970789291195 1.18775093015269 0.11174014338948499 -0.4204671552531017
Ni 2.8222104371531374 1.464804468434906 0.44810948939957135 -0.7779551385705054 0.7145306515672727 0.03553804500560977
Ni 0.43815576795768596 8.997989287896985 4.736741728224345 0.7844219772417715 0.5077725626389901 0.3142571976532265
Ni 8.409573886402178 2.3925984078155715 1.2507250817420459 0.1622072989011013 0.5250652882811667 0.8622621254497022
Ni 6.695380960176423 0.6304227925197233 4.667944663585892 0.9330376535013672 0.892217791271528 0.10368873383991821
Ni 0.7202578105652804 7.559220819393394 2.619994198766931 0.5261502938152294 -0.6674663510896183 0.2979443194258159
Ni 7.631297626682476 3.8652371158419987 3.62568157533823 0.08730669293746898 -1.3027450617030982 0.7505116976475719
Ni 7.599149297127395 3.824794769688301 12.286951819802175 -0.37049236599687163 1.0321477668316674 1.0193249040353864
Ni 8.015544991319771 8.87613936578076 6.8562740639071 -0.2572851511435569 0.03173821164354534 -0.025149245572117975
Ni 6.857898609332177 0.6538317528457804 0.18745469188775207 -0.2967919509889276 0.22497409771567706 0.33206851480303456
Ni 1.839847277694823 6.502545074258546 9.249609016457569 0.5163960426419428 0.5206321922104775 0.3426367772371841
Ni 9.359256817414849 4.987147104572068 1.5501147398164996 -1.2508090349554393 -1.7137731830304872 -0.6715222663265468
Ni 6.197803070907353 1.8964900019221262 6.960116053245345 0.8479634494388428 0.485348429307519 -0.1300065457988406
Ni 3.2758120079786637 4.09284476482604 0.483668282519061 0.1735890583754817 -0.4454065988072587 -0.3915952094137578
Ni 5.966048413624002 5.508218697380268 4.868781570950807 0.301497583994713 -0.11720348049690138 -0.3569899606350626
Ni 5.091128830059529 2.7933166075894724 9.247906940007768 -0.462046778467101 -0.050323945065532685 -0.8276141963585295
P 0.16024040068530718 5.57477818058418 12.389421690307476 -0.32133210222213693 -0.4135128354224556 0.7765839692545916
P 3.8585478111505047 5.978218981458932 12.865223278387456 -0.4197403043894062 1.4138964224686488 -0.5473688368743734
P 2.2752470881805547 8.546019474684885 1.3798629201825339 0.17870221123233093 -0.17296325186602468 -0.5887358298569344
P 6.461462646389085 7.708188569692926 5.774215923409849 -0.8645262388935304 -0.3109376463616903 -0.2577664616553496
P 4.67417419127029 1.0581181828041737 12.485452879666326 -0.27874897744428767 -1.4337445675428275 0.9359013482024076
P 4.094188034905599 6.2136067786218945 8.284904900165968 -0.01907707123610908 -0.47685941799990134 0.07508855360472229
P 4.594948302282617 0.933969375652463 3.7327041397373373 0.8392445815086063 0.9523306974030243 0.4698233370887263
P 0.2454244587708346 5.644952773196838 3.588103369481685 0.2397448282669484 -1.58604900550792 0.15839666690575946
Ni 1.1584667684120227 1.0330738587705193 2.5697622084562335 0.7187200070582719 1.240987163769011 0.05379056345789445
Ni 1.9915105833889064 6.446109700446208 4.7080831963054885 -1.2288387013319353 -0.526479395019874 0.5664132551003342
Ni 6.14811109319911 5.704002565284828 9.139169677829251 -0.4778508353788932 -0.11436292572431271 0.648372824793277
Ni 8.586335607542514 2.485996246904361 10.211239838989968 -0.14478216144611838 -0.39824485351979155 -0.32552737125040715
Ni 2.545604983589214 5.136412357640899 7.16594018885195 -0.7793687310885803 0.034929721997649515 -0.2951976099186142
Ni 0.7357486896102868 0.07491300035639056 9.009940785510887 -0.24374366501369635 -0.771636138331013 0.6156246838279785
Ni 1.502650426783819 1.2318147238971957 11.507566686124179 -0.1789428664882273 -0.3397301451133504 -0.8286554931388502
Ni 4.288890074558166 6.906310423608895 1.7539194626860495 -0.48903847656459654 -0.9453313832670558 -0.7007572519322641
Ni 5.694329217664918 7.786368691370338 7.829541752336778 -0.6315891775770348 3.573833394187393e-05 0.20628989104261244
Ni 5.41554207712614 2.915004255467897 4.772882004029282 0.006592308505537033 -0.13159188800808952 -0.21994707681473089
Ni 0.8588391081221303 7.294308126186436 6.830029812037276 -0.36920681441622866 -0.0264831338921931 0.3663269217652723
Ni 5.132030953220324 4.468302274915888 7.160688814212065 -0.056314101210696556 -0.05203244311620717 0.0026999154296663175
Ni 8.097854090825626 7.456906912461091 8.89145174316419 -0.01896651380017379 -0.8284446626796248 0.5688185221077172
Ni 4.524368024075462 0.1887357568428213 10.246812154962608 -0.33865208155782317 0.22501240715278023 -0.09682183151675583
Ni 8.176998842694399 7.049661682233494 4.6796356208957715 -0.24346829986512258 0.4392218101527855 0.4190839017523299
Ni 7.42483972002491 6.048114101773158 6.933396698468188 -0.5111322231398422 -0.179656090505168 0.1550930564538232
Ni 2.472338165222941 5.264807340681685 2.4325503251616993 0.2871104620351055 -0.37326452942537003 1.3310287391391398
Ni 2.1935961008613303 5.210382364370968 11.471320932064673 0.19156158369350235 0.19211642775570784 0.6774100925658914
Ni 1.0662138642232597 3.3985003469901827 3.9237892669340715 0.1006085522526977 0.4933548445517632 -0.3435510615213374
Ni 3.701709760317718 2.7010005967526762 2.6200464871324445 -0.21486297742360416 -0.36147165055550007 0.11414258218339053
Ni 1.1928148154128229 3.2458273349275717 8.407733876850244 -0.8468388489160964 0.7049952012730116 -1.599931162806651
Ni 3.741304674340687 2.481290294008189 6.757208346301407 0.24976236040395047 0.011251404544103203 1.315091241973277
Ni 4.277684136914598 6.7108150432382 5.997905551074586 -0.6229307305710884 0.2687291313144404 0.42998589337681425
Ni 0.6164185257976649 7.390617886320176 11.356976193446657 0.9367721808431351 0.169616703991295 -0.2772150572982645
P 0.23638398067834057 5.629464598722461 8.165136595911287 -0.2814311522621411 -0.4007784185749227 -1.2003084551027263
P 8.600002704459369 1.5941911273733527 8.112238800482968 -1.0598244068113294 0.5380845833589701 0.038514354025114314
P 1.8798929534894562 3.2187095067442626 10.425482401444173 -0.9618941727217434 -0.5636971417207518 1.4014132023999735
P 3.8883702099637976 6.175165814734385 3.8567339457813286 1.9055895630472728 -0.2672170655452882 -0.9669908705183604
P 6.668100857755316 3.826859258602522 10.35667181395257 0.01879270722647086 1.2584413546897166 -1.0911718107743593
P 6.301847903042848 7.708819636173256 10.140647840976749 0.012504046004281691 -0.11768967610470053 0.30450166092835945
P 2.4220601972115334 8.297802997500362 5.705536958355572 0.2814815458841023 1.4449113827929245 0.35295075756868244
P 6.79322331033382 3.949069790136077 1.4436069453606328 1.1254831824617197 0.5683742354814469 0.5161175921695756
Ni 5.436042722501421 2.8689724633455653 0.2055338450256535 -0.6802781581423059 0.17526696029853686 0.39409663567937286
Ni 1.5716530387901506 0.9694984184950227 6.910424977060645 -0.07509112470788358 0.829358689853462 -0.3193644369728048
Ni 6.6919461554763435 0.5877437664550285 9.062732201161092 0.715626969955245 1.0389064257117397 -0.09565017980615785
Ni 2.7142980690167655 1.5436967937115467 9.194943333360786 0.9018640561120402 -0.07491089037627743 -0.15296032638153656
Ni 6.154133270468542 1.960966965740951 2.4449922515831704 0.7480940893450149 0.07613499259136565 0.49819700313541293
Ni 4.129888367221391 6.71325817204062 10.644540902666833 -0.20506501749657588 -0.2190633886581969 -0.705031968048218
Ni 8.382816667636199 7.073164401008057 0.6846945098280741 -1.2799031241079184 -0.2423005048092666 -0.9240531906145698
Ni 7.552657727997966 3.8566636269449486 8.296555288916396 0.530898350023176 -0.5911220707009239 -0.4104290542908092
Ni 3.0729421650235444 8.317113631798449 12.355247637350537 -0.4497486778260384 -0.04657630509764237 0.17032221469875183
Ni 0.06532439594955305 4.938807412178816 10.167116572208863 -0.5505343790865487 -0.3967489857005554 0.5807741518076965
Ni 8.534507019036583 2.1810559083736365 5.9938937713067775 0.2674507788226491 1.2567377417350485 -0.5517073163487273
Ni 3.6751058005541055 2.655185170280743 11.556360746383268 -0.8144637750195005 0.43098065318991585 -0.9771048190239109
Ni 0.9615650113137357 3.390711183575828 12.708167058857184 0.7844505164868619 0.44876445953589805 0.07223488620601108
Ni 3.0217085820562093 8.2569639809876 8.012855746590024 1.130654442250014 -0.1322940562814367 -0.6861397591294054
Ni 5.868079850170539 7.759413137424829 3.4882587355345565 -1.2211876125445806 -0.15873476697146857 0.3148896890309028
Ni 3.010619842473274 8.327652442019954 3.470248098185948 0.24393084132383797 0.16368825432200196 1.0627107272201892
Ni 3.2477295496039935 4.471106013135638 9.45143579667306 1.8290190255803853 0.05505554621324712 -0.6103788620480068
Ni 7.155888201343842 6.180430712227421 11.499913652764869 0.656466914655321 0.23005151223858444 -0.48366384251624445
Ni 0.3474859391110071 0.16168373987817541 0.2774330521766983 0.5561661234510292 0.12754702851475452 -0.3126597712591196
Ni 4.4306366212756405 0.19637707039607016 1.7210913843793008 1.1341544849834726 0.9664967044907613 -1.2396381059402846
Ni 5.965561590910605 5.7362680929005405 0.31157825638024955 0.432414557422965 0.3847861569117244 1.0906758449745473
Ni 7.995422985832688 8.943609387763436 11.046847586924079 -0.2683732906369185 0.8309309194365883 0.5884064715419737
Ni 0.2929951515816277 4.896589064644762 5.933541277698678 -0.2250913400198317 -0.6945338967303717 -0.34589950714885587
Ni 7.852053696737223 8.945087886374493 2.417085590299449 -0.2936271801077008 0.547717992683676 0.3893737762824068
P 8.442200023435221 1.7229557350669034 3.749804238307184 -0.7742512073563569 -0.07946868495028894 -0.6081546007031784
P 1.7350992571955326 3.1120502563331165 1.7399070822521014 -0.2963553776721412 -0.03135460305188149 -0.49718013183512444
P 4.676112466888445 0.8271451464328882 8.097433980854435 -0.3691944731210545 1.0509363602930806 -0.3238499835479842
P 8.43274304146571 1.8795684050138584 12.286173804984283 0.04859436396893567 -2.7054960090778892 0.38155916533399453
P 6.366613354395537 7.768725875627408 1.2710616498324405 -0.3082590710882626 -0.4055601562342822 -0.03169476000011961
P 1.7764701725988585 3.2568169069207404 6.110878170859659 0.34494794186886396 -0.6295567205280385 -0.12480314722103023
P 7.0313787847748 3.938422797089373 6.0684578820518995 -0.4709466520598921 0.0267124762941798 -0.5426043256061945
P 2.4138022415546483 8.498824717191658 10.168303878715427 0.01622983159530108 -0.25726843897300855 1.5601176303541389
