# total energy = -340861.05227012414 ev
CRYSTAL
PRIMVEC
9.35208489748666 0.00000000000000 0.00000000000000
0.00000000000000 9.35208489748666 0.00000000000000
0.00000000000000 0.00000000000000 13.68772157069859
PRIMCOORD
 96 1
Ni 9.047683765520384 4.802809895490129 1.8159092636682561 0.38370397959113917 -0.29142168781594974 1.3980617694292374
Ni 7.017738948908149 4.1381665827727225 7.201712225349996 1.4856849651658608 0.37555872477618546 -0.8445276842844165
Ni 5.460579425899536 1.2982096477348333 2.7609776439232006 -0.06879834972063636 0.9673099444206761 0.47698334517227536
Ni 8.09470632717309 0.7616683866096707 0.7163444429668215 1.5378829873256545 -0.26739395744278466 -0.0021923796656284824
Ni 3.212123148571064 2.8471580403129373 0.9669784444606371 0.044170009648994896 0.5975048342988162 -0.38091330421987946
Ni 7.3641682251466065 1.8397608206727796 4.914822620439266 -1.6813299749001174 0.5146284092185589 -0.10265309348655223
Ni 5.4059164904025785 5.254132154540199 6.0264029996567805 0.053540395120301336 0.44358574354843605 -0.713515322928881
Ni 2.9260522274561933 0.9597202914684748 5.694612541713172 0.5116505575371576 -0.8427358824913164 -1.2079687998614614
Ni 4.022668335828767 0.4503926618236536 0.8139278363200209 -0.6361477434819948 0.11752666816427501 -0.628322591010621
Ni 6.396190042823759 5.30090193048892 1.6457976472766391 -0.423638868112864 -0.6385134155006938 0.4293683143974734
Ni 3.7979190345690794 3.1629311826661892 9.825210482279275 0.2643438577625512 0.1695691385828112 2.4445174682431445
Ni 1.4190105267449609 5.851262767282835 3.317794224835772 -1.2459751039019058 0.3773721238358404 -1.5175779572197154
Ni 0.3050341434086571 1.2709576727069234 4.872090139486957 0.8030444774389655 0.8176568280355015 -0.9251795909095292
Ni 3.1361935723007828 3.225029025557514 4.967630102317302 -0.22983913911746223 0.46989558508755846 -0.1136630714438107
Ni 5.238476764630548 3.6812704811980708 4.240633634794272 1.4953957646957214 0.143141797629218 -0.7067924023827505
Ni 4.0494527066180375 7.532365469785234 1.5576766932965487 0.03941732545535792 -0.5971734191013264 1.2851880266559415
Ni 0.7642187001272105 6.651651590477288 0.8165277158868565 3.072190855705541 -0.7285400784724871 -2.0442838664280987
Ni 7.505356648961417 6.718135561127052 12.410506408120186 -0.2459789821021183 -0.01485197741116797 -0.20773099436451323
Ni 4.023481967204 0.9264427682214564 9.797711612213364 0.9549527084069037 1.0585041453380093 -1.0226984484933097
Ni 5.985222029568278 8.526557545726211 3.44094247712387 0.970956797144644 -0.4445357661665312 -1.0018902534987069
Ni 5.469332977246868 5.109296417664001 11.923538677958627 1.7238930450733083 -0.2650635095373951 -1.6167693174099125
Ni 6.1759016860006914 8.965778207080291 1.1754644703004429 -0.4329421477916608 -0.4247557553261265 -0.5312541907006979
Ni 0.40255861862778775 7.6820362344889634 2.722337635267465 -0.5616713695399747 2.579062011121655 1.8594950826820553
Ni 7.1614898439507035 2.7268621738805408 1.5943181614363398 0.8187621452845384 1.2800357930310404 1.0408856609252979
P 1.5318153732743527 3.589105685762226 2.4373590376540557 0.23457228292707344 1.4395668306515592 -0.24930573248250615
P -0.2000532510001811 6.819427991301139 10.822333501588048 -0.9355755894318726 0.02155072958758224 0.7791391315762776
P 7.179932155122645 7.726084553768803 7.366608184063828 0.6333113024744642 -1.070492685158453 2.0629421049592342
P 1.081110351819288 3.5601796875599865 10.40659686030692 1.1008401871020588 0.4285208787955136 1.5017301915541814
P 8.730648091722806 8.398976405255812 13.16508310884665 0.6635914415152443 -0.4512610007055067 1.2835044683059313
P 7.563105772433394 4.450862889235727 5.049865789349876 -2.495401656687522 0.41385607769448723 1.0205109539236876
P 6.2006660064790395 0.2766543069571488 10.026324259692691 -0.5567703326939315 0.03216038678262849 -0.23076370781426067
P 8.916754578701326 1.7660944489175134 7.53537777629055 -2.8148295999084105 3.068974662761089 -1.947682635562581
Ni 2.5899663569764417 4.233006074453585 12.188792793577745 0.04556046223861831 -3.6977651945470638 -1.5723190575163375
Ni 5.7994054572177145 1.915727805282152 13.556387428658862 -1.3422032676987208 0.45808085184081754 0.3087383247175264
Ni 5.806017381152078 7.533151044906148 10.728504035062643 -0.26491978487067924 -0.06372479185247089 -0.3026759205735303
Ni 1.5790714576312603 9.457950372417907 0.4292850064914668 -1.6734886244788276 0.1882507741527145 -2.5122377544082544
Ni 8.256244887453493 6.099747659695863 6.320004219430702 0.8573374344545751 0.4781997340778797 -0.46073551585484523
Ni 3.205866603858068 8.508545430453818 10.637973984045084 2.0630287511357697 -3.6507530874635834 -0.6972191568720186
Ni 3.5927342946540683 5.744452607092801 10.626982478811625 0.4744042715911894 0.4698158808895586 0.1620779724120886
Ni 8.191528460825786 0.5081838696771089 8.98310107370493 -0.789231225704957 -0.6775149935748718 0.5998892753705927
Ni 8.118675720445752 0.052744822910057894 11.342426316014825 -0.5075900143145388 -0.33049705655085665 0.21894563213341
Ni 5.248548959930843 2.3032220857579295 6.622078428008772 -0.7136186812759646 0.956096849313676 -1.1517639705351197
Ni 1.285144785307246 0.018576981192669907 10.025818311906484 -2.1650933191087036 -0.09365346109110323 1.3980795100410501
Ni 4.353517038835756 5.074067114324902 0.13259479311709282 -0.5950476310075752 0.3143847243700263 0.6717153561739594
Ni 7.803286013568185 6.286873523914617 9.032637196329443 -3.1532356268936987 -2.650630724498577 0.15115438352104937
Ni -0.01147033197382684 7.693595411268132 8.920561812412329 2.583843234560382 2.5892541211633087 -1.6235557442041266
Ni 0.44940695208860154 3.1300492526050596 0.12685074264964524 0.217627941763251 -0.4126949675068506 -0.46874193109908946
Ni 8.110810617151836 7.034647518177354 1.3361613429512922 -4.166528980023024 0.715827001781193 -0.9123161046832998
Ni 5.069054396886686 0.28520865889881974 7.719204225001462 -0.8040577491948281 -0.7564895124975617 0.8129362826313805
Ni 2.4204878767239424 9.00676839463943 8.057263385368273 1.3312812214695784 -0.8340455538061702 -0.41003413284523577
Ni 4.771190496873327 4.333840252473806 8.196755341005298 0.4886769794601197 0.2623198853539869 -0.4810189486942296
Ni 8.142083988632045 8.743086364470617 4.684594867919679 1.3101076727157568 -0.28288485398953217 -0.7708617220588337
Ni 8.586401536187294 3.328874574874573 3.7816024522659926 2.713377982929127 0.13069945810080716 -2.3746454258423557
Ni 3.1059769863998987 5.288276616045654 2.083599597370686 1.1660654747594563 -1.1295087586813453 -0.2909172373757054
Ni 3.699507046505011 7.679492467430765 12.85598735502117 0.8446660096344937 -0.6550409808420719 0.020432299712422875
Ni 3.3176894814863167 5.544505034650553 7.03498232281222 -1.8016522035316584 -0.22031525878742703 -0.1689854981651993
P 3.2865376871081535 5.439958078975534 4.479238049644848 2.3573241609550886 0.18042433612976025 -0.07715032122975746
P 7.554885289918111 7.041240737942171 3.494502801826115 -0.144145556303384 -0.969809570914078 -0.46483154030108975
P 2.2925981174560404 8.71768610222772 2.121077141889164 1.2958053971604717 -0.777006658614307 3.248519167389057
P 2.256115634757387 5.913837566497572 13.127373632625806 1.7377320078389298 2.530097408297494 2.0494242729784578
P 3.0902654839816113 6.708839588862898 8.852123256045052 -0.4128600323298051 1.1115346907014276 -0.45267870698863977
P 5.538304602446193 0.57361011953907 5.141983824361857 -1.3376539577651414 0.3768332206132349 -0.7148448403735819
P 3.1513720058870205 1.7506261007033186 7.559537016884097 0.4238643538601087 0.9120710785520293 2.0150928466864393
P 5.761716555583371 7.023322143517506 0.3273510233019657 0.6563275608639794 -1.1122458578358394 -1.3088951404648943
Ni 1.3977345338868636 4.996117487743697 5.20957414664024 -1.7281772742709591 -0.750777806824765 3.7260576137338535
Ni 5.156842416648865 6.201591862871546 3.6490647068660143 -0.09757130808827066 0.09500817534678475 0.2820433319248433
Ni 1.3082070263569459 2.8037830711367375 6.38853910227114 -0.8421748677815238 -0.2659315139646452 0.19566634989049528
Ni 5.145245831530605 7.2258508913570445 8.007454181868393 -0.3988868579791647 -0.6555289762220841 0.2668838505755855
Ni 2.2642238922553957 3.7833671906626183 8.296086639002532 -0.0907735684401469 1.1345622619448525 -0.43054073743901977
Ni 6.425854855723048 2.7000684510064974 8.75979947516807 0.20629606169019957 -1.8810949203400185 0.8417349520306279
Ni 1.0132890330470155 1.95872869106744 8.943269609449139 1.2150771287714688 -0.7425510480395986 0.6064219342827879
Ni 6.27260224255134 2.3411541415963653 11.06631723559993 -0.26901786619945284 -0.04127520459970311 0.8398552185094117
Ni 7.081679152499714 0.2663557912053526 6.598850655058594 1.905731487941776 1.8995572408102643 1.506944131654953
Ni 0.4995939798133014 9.492272523534046 6.868895843706811 0.3080261291418502 -2.530114891798991 -0.27500750812398445
Ni 5.129758779146865 0.2754693978164363 12.051915680843193 -0.6283552440207695 -0.4959979386015651 -0.34105991966836746
Ni 8.091723012130572 4.106968027970695 11.443126759222796 -1.6774362962726659 -1.488170707702192 -2.5826201607865586
Ni 3.5893581920510913 7.437956174003919 5.900941041595895 -0.8925844305823273 0.017702302375769512 0.4236892617348252
Ni 1.2384217697823874 5.64254293932371 9.678683888476158 0.22286193646868072 -0.05077440233938998 -0.4941272039414135
Ni 5.9637683470994975 7.741580958237317 5.618467867493116 -0.4952911423425277 -0.9390848881367118 0.1325956466822555
Ni 8.78228095175338 3.957250502843101 9.110095838460076 -1.1109603062551963 -0.5352224313198266 -0.8716679921446342
Ni 1.3705947838762274 7.764746072219518 12.218249054986602 -2.2191227380502814 -1.7716970519304647 -0.1575608012680254
Ni 7.9759909630672965 4.548264852144333 -0.11238867875700291 -2.4218069140195064 0.018347135048620015 1.5300542353098554
Ni 0.3996950102703595 5.165193828350966 12.343546416355489 1.3051570135787005 1.7938807871163558 -0.5858708496043137
Ni 0.9477215667049853 1.6664479856634364 1.887714570553737 -0.5374348655901131 0.005069701213423527 0.5984489433796403
Ni 3.011231015566764 1.358455777841146 2.8556422516188125 0.1803420608285991 -0.04745716504069891 1.3683246473761208
Ni 0.4646592671445447 1.825844918530868 11.521845127172325 -0.07936558371352137 0.32267704628580557 0.8924563896448952
Ni 1.5145981852076467 8.6523898463441 4.67776504041011 -0.05911171856049174 -0.3555344591354586 -0.7108514029434725
Ni 3.83422382765705 8.627214034135749 4.059942004899198 -0.38176948157258767 1.109717949207663 -1.503204976327495
P 7.7583866545740205 2.321814030286236 12.873685240245198 1.4600916900777885 0.9931168781814508 -0.7180288945285183
P 6.2043600799642915 4.734492916224899 9.702486814639862 1.0990000485695266 0.046084967283520635 1.0988157004728625
P 0.3436358085168248 4.715470775797044 7.300797563517705 0.6698438501828593 -0.28429201874970395 -0.07087040175831666
P 1.1685710486144194 7.26515770365708 6.216552392882578 0.18920208232239027 0.0778324348984466 0.6035338141017155
P 5.056026942798189 3.3554719039683882 2.112056120917331 0.03296025697610453 0.7867331418734516 -0.9253922211409676
P 2.2735946811977312 0.23453532276593483 12.111183582882273 1.1195519045789495 2.500413765190132 -0.4883339942984042
P 8.615626801102263 1.1363905249112491 2.954973549616046 -2.0446317366858207 -0.4452826716348847 0.8759763897120011
P 4.3866982356096145 3.0601050105893637 12.130414274800561 0.9016203155323504 -0.1584663438014303 0.33841939672172683
