# total energy = -340867.78257679974 ev
CRYSTAL
PRIMVEC
9.30532032154427 0.00000000000000 0.00000000000000
0.00000000000000 9.30532032154427 0.00000000000000
0.00000000000000 0.00000000000000 13.61927688677292
PRIMCOORD
 96 1
Ni 6.048588485431192 6.214855948989952 0.36944354965275106 0.33444549967564335 -0.2886726643159028 -0.153565049845071
Ni 6.383068224496541 2.473521638026794 11.9375953799568 -2.636592758348272 -0.16330181751686068 -0.09079208038290815
Ni 0.3726994812343053 0.49451636013480327 12.066175365669169 -0.11392969484163605 -0.7379369463063549 0.8644285369734015
Ni 7.77891279977816 7.364667854890911 12.159330927438072 -0.2303255918355775 -0.6065952266358586 0.20370181860046205
Ni 0.6119699743351275 3.6933095527682425 1.0970842388140223 0.12847725363850776 -1.1021028558645665 -0.29057759464809957
Ni 5.007807017772791 4.076316537326033 0.5342640359010472 -0.8533879628885238 -0.4898537733770403 -0.6715502913510047
Ni 4.139071617594686 4.9994601454416845 8.448146784858432 -0.9754932515624167 -0.32739450636613293 0.283152505828622
Ni 5.850990008339727 4.198625667671699 5.925434432000058 -0.3927488634022268 1.4502155686146574 0.3999119568095693
Ni 5.359306187711712 0.9884111248719276 9.785586517123118 2.432925649640487 -1.2211349049297744 -1.6201212646012806
Ni 7.355585862254166 0.1323477099117723 13.251815546415678 -0.34912701294721804 1.7236721873117542 -0.4817928507457767
Ni 4.269960253279571 2.913793563861763 10.032190533171706 -0.5892976158976755 1.7512670662108873 -0.36990101226977584
Ni 8.567743414329497 2.517749825529301 12.4418088144018 1.9245329369189954 0.9610148554405836 0.5528339737540028
Ni 5.243213011342834 7.313330402660461 8.290925023187151 -1.7757578522633997 -1.0643554619124638 0.315329861892115
Ni 7.05750853629839 8.547913776717916 9.211533862046398 1.2265180236185584 1.8661807222323474 -0.3051930305684292
Ni 8.470716839305588 3.548881676011161 2.9585568072829305 0.8795425097967046 -0.9086545966713124 0.26073145782094453
Ni 5.529705213494566 7.9586450618465205 4.523547912231721 0.6061612244222335 2.0736291523594352 -2.069787410015842
Ni 3.80890954715992 0.42928792572388963 4.821441923377103 0.975559586023978 0.47765311754579026 -0.6382455065512879
Ni 5.409601444065815 8.132356781664908 12.736230080002064 -1.2989945935217306 0.11822240867971898 -0.6841597525848991
Ni 6.038845815051405 0.6050300664370906 2.5517347164185615 1.2006568395810806 -1.5631877846390303 0.7738148911498867
Ni 6.179579479639647 8.951839121365259 7.0333761185687464 0.26330127543064974 1.586360623211068 -1.614115938947465
Ni 1.4653367074652333 6.282980199085861 10.587680004733013 -1.6882554983753568 -1.395531546808216 -1.1364571649747202
Ni 7.839667236177038 2.800557120832517 5.590740670567245 0.9594346554376573 -0.8909353250146786 0.4741556459154931
Ni 8.575317945073667 9.119176696761341 5.9451961407732705 0.6837139232967322 1.0799507452475594 0.4635084506142921
Ni 8.350091971938664 3.763415836093276 8.192648743643657 2.2854312314695284 1.505198609718756 -0.6882074402917115
P 5.54976748411426 7.928560961237304 1.5308070802045848 0.01230735661244332 0.7029812561667764 0.08175696676383339
P 4.915414492270499 2.2818227340210835 2.0418562029599863 1.2875081901486858 2.6407438044021685 -0.20800301707897723
P 7.3589171669303495 4.309023988001962 12.95253132041381 -0.29399124831533885 0.765853470210965 0.7985679297248505
P 3.097601556232269 8.091748363768644 12.271567979064463 0.6731670010188213 0.12746989541991596 -0.07685824391063537
P 3.7495974354113444 4.826948811945162 4.368219783246481 0.5285298497909995 1.3677577191290573 -2.366848555505756
P -0.4579585481758093 8.170154992823162 0.40655595870308725 0.6487320079049086 -0.7227373557477811 0.30774973555201196
P 0.7234281706503549 8.241126670938378 4.276085015117179 -0.49782367895639423 0.614725826162793 -0.039347391449370946
P 5.943801273256622 7.446377872660638 10.497534714089095 -1.0092240681559588 -0.8688035261126457 0.9775614469453552
Ni 2.7722410310849623 7.150980478958328 0.6087065984973137 2.5000031600152752 1.2781033518950182 0.21784057199468934
Ni 0.9087045425680728 4.675532639624355 12.61971723368655 0.2166745767110462 0.1502904928588573 -0.854140267673516
Ni 2.8228247523691254 4.122424399534096 1.939902460824237 0.43601975827572004 1.0007502263569925 0.4641879931798199
Ni 4.376087431580873 6.2196574942774125 2.4873158448758823 0.14551132630265906 -0.4346624729168772 0.26356712749752675
Ni 8.073500630612235 7.2220265996361395 7.144536544633589 -1.0277246980633077 -0.7734881039380872 2.142919868335458
Ni 8.19145487104602 5.262707657422732 10.867025720875501 2.2259888690424954 -1.2025921089305804 -0.01794964249988522
Ni 3.9734369158179934 0.9550143302271776 11.509351511173323 0.03354826826909061 -1.5666747147463662 2.205781540856685
Ni 1.7544064833468604 2.727156754112598 8.105444864754325 0.06696103940158146 -0.38950156010952275 0.05168945795449162
Ni 2.43471845227349 8.301732222212063 5.85931268683799 -1.3436001480462474 -0.23004251337751996 1.5698585117909867
Ni 6.441133423321629 2.8440781039903595 3.8114908430179453 -1.9462939827451706 -0.8240164517049421 -0.6770683929557565
Ni 0.8342833822085528 7.759297184534044 8.122141401012636 1.7272143961370574 0.09465259177957892 0.06842425421066925
Ni 0.7938638623148774 6.451657740608677 6.00281840635091 0.623789479026958 -0.21538902513040326 -0.5875415524385171
Ni 1.3282507284442087 1.094715104259396 4.997893129499033 -0.36683574308089084 -0.16681522998675785 -1.1102583950921654
Ni 6.475823657491489 5.2120494935759725 9.030097795826617 0.29941139088964563 0.5766351899386585 -0.10241140978939137
Ni 3.5337977517650927 6.905962089493042 10.453326067759273 3.171997995102866 0.24598309586717637 -0.29004743317624243
Ni 3.029067872042081 0.27072340632977726 13.933473995193268 0.14111525411749246 -2.6311631026922684 -3.440127288049778
Ni 9.12360602923582 8.144639804493293 10.263487297286433 -0.7518034198758019 -0.7124138623345859 0.6054148331745123
Ni 6.143995934718633 5.690733781710614 4.274600816525416 0.017135631239022103 -0.14790579467676462 -0.567734545014919
Ni 0.391638599690828 1.0769512477598622 9.535850330253293 -1.1198977179541423 1.0049372678551465 1.3960480814333183
Ni 0.9119102254198744 6.807837486670838 1.6500975646369718 -0.17267323142943164 0.1574556431487288 1.7716631133687357
Ni 5.149350245229267 2.135738510246235 6.226297770861 -0.5167665386074841 -2.5454612923480746 -0.8889285789972948
Ni 7.00171383563249 2.6373138863792294 0.826781432962914 -0.10906311077795411 0.415635023971781 0.4545664109296558
Ni 1.0050862588934912 7.194222302506434 12.58448449934177 -0.677453287099001 0.7918172412645783 1.004093946018245
Ni 8.405374879986715 0.9213076684156207 3.892689068169823 -0.41335574101930106 1.0820068564456398 -0.45592935271545354
P 2.9538250518979052 6.630236142956795 7.5142183104866485 0.02829601873121578 1.012611753681269 -0.25758828420627256
P 7.747591091565781 1.089671620643499 10.839364725678795 -0.12729583173589692 -0.8709331708611388 -0.26900398224238187
P 6.345409593143155 0.6495197334407168 4.928039950886826 0.5860981351237713 0.835854839100767 -0.04367558651107962
P 2.8145057959989925 1.9627712160538102 6.2360758014580195 1.372011866419721 -0.006500520122679127 0.1138168234128556
P 1.375317038645698 1.6014549331725063 13.953221745985992 -2.057415261603734 0.5603230830421962 -1.4991524035246762
P 1.279314048857488 2.618684635089514 3.1039691869303474 -0.5134135629748513 -0.28455170016899384 0.3721828663254171
P 8.86435980499432 6.174489469422127 9.058780515194957 -0.3704149757917169 0.761096929362586 -0.35709666141625596
P 5.515012112702127 3.3585134328118587 7.86368892059482 0.8086260852918009 0.5440186894552179 2.913196921535415
Ni 3.638882734190047 8.579458812618086 2.3610919662696856 0.9279144733421889 0.2135702267541096 1.425921471953983
Ni 3.7183501697615617 0.3351748464935923 7.4239492590824145 0.5168647547482453 -0.2968091773801082 0.16997305888944922
Ni 6.5480887751318155 4.715750234066989 2.2243409787803436 0.19670404712639025 -0.005537641988777559 0.02752314512093324
Ni 4.057184798738793 6.580126993009183 5.557754240548807 0.18168829044384838 -1.003036708398324 1.680277365265887
Ni 2.9156267119656962 1.7129512813010643 1.8288778924361329 -0.4739687267156676 1.5664253177397216 3.0915242659268305
Ni 1.9997877803048034 2.0794413222828085 11.030388993960978 -0.8549203403726502 0.5420438251170342 -0.3686501705818103
Ni 3.898864078737183 4.768595148190013 11.723922892536738 -1.019810071201921 -0.4436569631060037 0.30531438663764193
Ni 2.830492336316541 4.201910445746259 6.137540834009504 -0.5209039578146255 -0.3592731002422845 1.0782800424133558
Ni 7.953824905918412 1.455808059452911 7.559379821617705 -0.2923269732390385 -0.3380694695814759 0.8912220030171619
Ni 5.162954623543734 1.1481462535628664 0.22736061361745208 0.2890210487942571 0.05021518740181029 -0.5050340806619044
Ni 6.110496781550312 5.51694761932963 11.515643768776771 -1.8120726275340342 0.024216192234887326 0.7923373754341064
Ni 8.067377729838691 7.178868523970955 4.840890042855378 0.05758011240731374 -0.9328263088215096 -1.8519684352877073
Ni 8.111857160989961 8.292752588098889 2.5656266291310574 0.1431381980847922 -0.9566342098743846 -0.785802402529066
Ni 1.3575159608648657 5.265248009871329 8.092519774823549 -0.021365610159969656 -0.8726228998587359 0.48499078885778407
Ni 1.1585775176466684 4.55260935813727 4.242363464793103 -0.1417066078445882 0.26446572805239615 0.11204841865852316
Ni 2.0298997968749934 8.755450335915983 10.593264127459765 0.38924727800687153 0.7986360639586245 -0.9381371795114618
Ni 8.44206575802635 5.73030000373053 1.0248982163964553 -1.8615149413255618 -0.9953195422597245 -1.9264836328874626
Ni 8.137632898288919 5.024444930513057 6.191432596669038 -1.8367809289139914 1.9837819523882998 -1.0474018647772607
Ni 7.03322165025136 2.9159430928567303 9.604899529189462 -1.9761658306039385 -1.6247497645122277 1.3483775148302326
Ni 1.3915734332526577 9.141565297462169 2.0581181807591404 -1.3190846794033861 -0.23973351541303872 0.6891150397076454
Ni 8.70416871560748 1.1727495205009324 1.3840724145390515 0.8190881611653892 0.004413298576347238 -0.02438897036732574
Ni 2.3615414132413606 6.822521282142951 4.030556694098109 -0.006866130992213982 -0.3979628035029985 -1.8807280239189028
Ni 3.802740119784754 2.762879878838482 3.9023861424800192 -0.5826590275352352 -0.15725432577120016 0.748258382837021
Ni 3.159947202406643 2.6568922803420474 12.982045004887134 -0.21775084049436044 0.8522538492840807 0.8882775756768574
P 2.809694945391209 5.22436043236533 -0.018030919192848185 0.12201632850451247 -2.499203546932115 -0.0706829683378589
P 9.60430026656056 3.5454480128114083 10.08884690649966 -2.513369554019852 -1.5386167801678856 0.3207556608933766
P 2.2686836217228423 4.136829035396474 10.198168601268373 2.9773451740785495 1.8979641852915312 -0.5296441659011007
P 0.7134677557749745 0.5517487327908454 7.61133700818177 -0.5092008104450844 -0.26846096525471824 -2.402172170507715
P 8.700446587477666 5.685820572579261 3.1902611444278746 -0.5255036613701659 0.4743397369018411 0.41085560030526663
P 0.37174940802917045 3.7764339792272983 6.481332407123613 2.4359433534208885 -0.6352134045931834 -0.6255002910704776
P 3.2163560542139633 0.995901907733177 9.399262185869631 -0.489465536799686 0.009871750587757192 0.5082371609802344
P 6.136821532748416 6.881079662945239 6.241768796432568 0.6864945713656629 -1.0889748031230406 0.5350239421557754
