# total energy = -381166.1846466501 ev
CRYSTAL
PRIMVEC
9.26991194880059 0.00000000000000 0.00000000000000

0.00000000000000 9.26991194880059 0.00000000000000

0.00000000000000 0.00000000000000 13.56745315413745

PRIMCOORD
 96 1
Ni 3.725466401559371 1.2455517284555022 2.7011717141509752 -0.09798885524166351 -1.202453012249555 -0.5877356707271942
Ni 8.6524060999231 0.3418780632317218 4.269664002574241 -0.5181919582001011 0.7734641926786873 0.12551559990702252
Ni 7.175403208173012 7.890289553179226 2.8342950666758426 0.09692004765751695 0.4923598276283456 -1.821084344114341
Ni 8.367625132782242 8.355666946277514 11.706229369054475 -0.808926133030723 -0.9590507897356774 1.151664725953094
Ni 4.337540152360992 2.409565310790403 4.708624927391506 -0.508912332670388 1.4388235247276315 -0.11718419722319173
Ni 7.176589756911466 4.191446338938905 7.054424367384457 2.4406006496872417 1.0513168835609508 0.6428192419648994
Ni 0.9706339477030381 6.969221825042679 13.229162820877136 -1.532413479570651 -0.8803583208297805 1.6673251759805932
Ni 4.307774464867444 0.6782905863369423 0.2977634789237034 0.06045177752815394 1.4128702951969796 1.6861227683030702
Ni 7.711092883936691 5.770548041668109 11.243362268130976 1.2252892934177801 -0.18884135654886186 0.05522755301473715
Ni 0.4716336567200252 7.643709893469358 5.603805499223325 0.24448439983446282 -1.7436036361283584 -0.7955530541579267
Ni 4.822671727972128 6.735314135063013 3.520808064973786 0.9096059048409884 -1.7169770346797655 -1.8560822003457647
Ni 6.245797891066812 7.035909572108573 13.04859327766456 0.0057487295583191315 0.6180834297811162 -0.13975925431023029
Ni 8.516370141041811 5.198112434660449 13.561659733145458 -0.9914945120866795 -1.2292750175384055 -1.5075154307773908
Ni 4.3170629167106505 8.538395451999353 4.599258505389363 1.1945502124627103 0.6496671181246683 0.18073646805354035
Ni 0.05022252933744815 4.878235580615021 9.360619962257918 -0.22090815517641954 0.9717157867978555 -0.023304736164211477
Ni 2.086304938857978 8.744632454601803 4.325670030020448 -0.397497948051438 -0.9690549521362408 -1.1041684801443434
Ni 3.429932336476277 0.33029994311978106 10.121415546539058 -1.4099664912866234 0.024231104633222783 1.6242188317094222
Ni 5.118687828480218 0.659229793243129 6.2917840706115 0.4750236503427432 0.7505278955974881 0.9176933098348131
Ni 2.32369811575685 5.969452543863396 10.224202184989997 0.14476622060651842 -1.5429398330232718 -0.05928141136913662
Ni 2.754489467111623 2.69079590162792 13.633391239340982 -0.6493076779027205 -0.07863693307761296 -0.6143566157488323
Ni 7.437778797963542 0.8905919653823305 1.7696567951688256 0.9888125943791422 -1.422658484931995 0.6343932226847333
Ni 2.0231304884473484 2.4256115284955824 9.747767640835244 0.17704976323057248 1.1104746248680295 -0.7563756126275166
Ni 8.860599053961593 3.2554725922755363 5.4958499578305 0.7541801476380946 -0.40650606508731923 -1.326466059469122
Ni 7.4250604786732435 2.9302933485551437 0.8061931244126139 0.8746288745451711 0.9898916863759338 -1.8213396546582568
P 5.3134672198269755 9.073834840138513 2.314688688265421 -0.4327074060730354 -1.0135489207835577 -0.9184373870896892
Ni 4.669662560183742 8.682978269762316 12.128150341598106 -0.17611259612828378 -0.36151921596398384 -0.6914100063894093
P 7.863212140171236 8.200164172155972 0.6168551714211085 0.7957276320625779 -0.21333522792516807 -0.30903065914696454
Ni 6.239707558870218 6.5233390569207 9.236002681001837 0.6421291578764102 -0.05134081636582127 -1.614837133384206
P 7.41529926131706 1.5404090899611964 10.743673222684938 -1.3119817498100177 -0.9364608202503034 -0.03224266208378964
P 5.621979161736904 5.6919948072176805 11.109152481917462 -2.2372654703975794 0.13231102556230118 1.1852824140075393
P 3.088215569713689 0.8312014930579252 5.536063763160851 0.6481956757854643 1.0376239594548904 1.978252537929638
Ni 1.315808391648776 6.341092586623858 7.825123925666879 -0.8297687808076871 0.9606266188632295 -0.44320187784645604
Ni 8.371787323278847 5.73934551781159 5.372412736374461 -0.10416284526285932 -0.8795803050131755 -1.3574972177433138
Ni 6.27110475087914 4.659892072915539 13.048280881629514 -1.8196733226994273 -0.06659774252489176 0.07525901774431555
Ni 2.846446994341769 3.384120431277549 2.4943219703640596 0.2035308402402366 0.9901698797379851 0.07168981233581848
Ni 1.7502150086910246 8.287783380561148 11.772140297493163 1.6221359810384641 2.262533758046065 -2.025046101244409
Ni 8.492926533545335 7.820329527170565 9.235826552673473 -0.049877344446417324 -0.27160336753844194 1.6735773275378922
Ni 4.643475058729592 8.561764900199675 8.569840847550774 -2.3483762077331813 0.6657547677151501 -0.42554328422442844
Ni 9.348891669571266 0.5138034134864221 8.289524270038347 -0.9445775358201669 -0.031205736178843032 0.23253725477491566
Ni 3.895476587990911 6.175986183650458 8.031945859717737 -1.7173806978760875 1.4771949254169785 0.2618000082947749
Ni 4.266532626294166 7.2736457357521545 10.30821168965491 -0.6632998784167544 -0.7103250981263572 1.264934675723544
Ni 1.1958464602087235 4.596801051713082 4.263436475679764 0.16914413523025065 -0.21471616743309474 0.6639452253102373
Ni 2.5549731507230713 5.709181224101217 2.6196446919247967 0.4900905719781947 0.7920640671680617 -0.5570390129742858
Ni 6.449077791735146 3.3591009387378152 5.118118655882242 -0.6301804701549664 0.08856910458966037 -1.374731322233413
Ni 3.1801174774717196 6.582879701819817 12.473523161661053 0.9413757410534174 -1.069552689842687 -0.26193242010758117
Ni 0.9816744129178671 0.5829597381230208 6.198535244637084 0.22353196595251182 1.9182784713688512 -1.0798656417329207
Ni 0.5864767427430931 0.1557947763501462 13.45671598616766 -0.5496203519127115 -0.1556414727581255 0.7875103863591082
Ni 4.299431544050194 5.3581852754074415 0.8909247552238186 -0.7083273509700382 -0.2908989825432603 -0.3173265806071696
Ni 1.8840818081598292 1.908962252019276 4.116623317084989 -1.2708934644101402 0.8771809515430635 0.5144461180044236
Ni 6.606944393421576 9.060792073927544 8.103201819426676 3.422621417955531 0.7063900247380093 -1.6855488980774713
Ni 0.5598025709079374 8.445918809696133 2.656955160810746 -0.5011427160272982 1.2166789260409498 -1.947105165792556
Ni 7.732358062108661 3.287991443638777 11.930553823988722 -0.19487419300650308 0.8120428242828336 -0.6942922130332106
Ni 3.9377195770622597 4.280799020891665 9.475563163330792 1.3382568814564628 -0.3585367362968922 1.0006455824583285
Ni 3.6999277939465633 4.246574505716897 11.959126473805403 0.6329017257408712 -0.09356398670109048 -0.29095451837154407
Ni 5.738158969073137 5.7213711584064235 5.682469972617985 0.2793092208231319 -1.5159429927194539 -2.3412514237629423
Ni 0.23009868313098886 2.4300332765287256 12.686410399146054 2.4327351308962357 -0.9874972180018284 0.832765915762798
P 0.7772292843087236 6.568261050565588 3.4884495830884767 0.0838830119679007 -0.7370483730538144 2.2661710976883356
Ni 2.481713036035587 8.034093698332578 6.93496301119344 1.5662998479054508 0.1623913898874494 -0.42553634224589293
P 4.746306192758222 4.507216621959842 3.3521651905650733 0.2180262056429342 -0.6156305973652494 -0.31946188178261753
Ni 6.282636521430986 3.9036619203038363 10.146962497072684 0.6162268361883516 0.5631384410038044 0.17314965684521794
P 0.3632498453919136 6.7192122978857185 10.97551372228433 0.6437504955299171 -0.31689874904113163 -0.7410071005912464
P 2.325125682207802 8.96603503326761 1.4272280991631654 -0.16716567134764115 0.5568680346140603 -0.5390551748023555
P 1.3408278841885104 5.063911918358955 0.507166156480698 2.4916213637094833 -0.12426938620474728 -1.3841132776689453
Ni 4.111910493814444 2.3635031179671575 7.890708553202492 -0.11885721405024045 1.068530676336076 -1.8025675162570762
Ni 5.662108610867882 2.335665572173596 12.487199062862931 -1.453514551080903 0.706307492326532 -0.5664795895618954
Ni 1.177093428193947 1.5814840701181296 1.7856807650851594 0.6809098781890337 0.1780938882243707 -1.0519110655015238
Ni 0.952743017506044 2.6377534650542414 7.684320451034131 -1.886016526011352 -0.19482817025991608 -1.5078442748717191
Ni 4.86677796935933 3.086936321855044 1.180889457165796 0.01114804619701951 -0.11065102409036427 -0.7129630499698367
Ni 7.546894932341168 1.605446792687679 6.241042426200979 -0.6815544537515681 -0.7222748142890657 0.938901568481312
Ni 7.739199257178807 4.840683167025372 3.367319642734009 -0.29248535319377367 -0.5105354700961078 -0.11975889992890343
Ni 1.6939651825587136 7.92768437826455 9.427575609781163 -0.03318291450987188 2.263231298333722 -1.0063338910923572
Ni 3.1250912797259387 6.5146253396226825 5.195438992034122 -0.5603621638102478 0.9274393334779832 -0.590318343852706
Ni 6.737881900692323 7.8304800808315544 4.906086104285409 0.6514275524592008 0.3671561025347871 2.4694327434275856
Ni 6.297060504532811 8.918313526192932 10.365887228255769 0.23722463294825596 0.5513118806825215 0.8824532556855964
Ni 2.241613044827118 4.367824954927614 8.07466995722288 0.4346177357218708 -0.6709206281868058 0.8114990359642218
Ni 6.45158993789234 2.7519124315702945 2.746052920182979 -0.2597778356584236 1.6631317067245357 2.111164944521364
Ni 6.817751462649475 0.5219664980105014 13.066380384846939 0.4461694451152122 -0.8360654124496762 -0.48941848561183454
Ni 5.231891994058297 7.5362438034311445 6.710448523062797 -0.16504219724673513 1.0840053749329073 -0.19879949620283824
Ni 2.4174447360066957 0.8099826644460498 7.960581442038173 1.1177670447643848 -0.322871935905431 0.5756777111213957
Ni 3.147830373908958 4.517571113685253 6.026771190851517 1.0255901682188078 -1.4838705376649413 -0.2520311018334692
Ni 6.555440762243078 2.502282970806121 8.329290338618174 0.17827489388692522 -1.8664717711102048 -0.2611448912092793
Ni 8.858049828156322 2.6530117402377917 9.68518090284663 -0.5415267762712996 0.6016407108440607 -0.5245505534282773
Ni 4.921210892735884 2.032094493369884 9.888896489379865 0.5335193325857909 -0.5794276650821312 2.107982947248957
Ni 3.924908558651769 7.6818926610763105 0.7134865882913191 0.7347575201371087 0.19735299356429883 1.5449674049762616
Ni 8.162361470941805 6.675031897202365 7.35981420292633 -0.8578416277845032 0.4037680973308659 0.35726455445268795
Ni 0.27087980707691445 4.132091092280173 1.9277996402334272 -0.481503601640132 -1.9210508919076656 1.483506212346987
Ni 0.252390040563482 0.6436266773324656 10.577390467876306 1.3374770658676451 0.1990632913871862 0.9143719587710639
Ni 1.11667214165301 4.519962750986198 11.755560132855678 -0.24819141637240483 0.12350088346983891 0.6471145269061436
P 2.558699655354777 1.787266847031639 11.571789689022884 0.1792313442629236 -0.25774075062373675 2.515889492228228
Ni 6.136412929240629 0.8365261305217354 3.918619850337966 0.5497645908000596 -0.057103944101843586 1.5303833365144999
P 0.4282931100656074 4.701597407089776 6.831483910314669 -0.5205283196427616 -0.3490267399239279 -0.14990559871561282
Ni 8.800743232053826 6.498681090949713 1.7953400134091324 -0.1478379175533067 -0.10014575368366624 -0.2635313891635849
P 8.359226592492876 8.943351558556705 6.439792120865545 -2.4285552884869337 -1.0977255527324772 1.1765689453939416
P 5.305884431795296 4.81964046674186 7.512366364052172 -0.9577104736576989 -1.5821051903688237 1.413694847980804
P 9.034558222913299 2.2462758105727594 3.1532523454489696 -1.4502757324286313 0.7404347730275442 0.9975546022378303
Ni 6.4490963315591845 5.942532719359732 1.6738439115299075 -0.293725653358778 -0.5593257521259335 -0.34188010157681764
