# total energy = -340895.309447409 ev
CRYSTAL
PRIMVEC
9.02740912587338 0.00000000000000 0.00000000000000

0.00000000000000 9.02740912587338 0.00000000000000

0.00000000000000 0.00000000000000 13.21252576021973

PRIMCOORD
 96 1
Ni 6.274410459062721 2.003588324897381 11.183887486786624 0.3697783706489825 -0.12133807149056522 1.3231089700714311
Ni 4.528906734496464 0.32329589584380114 5.927231649558561 0.03199377929777716 -0.45937848760631855 0.14400903072551974
Ni 2.75402782053997 1.6697637617561512 4.822400444496998 -0.3706378904358004 -0.48042939473934687 -0.3947550951989782
Ni 3.6045000370286595 4.540308352259177 5.043075461289972 0.28494662161456735 -1.1635285672702154 -0.08309445462833431
Ni 5.193594870576097 4.388981892594599 2.7866402388531744 -0.08811736176422243 -0.2396293857350066 -0.4246948201812041
Ni 7.109960368218264 6.193037392939921 2.5842511420444865 0.8416930430490988 -0.5358878328179674 -0.4661577153116811
Ni 5.1371374537209835 4.462158071204697 11.53084873573015 -0.1340210662748724 -0.10527484738011547 -0.44638824599423765
Ni 5.51140480987643 8.013757490585297 12.42986855317238 0.20944797705561993 -0.5852252456005147 -0.25410778185683974
Ni 1.7809633877269362 6.55249077067208 0.38184767162286537 1.0205734317305069 0.48784728446997266 -0.13993254666330093
Ni 2.833387774421215 1.4268181265778939 0.43007389681048747 -0.2562088873602426 -0.1397757093704625 0.3924696415989112
Ni 0.6881250957277376 8.977668130515202 4.531064285284499 -0.8027112624692627 -0.5223476322396875 0.8242707338075934
Ni 8.676459596650838 2.3240071854434965 1.3891386235060104 0.11357462549506245 0.16397133278005954 0.651264287408459
Ni 6.868432036277335 0.7362502139328242 4.990503441335153 -0.28349240566654405 -0.4954407805465145 -0.6098407301563497
Ni 0.6989336127089701 7.430189653172125 2.3988001730332478 -0.027959718437719588 0.1828360308950464 0.22000081287080178
Ni 7.640212327162247 3.9757522385263493 3.8067799021865727 0.42054891633363056 0.07853871693685184 0.2910190530608924
Ni 7.715121768330096 3.672918771014094 12.822677304991194 0.09173284702962266 0.19253731734321036 -2.0089335119532628
Ni 8.092982033329218 8.800053855391383 6.882074256992309 -1.2293732336791667 0.665970226160066 0.10679848311349349
Ni 7.113264399968979 0.6052778536899321 0.38777055476943395 -1.1057689918622442 -0.12337284253240689 0.29519606725671743
Ni 1.8147439527847933 6.377846513160241 9.25541352524491 -0.006956376713175116 -0.3033125257162647 0.11233406821974203
Ni 0.18225436342946777 4.848341607444689 1.3143447331753437 -0.5529612433604865 -0.08372951710917194 0.6480200694395485
Ni 6.228885234694262 1.9663412347240201 7.0873837206626265 1.5796173909499636 0.6375687921992375 -0.9588031925012456
Ni 3.436671473428816 4.382382856502324 0.6560480027774218 1.5880279836111617 -0.7288709794493448 -1.761148072770025
Ni 6.069073010424023 5.718159561752456 4.667958625933045 -0.5070824785505008 -0.32534430870532355 1.0790703995251352
Ni 5.494424253255952 2.8863876935699793 9.128996395661611 0.11985531629745165 -0.3300872227069476 0.73192493578432
P 0.32259536889337626 5.546322828487811 12.444084917109608 -0.7386802522302827 -1.2034511144967661 -0.19761833141054352
P 4.1207234021458365 6.066996706318383 12.709234367845403 -0.6771779219504273 0.5783429166583847 -0.9668990821355027
P 2.2909758953455017 8.568085549745556 1.3062525636088387 0.009324876945351683 -0.01646483042424261 0.5609692012666275
P 6.25482098119646 7.6945392754567905 5.865013842921667 -0.06071608693313414 0.4048808707790704 0.23916118784933652
P 4.704706500380136 1.0056443524532805 12.509500232069186 0.4533379378391935 0.09307547710044616 -0.19145334025041222
P 3.964838100858004 6.098348898313556 8.328859207139141 -0.6789103312605018 0.5604534379724735 -0.017503813211718244
P 4.5269477867098376 1.0527222911963918 3.6916858519063385 1.2268314410939194 -0.31688692196658974 0.3891290072614524
P 9.238740803276615 5.6859858755241826 3.5513547765925004 -0.44286712021485664 -1.016808565371436 -0.21361933482449016
Ni 1.4456583294842933 1.2702738244217495 2.7621317257383766 -0.09142894263595866 -0.05620354377476128 -1.3984476920137463
Ni 1.8455454728215133 6.368187185364436 4.757104291338265 0.8222207932571002 0.6837843715233515 -1.1142834570911584
Ni 5.993874692163215 5.463243582034724 9.41417586183043 -0.4730806676837594 1.566067934400303 -0.4349494080296767
Ni 8.567029342874426 2.041052072890461 10.112867539974046 0.37707233320723443 0.841951438916808 0.5832776349558406
Ni 2.391089862873997 5.4482039183825615 6.938293350245732 -0.06500057324110096 -0.4949527851665024 1.1688602638957741
Ni 0.5261562234103783 9.015646440830114 8.870797147234219 0.6045936228247974 -0.06789512118007662 0.8002558589502347
Ni 1.6555275375187808 1.1189563921663261 11.321773939701298 -0.8777357956052689 0.06521346058285543 -0.3767404037891125
Ni 4.033960972757526 7.170046803553671 1.5021581751624355 0.4250977120465776 -0.942700630512428 -0.6132901221575309
Ni 5.410162416203564 7.7276518122371805 8.050378981304219 0.007844178634767135 0.5298390555207262 -0.21462617882244972
Ni 5.240104082542446 2.7346008360384984 5.088540202017093 -0.24580131887367346 0.014488680534478273 -1.3399000734868407
Ni 0.6541775236005142 7.2136221075446585 6.651938515404939 0.7068957607298342 0.4820970122497568 0.9676043357326432
Ni 5.085202768852504 4.528906734496464 7.385194337721063 0.42932280587151866 -0.268664339514776 -1.8619237467282062
Ni 8.015346314596568 7.29375841861323 9.132352786385423 0.23029962369364854 -0.7040829738713874 -0.42615983476250474
Ni 4.446937859369435 0.39731433172805664 10.186170102312312 -0.014431602044297727 -0.4257206903425571 0.39371894062498003
Ni 8.089416206713008 7.059442986587112 4.88185676667339 0.3242132804246739 0.6506549359592343 -0.4680801291453745
Ni 7.107649351474594 5.941317116063043 7.135503422422221 0.2243349214697814 0.7231255923251353 -0.5451114082987644
Ni 2.3836873873669306 5.322009765805389 2.3412197464792572 -0.6936851755768311 0.3813714748032206 2.711120554353518
Ni 2.3189157266800997 5.231681509800869 11.477086903248708 0.7807733247455908 -0.37964806435421067 0.20158400092651088
Ni 1.0679334756224979 3.475787237297254 3.901830395920052 -0.016824013535874253 0.14806725995529338 -1.098837040629101
Ni 3.5547951222214556 2.614464075004303 2.569426330730213 0.6543832926534149 0.7613121306971856 0.07541456948557335
Ni 1.0208645642885414 3.275965535652236 8.26369485415407 0.5603174266152414 0.9239783715125766 -0.8571965380013365
Ni 3.545397589291143 2.7670904815871955 6.891244299211916 0.7818549878455439 -0.5684991910950855 1.299019533222395
Ni 4.110612703892282 6.8819370403731535 5.704771913975652 0.008907072681642725 0.8578236300623744 1.3185668592267032
Ni 0.7291104360321672 7.301061592619591 11.350722132638506 -0.2042893156728159 1.0407887303361172 -0.40368839313286603
P 0.12978254771626843 5.630458281812029 8.041063597797217 0.18747790054243196 -0.636600257638381 0.615161885258947
P 8.45471934557758 1.7305182253690254 7.958327392892016 -0.3270954870684754 -0.7319989835553652 -0.6106418859014064
P 2.0291629750333797 3.240180885761978 10.429412739251767 -1.1691137746674767 -0.06355921280888409 -0.765557793347417
P 4.03176731233287 6.05643463760708 3.678869639129043 -0.3160646831756105 1.1727076626663222 -1.386666125997786
P 7.093909634740747 4.026937648434967 10.514963690331484 -0.3290855209153107 -0.9819948001263604 0.2867289103259707
P 6.1680766066264585 7.688698541733531 10.179537664806164 -0.015889417536746827 0.1433847668779595 0.4781262005274669
P 2.3851769098774986 8.446576622519807 5.769725025586498 0.36274357528938816 -0.44111465630012414 -0.3615582967320354
P 7.038725082576482 4.025357851832849 1.607620882615244 -0.7217191988959119 -0.04364524749377645 0.42974343834870504
Ni 5.367146811580184 2.837296642585312 0.3914194335498684 0.306592224908801 0.20215992803463892 0.3833743641658623
Ni 1.4166352090511 1.0612531928478282 6.819380705892949 -0.26964084449543235 0.613958094758833 0.20287932269916673
Ni 6.771215867087581 0.6536755996514986 9.005538450799307 -0.09714501918412947 -0.7592071685390409 0.6215397637608328
Ni 2.6012118383648235 1.678186334497728 8.955423691616467 0.5994154210579676 -0.9981428706411325 0.551818645115611
Ni 6.504591337695866 2.071447359515208 2.7815144759349892 -0.658264372875376 -0.2439442110602767 -0.5296963592952748
Ni 4.0686713609583425 6.892923397314739 10.544705392533412 0.21372320739220613 -0.4685696671872834 -0.5682333390282085
Ni 8.113582581020834 7.147694938485992 0.3550136979097496 0.3522161933955031 0.3789952612615602 0.17412127672986785
Ni 7.710924023073042 3.879682550299276 8.350038411757591 -0.38049781394901566 -0.19554525093159872 -0.5939137745134481
Ni 2.9892821031182017 8.322738623732079 12.298589261018218 0.7293083240970795 -0.23910153825599464 0.6906008802245526
Ni 0.21807060925176772 4.608384044696724 10.32631521299756 -0.13290083662750013 0.03224317630442189 0.09761424551106414
Ni 8.572057609773738 2.475532248109484 5.863626330134551 -0.14857402438838285 0.40974154130548146 0.11161184534173682
Ni 3.590471443201853 2.6692062841199746 11.746344727890923 0.7635492475578205 0.686620812530882 -0.5482062451740043
Ni 1.2832101017408055 3.04034112929865 12.66392850951941 -1.38469074743897 1.0967415915526533 -0.9649296171139575
Ni 2.8005731421429387 8.196147265152089 8.013278135159167 1.0422133785977856 0.3488259367670315 -0.46149167729457946
Ni 5.427206164688126 7.901781507427185 3.6776798266024193 0.25005058106833067 0.7197124528785284 -0.5121061570173373
Ni 2.9867002640998837 8.284886697145335 3.3749023290269244 -0.21288605620289142 0.33558192727293173 1.125509407713965
Ni 3.6153780650603853 4.152761677236787 9.208152330095952 -1.4009527178237873 0.4617145919386629 0.8632422299747842
Ni 7.440128830651735 6.102014026430468 11.402554807783535 0.11638638391224472 0.022344429133471195 -0.7995248943214811
Ni 0.4824762014731936 0.10397408768315607 0.2807090931552819 0.3928501648667815 -0.2965430682029151 -0.07657053746688748
Ni 4.917997096484353 0.5941651130201776 1.5225583143708117 -0.22174196393162454 -0.829145031180759 0.3854721272351555
Ni 6.2487816444717925 5.612259024955631 0.11463997159974015 -1.2878506610897693 0.16629329604501683 2.1001063727143574
Ni 7.8027959660430595 8.752479409144748 11.21361564787482 0.08450830425672543 0.4011617700562704 0.2719265552058156
Ni 0.26388471071318476 4.884884559703963 5.863494529960888 -1.344327256020259 -0.18272315946626597 0.04163078816690895
Ni 7.789597893858509 8.768647498941279 2.742088169191621 -0.3936184104913737 0.30893449988873245 -0.2370611107871982
P 8.452092369513487 1.7006465284752659 3.7494901582073723 0.4371081062438924 -0.12540735646393242 -0.39199347329344103
P 1.819158355861568 3.2239676589196717 1.4671589098686593 -0.9029416054469352 -0.22074180480188435 1.7203953163326953
P 4.57486527450436 1.0763199387274547 8.048356841653508 -0.34055521211780704 -0.5036647111182035 0.7647412109833926
P 8.463566206549439 1.6041886616545287 12.30626526702268 0.7018743962558429 0.23439847635337052 -0.3750316486281218
P 6.1787470042476205 7.719472979542787 1.3598464862799993 1.3032484837020781 0.47130352117867863 0.44206570735948386
P 1.891684561012509 3.4117106871153546 5.887779163328643 -1.395287806228526 -0.040913450384910184 0.3982083438549013
P 6.756428970891758 4.0733836685372316 5.981165002813947 0.816040375478001 -0.5620608916689094 0.04789939478444009
P 2.277127849701795 8.42056865674437 10.218778909661856 0.13804252872943967 -0.15383552989763827 -0.8613185305895102
