# total energy = -340864.9124450659 ev
CRYSTAL
PRIMVEC
9.30484210447818 0.00000000000000 0.00000000000000

0.00000000000000 9.30484210447818 0.00000000000000

0.00000000000000 0.00000000000000 13.61857696775773

PRIMCOORD
 96 1
Ni 4.550272419259634 6.612002078804342 2.1497599777653402 -0.7153243511131616 1.204016500081933 0.020127366877494366
Ni 2.5267484407547967 4.194176117896778 0.4648922353595902 -0.15469890633919808 0.5725476501328461 -1.211562430749991
Ni 1.031516168708738 7.2312672249920125 3.79303228520944 -1.7090891472912566 -0.9585900480491748 0.8292517319619525
Ni 6.603097345059783 1.8102942204167478 8.511528803021447 -0.6777746749941618 0.17279895837401854 -1.3488140881470188
Ni 7.052037359383146 7.683268532316376 2.374371418524636 -1.52148603402487 -0.7150315024630912 0.23415807820779028
Ni 8.357609037996252 5.522740060964225 3.9917409069529546 0.2708983710516173 1.8306671027067696 -2.6347801306195655
Ni 0.07329610099543984 6.158335204771227 12.953568231222219 2.0174564618226096 1.130248207950531 0.9104934496522642
Ni 0.7441631091760014 4.424536090011757 8.347275080528428 -1.027427735648179 -1.0569131467018056 1.2855053007860442
Ni 8.309233164706848 3.6558537918176928 5.067526722199295 -1.6943765236714303 -1.5977390402513387 2.0301309719664844
Ni 4.397105415948059 6.403024633486642 10.435697540170333 2.206513791037019 -0.9294332239795606 0.7003150221885229
Ni 8.69874315350618 1.5692429849031304 1.166418697759922 0.17677902606768908 -0.12528342929155845 -0.30746125777731564
Ni 2.0068497017334175 2.552476328741948 1.8302279833226698 -0.2106635946302759 0.3393362521090414 0.688674352625801
Ni 3.812184441391701 1.0939330484981824 9.520637981834394 0.5726846899313427 -1.8769562155812964 0.19586201084106913
Ni 7.876371917270213 8.768585297170398 0.235149174265787 0.5994187634920773 -0.8548396077333859 3.1330529812982366
Ni 4.758254246488861 4.6945439936685975 7.837981069875569 -0.37130046372046377 -1.1014045442459612 0.8446117593577905
Ni 4.059227995120048 0.022888980708714073 5.149252079515734 -1.0007995915376893 1.2731899737538008 -0.09874218846792027
Ni 4.358257700813753 2.091170179469247 6.656801170848805 -0.32936988492494884 -0.8579485856760127 -0.04123046740469674
Ni 2.8229215599703616 7.742791606259887 11.782083977505623 -0.9514598647622968 -0.8623886237252374 2.220925852697291
Ni 0.5284712899083818 6.312507131013221 10.493262875367913 0.2939624519599324 -0.712565814531418 -0.7110954006334785
Ni 6.1977319055804845 5.030932639784876 2.743475888931266 1.0740382364178664 -0.713217589182804 -0.9495238240818487
Ni 1.1364654810440304 8.729570094881021 5.69157083521163 -0.08286228401287019 -1.5223609804306557 0.17235467174774835
Ni 0.7281485456987187 1.956743127841623 3.8131875033537326 0.9746910673760955 -0.10359026058884095 0.7520024232604855
Ni 2.4061018600526594 4.295180177245976 6.729905592100109 0.34865084464174795 1.4396365075472302 -0.958124421266666
Ni 5.875356351438403 1.5793759577848694 13.052003223709482 0.5172172529916577 1.0827689314226447 2.0459406853052315
P 8.174387395191548 8.858451460707437 6.408888544882484 0.753480807578225 -0.36282790747307836 0.5559686627282424
P 4.466621890144085 3.0569755543388295 9.527420281130537 1.2853911438056829 2.143638491669037 1.11571453311073
P 5.029015842343518 7.582115595496005 4.373551139040039 0.3379383433202502 -0.5735277546579284 -1.1268008728318788
P 1.667204360935222 6.3502196554298305 5.802671578558968 -0.5910395382894467 -0.15327142986405215 -0.06176895367768072
P 0.11460773827766625 8.128514524386247 11.450893946585882 -0.6269023136243268 1.0032511384019756 -0.21051138532312777
P 3.7173215777284065 2.163189656149375 13.215766581031822 0.2718478794490802 0.7554919244709828 0.16510801748766402
P 4.084090532806004 4.56551375037101 2.806257518525085 0.10761532258783402 -1.4004690933191493 -0.671766521126869
P 3.1240541599443907 8.196895807864577 0.7326027735393875 -1.2044469027511322 -0.13170990164319252 0.580999123334309
Ni 7.880680059092293 0.09415104325424747 9.96999671404543 1.751632934190738 -0.08294893018940554 -0.21228236118062152
Ni 3.0913290308120898 5.922392327487246 4.11891111234507 -0.867086800531855 0.5161191348314723 -1.5559994944207074
Ni 5.115141459417325 7.963241921699887 0.03690486413549402 -0.32877878830816926 0.832248095586115 0.674062259139581
Ni 6.580858772803259 7.071214638638668 7.557397282860248 0.2724037519525502 -1.684190327167048 0.7679592037000581
Ni 6.791511089671659 1.9735290627164228 10.815410460882262 -0.22288713327966128 0.8176863957218563 1.1590077965817263
Ni 2.166883678402865 0.9165464720792814 6.899334667684793 0.49328053967040214 1.729954677886356 0.5390124944898782
Ni 1.9906406670594143 6.532147925203715 8.079874393585511 0.24234704177648586 -0.3116398146350375 -1.1062438746161336
Ni 8.795736825975645 0.8763756084199211 12.212131440737082 0.9252479822536194 1.2824400315971591 -0.3701064434123626
Ni 7.214927922530731 7.354379588810458 4.956916344022634 -0.4639905324570332 1.1557144705424354 -1.5222303683900622
Ni 6.017897225244977 8.760620352462622 6.314851951184202 -1.543575923945374 1.8034537755167714 -0.17026256510541002
Ni 3.7578627740973105 8.445921292927919 7.350340356920685 -0.39786535869318573 2.2757132328508165 0.31446365723707775
Ni 3.9474396239527274 6.5789512802038494 6.013486730161465 0.8535923655898461 -0.5679636303065896 1.8161362560804462
Ni 5.465329186142986 2.992455780269061 4.156226320010486 1.1305500554616659 -0.1845257598926435 0.10690801210816427
Ni 1.0807946116671305 4.250433192316423 4.638786589261579 0.7829430787034 0.9646910187405902 0.9534401284171192
Ni 0.7038173144880123 2.1453429692924644 9.84973070137898 2.066198407113003 -2.7000097891523374 -3.275055780227005
Ni 4.837875779040781 4.216898541934617 11.562784671014633 -0.22203661235390793 -1.0224246260066328 0.08356213829337222
Ni 2.6348148751427813 4.9418853023392915 9.843711399122602 0.22105985026293543 -0.13811066296321378 0.6308828955386296
Ni 6.057303230896183 5.319261777237993 4.995348132721851 -0.3830902572665402 -0.41980072531369633 1.4008295619823616
Ni 1.2838076532959461 7.115915099358479 1.4135534389393618 0.034707321574198285 -0.978942643563598 1.3326181951134468
Ni 6.794516553620972 8.93105714243031 12.090980537601345 -2.173069909556277 -0.501182053905666 -3.2661996153879556
Ni 4.2873827196932695 0.2427791446634233 12.138427787664304 -0.8012285072761491 0.3037961502209026 -1.368596670090585
Ni 7.100469061724239 1.5216952425471286 5.7133878981278965 0.15850028236315927 1.0117730598300574 2.2735954151768647
Ni 2.7802495547952883 8.503974201843592 3.2812594646615434 1.8417745254738411 -0.05763359135306848 -0.45907715431581586
Ni 9.0872110000073 3.666731152055298 2.5095363441187626 -2.0758672976613344 -0.9287133150944006 0.7406052371671374
P 1.7372326014384059 0.2662385121835704 8.960859620706639 -0.2179914957502568 0.4513638448319581 0.0474867327270537
P 5.802471524457079 0.14967582661255857 1.3767295269288182 2.304952075111276 1.1216039020119717 1.1792526628736917
P 0.6709135323903033 2.8400703836811467 6.861665876025341 0.35145591819071087 -0.048885412846793236 -1.3762454448850943
P 8.874288301703507 6.128736502533567 8.398480556254322 -1.6128992929315449 -0.5495910413366728 0.7497318820587541
P 7.2763677939156 3.180832305513143 12.760074973390749 0.3202735790506355 -0.738371205630296 0.1877049289515735
P 1.25497194809805 1.669744582787118 13.499795951020612 -0.7032607350804081 -0.21051781308103099 -0.14630374029696738
P 1.902840178434907 5.081541675141881 12.215726831665918 0.19251751984886842 0.39884520610795177 -1.2090206381647437
P 6.007745642679341 6.872425995254397 12.086555154770716 0.49370477169201427 -1.7542675436001078 -1.6194401793738564
Ni -0.04852195930799271 3.758374540404469 0.1781393381325213 0.2553730217225086 -0.34176877280993395 -1.4943439263924394
Ni 3.0372027651986135 7.983172893153225 9.662339558897228 -0.45363310048210903 1.0192827379435412 -1.7919797134389008
Ni 1.51239970544074 5.017998909476687 2.485989511084301 1.2315879819422983 0.7714528186756133 -0.32525714830815594
Ni 7.327469985895868 4.612391544106732 7.7890766815634995 -0.12276940462045308 -0.4847655602208555 -0.9703533592326902
Ni 0.09519225506826638 8.048920906360173 8.43838344046557 0.21535405812740976 1.707050776704989 -0.005636629460487067
Ni 0.998763125050592 8.46229781475699 13.328991619795964 0.2748918084817266 2.01154703831671 -0.6068636498058968
Ni 6.6186736504813 4.442373472026719 10.06220769775345 -0.7401838333590027 0.4075357919034142 0.024531152372144847
Ni 1.9862860010275927 0.8427516315554107 11.4259997724373 -0.5276569602677429 -1.696496912448543 0.3619097665341831
Ni 8.442534330458724 6.03919600846472 6.237839496314597 1.8070705463337524 -0.24426071385943096 0.4816925777224865
Ni 6.621855906427631 2.5045656975499613 1.8835717117282909 -0.6008097303023331 -0.28666797518104825 0.0678167025336574
Ni 9.150809594724183 0.9977861166460165 7.783915285734757 -0.5939837085194352 0.5100209923535346 -0.31533140455401176
Ni 4.80531813706355 4.270308334718072 0.5076014599024569 1.6640328783825664 -3.150817761480825 1.9255978878484
Ni 7.202236118113201 7.058569358430878 9.859441234436266 -0.24532129391346136 -0.6606184749298494 0.9817186636468384
Ni 9.063800017665285 3.3524135910404764 11.13558355893517 -1.8236017112195562 3.0029474480276863 4.046789106257514
Ni 8.688945154934583 -0.005145577597430335 4.2578752049067035 -0.4429370542208436 -0.13156232032173473 -0.17811599971155775
Ni 6.285653357150321 0.4039725046396333 3.966137703847911 -1.435688835753392 -1.0009026927744566 -1.990930647617939
Ni 3.9622994565442213 5.898171823895725 13.059247973650457 -1.3748801891064515 2.43252764287112 -1.477209837815314
Ni 1.3184961040793461 0.3955823286548179 1.9969465584478023 0.44869144020611756 -0.6812014412875236 -0.6738951374340975
Ni 3.8214985881819867 0.9732213339024071 1.6860615536277215 0.2223608284625461 -0.10142282062387693 -0.10062089354787186
Ni 2.5579289661236735 3.014052318431151 11.413620610709232 0.33914136248941595 1.206015789900149 0.13873724080361913
Ni 3.315333795876353 3.5676811095152514 4.7402316981191275 0.3900980560429411 -0.7424350912870246 -0.7261286408175172
Ni 7.643983489610497 5.176786037325058 12.234956218036352 -2.4096785061870887 -0.2672972839639203 -1.6024572716626144
Ni 2.663818067495748 2.8693992455023047 8.422381903767015 -0.42711140004249665 -0.6287925886685043 0.5769223821617742
Ni 6.322286519900923 6.065007640029406 0.503465457656421 1.8099378405792181 -0.36884583153238415 0.3663778296078658
P 8.956580323894597 8.484992324268985 2.2887789688944684 0.478052409866738 -0.32564924154025204 -0.9079452293091138
P 2.915718748721126 1.5245704387091648 3.9905973418775043 -0.006470695326008211 -0.5607280317900989 -0.5945802044528533
P 4.469776231564571 6.731327371949816 8.209809067520478 0.05093663894886711 0.3745079149141679 1.45815102141165
P 5.804127786323883 -0.22407734283146086 9.750505727810307 -0.23665899025277307 0.5624005343965154 0.27214175654041517
P 5.84577625888464 3.491455844274475 6.399641392954228 1.7399698960305128 0.11183167466202676 -1.3447669146608388
P 8.697086891639376 5.527941467613346 1.4247211102457558 -0.592514065952444 0.7322604647468679 0.30811946018660485
P 7.840176082091181 2.031963470151979 3.719464482829108 -0.559176885252895 0.14146620969900797 -1.3331385863932912
P 8.148324532894257 3.2384013626475032 9.216180761832224 0.3025031424410919 -1.4398211127542107 -0.02016130543922334
