# total energy = -381171.31435115484 ev
CRYSTAL
PRIMVEC
9.23544250542952 0.00000000000000 0.00000000000000

0.00000000000000 9.23544250542952 0.00000000000000

0.00000000000000 0.00000000000000 13.51700363952803

PRIMCOORD
 96 1
Ni 8.818425304691537 7.689235459702168 13.262126793412849 0.5045818236158343 0.30400852334202483 0.09730956978645176
Ni 2.245921078081085 1.3529276743686183 10.748099896762355 -0.2789682925439454 0.33222792319903427 0.5398848697925025
Ni 4.50280462637901 2.6721367482640406 1.3738145510682014 1.0035869244748394 1.0307164337017798 0.317311411098518
Ni 3.0368351361265487 6.5210535765868505 12.226616659160225 -0.1194105154505492 0.22889991513264452 -0.054040474685171445
Ni 4.974144668490761 2.8145380357732717 4.599606840216273 0.1319292167428502 0.1245259823002436 -0.3136205925104921
Ni 1.9631503004069413 1.6426250338983894 6.816557258800133 -0.3601308202568894 0.04722807974902834 -0.9470100565210593
Ni 8.586458696067805 7.972292536093011 5.19178618229281 0.2638049545399457 -1.8735703298281992 -2.929614186551174
Ni 1.478520456574859 3.6619452954332337 10.99179736441678 2.841123757718249 0.5423400162012144 0.437723371230388
Ni 7.712277888675223 4.386484228416836 12.803914009233882 0.20936981551951683 2.1361468112776825 1.1234445547651362
Ni 3.264276377937939 0.6959866390304574 1.801221593330325 -0.4876169136267215 0.5476020359311021 -1.603072022428478
Ni 8.89569825187292 4.733644511020895 10.399455478552698 -0.09537378621631962 1.5126895187791625 0.2248149464299935
Ni 7.428398857904178 2.909025847726507 9.562753020264546 1.41297519620596 -1.505060541478995 0.6288812917275686
Ni 9.106469520018432 7.166260058717331 9.136872596643402 -0.3155100962237211 -0.229132857079057 0.3889649708797624
Ni 4.951942664782856 7.894142221876582 1.8707266098466828 -0.5882920574512965 0.7364243663165704 -0.5128381500873554
Ni 1.19959162296997 9.08214336454147 2.32291049717851 -1.433825300182092 -0.6410068713465089 -0.8668255764506684
Ni 6.754414737024184 4.166985467133233 1.6296233779832527 -0.6036790814303281 1.2810696336121936 0.8820953581255453
Ni 7.004381223030075 2.4160933411101455 13.73827665396515 -0.5057732728207741 -0.8013012694956136 -1.7692303355575272
Ni 6.383722546995939 8.649001112502885 3.87285140103887 1.24028062462029 -0.8985231646642654 0.41921785622703284
Ni 2.7823155769808916 5.540628238971414 6.437918894067113 -0.5074923123944098 1.8032809973843331 -0.7581694713031458
Ni 7.125060749840058 8.29836830352854 6.9572693838808375 -0.9754094335993588 -0.3588532390960465 0.1286932263040558
Ni 5.380670375318786 3.874831479905332 8.913409983449883 -0.891354414829968 -0.5303244797975769 -0.28370117924324045
Ni 0.7247421127180339 4.018433374936205 0.6786794198338624 -1.2773561893163485 -1.0719448442239474 0.07729250323457657
Ni 1.4364622515474879 9.32982869625624 4.666367083229307 -1.0638186155723874 0.4493954082516776 1.3640170211397025
Ni 1.5718630736612973 6.098042604942432 0.4691844898382801 0.31589704724949463 0.9120697930004484 0.2281355261627942
P 8.717417270351538 7.747427982731914 2.8827851850246473 -0.7205889419462106 0.31490948652524475 0.12876855962668146
Ni 1.2505805008698638 6.2901028666352765 2.9475450311977758 0.07069890917745889 0.7060059019257131 0.692937241667213
P 4.287849702792698 7.045432764827762 9.404914690659739 1.7778085641448416 -1.0431289484335196 -0.48602102989451135
Ni 5.0377768671377945 8.696221929873317 8.155538491488507 -0.8865857897967311 0.8501542864425746 -0.03773736664977372
P 4.834680251688317 4.186204422921981 3.0254570709983706 0.8601365944662671 1.1744295304534356 -0.4127625875199924
P 6.606906249826737 7.159786013542938 -0.15859194171069843 0.8002381183384217 -0.30384525829128317 0.043303290773325426
P 5.132578684135152 8.221123062674579 5.597053098311605 1.0533555112575343 -0.26166425404785904 0.23231948233715474
Ni 6.062929452655637 6.242688104972887 2.7279206678965235 0.6387453290058419 -1.632250443764647 0.8291661142266817
Ni 4.719597403017682 0.8403643112291606 3.448633357063077 -0.30042903352088257 0.39783733366872776 1.0563559886467548
Ni 7.410740691893565 4.927616509305892 8.560561591825985 0.9878535728999825 0.9074310086768566 -0.9352179489821377
Ni 0.5675715056041102 3.952150604299085 3.290227971290357 -1.4501443490570898 0.01002138879174403 0.09128470374861053
Ni 5.151982348773384 5.408238171104184 13.263114062213337 0.4684004885992707 0.4463370810413281 0.575666398267486
Ni 4.537252826807665 5.451764811484948 10.8294447505306 -0.3604581216893211 -0.6916810006626088 -0.34584705664436566
Ni 4.326361497909988 1.101622049203972 6.548798692867753 0.9408124123507796 0.14647163333339935 -1.8687834499625169
Ni 3.492659634881694 5.755693987867417 2.1819554799607346 0.5641347434788025 -0.057813054353726245 -0.5028823244262243
Ni 4.038982234441233 3.5481369378240344 6.430078926950789 -0.3958028197372022 -0.18292190574063336 0.8429865650495417
Ni 2.272500681521747 2.822711402362912 2.19867624856022 -0.325555139164549 -0.6067050127408454 0.8661894855285663
Ni 8.209421757059806 5.720331478633819 3.8519811481357396 0.5718431678666538 1.2805338157133817 0.21996661719875663
Ni 8.541620622855708 9.158455825705538 10.455321593623198 -0.6043773930489333 0.48755443581990227 0.3070974466799937
Ni 9.463188485583258 2.346393456757583 5.1810813809209995 1.0454655669864963 1.0944851914183087 -1.491568163419515
Ni 6.43364011356883 6.21293150932111 5.386390808387287 -0.2177685811061733 1.6684464340692298 -0.9949361907783769
Ni 6.643524779236822 4.783515900381413 10.878119226546465 -0.5610872149017304 -0.6106722249187096 -0.2829223920956869
Ni 0.7578788803153566 7.706016258677735 7.073515898303218 -1.1362710171058432 -0.0032671007870459863 -2.0001503664439944
Ni 3.152416698690789 8.292208263398267 3.4047031278461914 0.08689403088008261 -1.9467380122611246 1.588698013094993
Ni 1.1661131440011028 7.933411323276754 11.34930873094589 -0.2519439414363016 -1.6463310902274293 -1.0551231446809184
Ni 6.44342968259145 6.9473431303096005 8.776279362960663 1.2163595950283181 0.325065344012324 2.529471344677721
Ni 7.307054379236056 8.674463227404173 1.4797062873885425 0.1407398730559447 -0.33944321000055094 0.07594344540584985
Ni 3.5096528490341674 1.713941120683932 8.557911943380144 -0.6182053000709611 0.6675177731528439 1.166976673719816
Ni 1.9839762231861953 2.2253814540185304 13.245515003034559 0.8423404468251106 -0.16605341212006886 -0.6126735716194546
Ni 5.272347870539244 0.6121629925021463 0.6557053331351167 0.8388812846319167 0.39425501563410814 0.14937132347869758
Ni 8.91892538969546 2.7772176127351496 11.832204158681321 -0.9686492320573898 -2.785975908901512 0.6190511930110242
Ni 8.605419059467277 5.987780657243315 1.4371281269498755 -1.3754260343075926 -0.13468235400795514 -0.017268300162144454
P 1.705315217413057 7.186984391629369 4.947588153656285 0.3505681162691188 -1.0519069517364656 0.7494182074730771
Ni 9.281712040965813 1.367141020336366 0.7654223897282589 -0.45938877201896366 -0.5188524746022355 0.19196627533108876
P 8.245984873815045 0.37915093179033676 8.4394359931445 -0.2246110579493035 0.38715182893042355 -1.118116200573687
Ni 0.7028347196250547 5.04755720071794 8.3635104970201 0.4620575771003784 -0.005462308666151883 -1.5116451366750483
P 0.40045247985701043 0.4245994677499759 12.305055119181848 -0.4941025213510652 1.574297521398947 0.18208578299258318
P 6.595694422663095 2.3263525465886334 11.48976411072581 0.135361896573483 0.2530148059029772 0.7882521496211392
P 8.36520520071411 2.8158494686046036 2.089972320006494 1.4656486153402757 0.7019211903333783 0.68323389833652
Ni 8.775406613646854 0.5649320161449924 6.319685835968538 0.7568646364487933 1.4078481593920398 2.0053355101893593
Ni 8.494639926989604 0.8994240423072316 3.613338238147429 0.12255394617553733 -0.7270033301129867 -0.3609692569977848
Ni 8.646369011397747 3.262466231213001 7.121284377412369 -0.9156865638174294 -0.10437521838398155 0.2682629903112993
Ni 3.168144657224301 4.417893968271489 8.336990000411271 -0.8938000481569833 -0.07758020967832446 0.561050191016208
Ni 5.035809717890796 6.049953655979428 7.325904840870084 -1.5326502781718057 -0.1853503126764679 -0.3999376678411822
Ni 4.666447431578832 7.948612861589238 12.906805150294366 0.11527155358151116 0.3635460165860255 -0.3485911950484061
Ni 8.37038628394212 5.856415723490717 6.399260255414484 -0.3405009618411039 0.43504633861885716 1.6210808003010728
Ni 3.1748311175756 8.201894871443358 6.350558996615442 -0.44609514023385105 0.3751707453091474 -1.5329814362589793
Ni 6.465724040724098 1.793162746227364 7.703881024377708 0.32893254027721414 -0.4253252546763514 -0.03486852974241092
Ni 4.840433932349725 0.9920435242479425 11.99042021788332 -1.341757952631186 0.5312770735188334 0.04243091547070112
Ni 2.528045374782037 7.364388006115705 8.24710236235442 0.8880862856016576 -1.1903608569717112 2.096971426629801
Ni 6.8554504776916065 1.652359190266165 5.446703789009103 0.038249787509817994 -0.513908757443715 -0.6186020212887475
Ni 2.3094424514184277 5.873796826227105 10.012247546747894 -1.1586550412279981 -0.011141875549432424 0.8073253642025063
Ni 2.6351118593850926 4.616252801731717 4.163859269855726 0.6356782600447439 -1.435077170311322 0.21189129638978993
Ni 1.3101213985008393 9.3319528480253 8.778185558287332 -0.2741065935762699 0.7592909865020988 0.19776642695263358
Ni 2.2310797220250933 8.97568641914171 13.271575574608171 0.3932242603767486 0.2925324043816252 -0.5906019365313958
Ni 5.880658759985414 8.647578854361864 10.682595673925807 0.18506954821125546 -2.158516437222134 -0.5458935378804276
Ni 3.2577746264361225 8.4676816704075 10.45100956553201 0.5445642775460428 0.7441189067473508 0.8750819029221897
Ni 7.325543735069345 3.685818914228964 4.352934636540918 0.14171766358818172 -0.42462977127122353 -0.6209520095781628
Ni 6.641188212290857 1.7030987112192562 2.3431453516394174 -1.1984588034884975 -0.7600546041410008 1.5708208757042559
Ni 7.678854822361201 6.934866047526996 11.297809133077171 -0.3387623818834424 -0.12120565967775901 -0.0655711010325903
Ni 5.495337629078083 1.3771614754208408 9.78362047412282 -0.1961198924881461 0.978536923484747 -0.46360049610746606
Ni 0.828951151419581 4.6664751379062555 5.833019577070901 0.11714023135913375 -1.0699823211809378 -1.052411659287026
Ni 0.8708772896195716 2.610139222934936 8.926601889479988 0.09983670708367967 -0.4612980732265345 -0.13652866318807452
Ni 7.175634032828613 0.3114652974413907 12.544995608837779 0.717268619323726 -0.35917436988089113 -0.0699481470543634
P 3.476442197897051 3.380578305015164 10.170288132542884 0.5881365057100387 -0.8318855700403738 0.7801991974096758
Ni 6.337185152368597 4.263578959970579 6.53013201653896 0.2951744699901626 -1.6073110002104898 0.05637477924530291
P 2.5438656877402908 1.858752858678921 4.4053808672632355 0.794362119173619 1.2791240798500485 0.049565212522637216
Ni 4.119256700426721 3.295178168456512 12.5556071322406 0.2882646302442068 0.13843719306469707 -1.5445411160721207
P 2.842078125231247 7.698840319875305 1.2937626592463416 0.309667521400015 0.009208148861829303 0.5156257401348217
P 3.0057394013160175 4.206993403931338 0.6317550601668509 -0.319780698574617 0.13057244560463965 -0.3148606355651803
P 0.9831774994727391 5.634035504155172 11.96019630884235 -0.6910644501245324 0.4096548951289461 -0.5227888335421642
Ni 4.270016063375076 6.222730313786205 4.626288957068398 -0.09911191310251317 0.732462553455345 -0.19265327409578434
