# total energy = -340886.9468983898 ev
CRYSTAL
PRIMVEC
9.11960996310831 0.00000000000000 0.00000000000000

0.00000000000000 9.11960996310831 0.00000000000000

0.00000000000000 0.00000000000000 13.34747100531640

PRIMCOORD
 96 1
Ni 6.41132281098078 2.07465651563564 11.334565145617677 1.286016693204824 0.3111839580445415 0.14446874397075765
Ni 4.869078236052693 0.9081745196720444 5.858792099056649 -0.24161376315488708 -1.504162712255074 -0.615679448325314
Ni 2.718026748982731 1.7094982189659844 4.846159744622397 1.2415584628914489 -0.5805856899459744 -1.1196164392682977
Ni 3.6510996273762735 4.236241152043867 4.75743870855985 -0.33926940342684797 0.6476763129468847 -0.23755296282195218
Ni 4.016476794681529 3.1239679407525767 2.5143302321564005 -0.7778409815901443 -0.5461557904028788 -0.46724529194890496
Ni 5.170946440594595 5.261704797490188 2.313196325688557 0.5732246215952128 -0.8658218177765025 1.1047266666406588
Ni 5.409761662863976 3.217316266836106 0.18053544377491001 0.449374068095439 0.2604483793628869 0.48636581482843977
Ni 5.870566427290965 8.260597289607007 12.180981667611169 0.5763986484478202 0.22110792989205144 -0.16751945514263408
Ni 2.104970098666282 6.733527745413876 0.5105859785332955 -1.3693476893239964 0.7504751879826818 -1.3878403488115454
Ni 0.48704005794761124 0.352571411200675 0.30232327307175366 1.154493967871773 0.584430260503045 0.16943775521126947
Ni 8.488660491902523 -0.016676118510779762 6.426099314766745 -1.5166145648651816 -0.06431588846925052 0.716596790067682
Ni 9.305741053037721 2.7618008761027917 1.3038306154906392 -1.7390350429210693 -1.227864253233808 -0.4103830315442223
Ni 7.087934022109667 1.0500501135120877 4.660870248250053 -0.8556788158052296 -0.4874693323052637 0.17332089231575956
Ni 0.8620174385068855 7.530809633637063 2.6564666468372007 0.4224271071929499 0.4090352592670762 -0.20494623253052446
Ni 8.063896425471052 3.7719070986178242 3.651293875065369 1.8182396755766943 0.7345690582753864 -1.0555180661264918
Ni 7.571063591367886 4.182617846321793 12.480993119594395 0.4554930365089833 0.0045955897904824084 0.1843954049623663
Ni 8.493566841983897 7.580210560014016 8.645103750463731 -0.8030606753888814 -0.42530005786537073 0.8631465849371844
Ni 7.28837392627046 0.602214346205399 0.4518465717040641 -0.6858499958031286 0.50997214139347 -1.108894167754787
Ni 2.123564983082491 6.819990766085812 8.985504130403065 0.8339604502915314 -0.05288142138006376 0.4222062494313954
Ni 0.15516924906981658 5.108440634911075 1.2853971481681854 -0.04058563473184623 0.11596909386916802 -0.5180114667581788
Ni 6.6629328458229615 2.250592028219017 6.911186864252605 0.10023188563956932 -0.27347101687479997 -0.42631564361407864
Ni 3.6297962188445108 4.8660049275444734 0.3888227721829568 0.5331439515242431 0.3251445339896917 -0.4885260557045522
Ni 6.340454323095364 5.782069733629908 4.746574517385241 -0.6588364433287621 1.8491340511627057 -1.6377808866645729
Ni 5.5701300014902815 3.2388020675642024 9.066443403409037 1.3621545140096671 -0.9007744225922872 -0.13501351209512877
P 0.23926846687726974 5.853129733321473 12.438334320754914 -0.23444372776900915 1.5505718956472327 0.48126757436992595
P 4.182535769833443 6.652162586629463 12.395849706462931 0.5226044854454999 -0.7190987305539293 1.4021441670287271
P 2.2844804982977975 8.652056540987966 1.5191819936626858 0.6311060672930293 0.8646900181649044 -1.1575252984989293
P 6.484963660250465 8.070143358195477 5.837276203616158 1.3092972609993192 0.04518071030169638 -0.6684554544757649
P 5.011927804221158 1.2564724817126236 12.793724603349926 0.20348713148649472 0.0017483501496744084 -1.7189809524836717
P 4.313903749242708 6.160469703753382 8.152568215640589 -0.49303448509786707 0.4248912524627263 -0.25543010021268914
P 4.949084572974421 1.429006379834379 3.6081553847495305 -0.08599697298710995 -0.06286912872039495 0.6387525280946935
P 0.37081519063894186 5.645193509891369 3.437907772808816 0.6910605934697905 -1.3748819888786645 1.8765386684279035
Ni 0.969223011706859 8.978894237207935 4.651713248033124 -0.32271201328879906 0.30624281198918224 -0.9644475352712165
Ni 2.157261941355121 6.3856602289566435 4.91109501436108 -0.22985199463326866 0.34844155684441924 -0.09642048231327911
Ni 6.281222457336033 5.838055018294502 8.920060898397592 0.5735871471409542 0.5735043576191606 0.017713358119363042
Ni 8.913296883796562 2.5821992803731098 9.984002001582445 0.07882822315281263 0.17963475034892937 1.2142173518743347
Ni 2.551420597241817 5.229694967033643 7.09241904621751 0.030177037804012544 0.010117548049976123 -0.7226648506386328
Ni 0.8633944995892041 0.19377620526774672 9.09201661325697 0.123471058673168 0.14471685542582174 0.6365879163432069
Ni 1.8568802332133383 1.517138289102768 11.706732774392433 -0.6573308053175131 0.001277581160842961 -0.9977008980077076
Ni 4.207806208635461 7.33882360777633 1.4886705150990218 0.12820754491688888 0.544750682525236 -0.07213846983746286
Ni 5.654759980589065 8.232280901126218 7.816812452980888 1.5206915631480327 -0.9625821999277034 1.189982904807002
Ni 5.916465423498311 3.495354930927024 4.268894826953469 -2.9199938898525906 -2.0026816175062803 -1.3909184735162368
Ni 1.2708085083444434 7.760760595164632 7.019688334007529 -4.202428265022794 -2.655720223206342 2.032430566633938
Ni 5.223311240161968 4.761968418755795 6.465020897503351 -0.4882368065989075 -1.072625929451372 2.1378663650719503
Ni 1.0859904957996207 8.093033578835342 11.743371718791922 0.10390650627767911 -0.7328456478263765 -0.2896424844283399
Ni 4.879492830463341 0.5996334966272787 10.164486375542381 0.34152503223024405 -1.0727123185175913 0.30484747430355236
Ni 8.287737248421445 7.15317571073819 4.68518951174819 0.860584480636963 1.1161451928902455 0.453384989027045
Ni 7.595130241674102 6.157305199146994 6.872813370065982 -0.994415028167584 0.6960313072115045 0.08941602597098794
Ni 2.4820842038056043 5.750762113129247 2.6193078846781592 0.6038932543236631 -1.633184268432826 -0.281422924732025
Ni 2.320968057174331 5.957047687182534 11.522751030067798 0.9663311254471746 -1.188458754852992 -0.08209352416764572
Ni 1.5589061020631592 3.4325390585097373 3.612413330572938 -0.9276697043212345 1.8858445192098618 0.1217633319534419
Ni 1.7384985781830244 1.4524802555025116 2.520082882028762 -0.00375869571148385 -1.4576087757549347 0.35565735786656816
Ni 1.6015676367855847 3.262020594157468 8.27516495432817 -1.135625155991728 0.3929838622311684 -0.11235952214103875
Ni 3.7603069549310075 2.8056388404915693 7.076802626367428 0.4761366809012639 0.33650649596973015 -0.10563068805763744
Ni 4.390116328480697 6.947400834834638 6.132842757774734 -0.02527651517860163 0.7819166943214146 -1.2687545636902666
Ni 8.337147294408213 7.402104580294268 0.4699553809170442 0.5196027225046986 -0.3929990317398199 -1.1746534735387835
P 0.5014809600923229 5.697330319213324 7.834751637451278 -0.5091691858762005 0.3040571171917731 0.8235382265169431
P 8.974106442054179 1.7517128928073928 7.855440384281397 -0.7525960909804265 0.03499708490047521 -0.13189270707795994
P 2.2525983423786866 3.5006716634501482 10.50199036740394 -3.0464793098720495 -0.2940609252110097 0.28034743227965914
P 4.184396170236045 6.568015946850963 3.7948857794729105 -0.4402867610821901 -1.291363302228718 0.2245910033446455
P 7.309230473921207 4.294323946966298 10.114446164517283 0.15897490800673267 -0.30562420456857686 0.37579809448050117
P 6.682695040295705 8.092358727708907 9.966276215981766 0.2904546959169901 -0.3104681629244395 0.5484042201174232
P 2.6335882816900975 8.338296365245116 5.8639574460568165 3.4919180474688245 1.8140531482991724 -4.174443092663779
P 7.041278098287536 4.128401765961635 1.492193420371205 -0.01192091980730205 0.525295916234734 0.08025184297321664
Ni 3.0779047915685296 1.5015255170966129 0.5246210580411649 -1.6350354627089516 1.4834406492163743 -1.0747226640794008
Ni 1.601531158346318 0.9695330784406262 6.784106013418161 0.3162634294499779 1.7421298797963094 0.8823678950606416
Ni 7.216183094961628 0.8765057626226439 8.919153497220833 -0.27664092996234935 0.012200398720933826 0.24632633813920804
Ni 2.9887606056104894 1.5663294644539358 9.034128977984617 -0.2898540862185137 0.32191985640480686 1.3657350322720736
Ni 6.843300488777245 2.010244711500434 2.3525985118625017 -0.3679302616966502 0.6172300806418853 -0.17846926928591844
Ni 4.232219404114712 7.0623991146229645 10.251164619005992 0.6738606846517363 0.7844170921457652 -0.8460163530148009
Ni 7.359069141569359 6.441180413520588 11.431227537908587 1.593820679033539 0.764110262267613 -0.3580333142979124
Ni 8.171653735064934 3.8351059946474115 7.960845746503558 -0.012373691074004496 0.9988944040951764 0.14661124423505717
Ni 3.5494524563595657 8.78985384531799 12.276509580440885 -1.150182999201245 -0.3370536267224518 0.243335116721368
Ni 9.56601471720575 5.8065558859876925 10.24741372348839 -2.081714500470731 -0.9809121085851428 -0.9685546154610545
Ni 9.130279760164811 2.3990501564247393 5.538773135096611 -0.4095309679565721 -0.2618930822292135 0.05090398593871878
Ni 4.068276178440268 2.9114354339748654 11.15169143388577 1.4972374458901505 -0.6457245885371523 1.2999222475423227
Ni 1.1041385193348126 3.8433774807511396 12.479685367546683 0.0031894534715751523 -0.3971770743769095 -0.3313154386870939
Ni 3.400365075076493 8.780506245255895 7.761326922934248 -0.08496647484006657 -0.643430136076021 0.8574289657271169
Ni 5.660523573993206 8.151499397370074 3.731352193763051 0.9189698625543915 0.41176654215531017 -0.017186024860983307
Ni 3.3383243694936233 8.721055508860962 3.459624299665275 -0.5620128120397934 0.2622149843450065 0.7234714057003282
Ni 3.6510084312781066 4.400840989625112 9.240320620056792 -0.21231655685266657 1.201539756406666 -0.07054438587746562
Ni 5.477438287313553 5.1976212993083815 11.116027375775683 -1.227448762962944 -1.8804986815169162 0.9193539853666877
Ni 8.087999554216536 8.702232634199335 2.6071751557780494 -0.9952928027868471 1.8435393306837475 0.4661826550123455
Ni 4.883824645126263 0.618755494490892 1.4740143901626366 1.3542943945352997 -0.8497858473595623 1.6820180021060773
Ni 6.023292532890892 6.089427943281451 0.29638367119815046 0.5400967286929924 -0.19864882955758692 -0.9974365886027274
Ni 8.324206568078345 0.23381311628493218 11.130762841317473 -0.5325101745949862 0.135665800967147 0.2857724599499723
Ni 0.11152279648718945 4.921470394449516 5.787917227444363 1.0744069326111947 -0.6419743774661009 -1.0833692840108051
Ni 7.633040459682038 6.423415413597696 2.549113335958197 -1.6524685705837348 -1.8874537726785106 -0.1515948134925776
P 8.749855236662034 1.4960172727673386 3.373586252810796 1.4150973847552855 1.1072951986987836 -0.13339448843446702
P 2.1188227859778177 3.632404427252081 1.2078193633406396 0.4231159057298584 -0.671622796460153 1.0315116759095655
P 4.9964335871426195 1.2017821816419978 8.057520906248211 0.6227690081822437 1.378066300143917 0.14154797077953685
P 8.513429352164623 2.1244039871856253 12.34093779987376 0.8342527847209696 -0.8294085692547909 0.3280136280073706
P 6.35922248009809 7.971286787782674 1.4530994770090642 0.18618077899756325 -0.15725972508783884 -0.33003631486435414
P 1.9769307768401048 3.375368224568975 5.9296943294983855 -0.32680392396998553 0.6224633040163667 -0.18111493443888163
P 7.122314951118548 4.054514687226899 5.759820621560156 2.6791198330772055 0.26753202568254575 2.0722232731508443
P 2.6433280249743114 8.609622996510957 10.219904420476379 -0.2391953835213816 1.2796634972932865 0.07531481068291546
