# total energy = -381169.95300589286 ev
CRYSTAL
PRIMVEC
9.26165188259295 0.00000000000000 0.00000000000000

0.00000000000000 9.26165188259295 0.00000000000000

0.00000000000000 0.00000000000000 13.55536371229286

PRIMCOORD
 96 1
Ni 0.12892219712234884 8.601490792648343 5.592062353250899 1.660344630897702 0.0413317688692514 -0.06789152163565082
Ni 7.595304909360126 8.437142776273626 7.434317020364431 -0.18559662435931906 0.3036303140669997 -0.4228659945025814
Ni 0.6066354335384132 7.817325233312495 8.264515769093759 1.1073728460142542 -0.1910915860356193 -1.110031880903656
Ni 3.4877251598953136 4.262490142357659 3.0530202572994396 -0.39822171359134 0.6498828336799001 0.7005906444474128
Ni 4.446982252032744 4.71201368830093 0.9791011079100131 1.1305397710490208 -0.8587068039982759 -0.5819838558450816
Ni 6.474802454298839 4.119240169448797 9.79215118847267 -2.998061580690295 1.3437757543921631 -0.6536731539602678
Ni 0.6293098101903483 5.97925775910981 12.76644184599781 0.24365701883716104 1.1097948251921854 1.8161547680232075
Ni 4.8321373159357615 3.2962590261948597 7.68883277684722 -0.4783000071011698 0.04028790098576932 2.0720674642992702
Ni 3.0967815634347198 8.993471694143256 5.066262619172533 0.23036595815520974 0.9947279314223127 1.2400579670865224
Ni 2.098236543122504 6.997483790117787 10.102839791059395 0.11131976802261473 -0.05968173213134883 0.7689259384887015
Ni 0.7993574472625591 2.878419592058741 8.015964516558297 1.5096005954411937 -2.2348018393484352 -0.4774700550007068
Ni 7.680067549307235 0.07482396108705058 11.84567988461608 0.25008143430626606 2.153581461814362 -0.6520639004916189
Ni 6.953935501980626 0.6854382003642397 0.3588177038486477 -0.47103972599433075 0.44622755204665737 -0.12120720233965576
Ni 1.6577523696211456 0.23319635953193138 3.199472909501758 -2.9724001713684487 -0.017200680149002633 0.01535308541730259
Ni 5.0668924115147975 5.0107482765323486 12.045147159558919 0.48420891638643704 -0.3879794670380415 -0.0848039811202733
Ni 1.8174695599498023 7.200656652062684 4.162568030266165 -0.4284632860847008 -0.3208865300442861 -0.10206148264914035
Ni 2.4913473661726546 4.389217327934174 6.895369444976088 -0.4245246131519269 -0.43288172686737064 0.38298252804408234
Ni 7.793893253519424 1.363944980302735 6.434270686248082 -0.3405007047307878 -1.2902584992003134 -0.882338584484603
Ni 7.480210358811317 6.500429445637742 9.657885018093166 -0.37385665448341415 -0.6087631808214549 0.5190733323637898
Ni 0.2535932959344134 2.5738594246613764 11.224342504546632 -2.715487830183278 -0.0074310023567484935 -0.4347123523182062
Ni 4.911472627756885 8.186689180398442 3.9086079729089036 0.6964298282015039 -0.5704028358757015 -2.2251468327571744
Ni 8.921036313130765 6.231591470359696 5.406759849017753 0.2555023482115213 -0.26902866483273025 -1.2289752269097995
Ni 1.623771368095147 0.540696175303336 6.972458806164871 -0.45736145717628973 0.6760360950365002 0.6432169916239503
Ni 5.287838383824478 1.6940395225180822 1.7654505648091856 -0.7040495495302906 0.6015070134796738 1.9406565819537354
P 5.530790041505043 0.055896848871588516 12.151557058940945 0.36381186865290244 1.2715256986775005 0.07893852347843179
Ni 7.366662504161893 8.67965913630586 4.745814087611132 -0.8398433914348697 -0.9476752009088841 0.10201366013034044
P 1.9786871379173834 7.893826479593428 12.702148383339505 0.4085128111047029 0.020308115429732765 0.3237242566033973
Ni 3.9059165368109325 6.575522920800673 5.6242021383409835 -0.30845447492852035 -0.26868233723690504 -0.6364706740390522
P 8.818602440991885 0.8467696966525539 3.7101983786349853 -0.8140292585852432 0.03541617471576481 0.06508850496921693
P 2.0629959569119767 7.643271005545231 6.540123960339372 -0.48530857720851905 0.20846144477263454 -0.8376420129081766
P 8.80395976903424 1.7035790241729687 12.983043177311076 -0.8973561409393577 -1.1423938421741293 0.9548362374336974
Ni 3.707995031602269 6.851705386187775 2.0459517385668433 1.1973833110361316 0.2420397949487122 0.39084316173908173
Ni 6.441469768419289 6.563510558037191 5.483131432169397 -0.05386486833925562 -0.9276717612037636 -0.2984287152614022
Ni 6.4296333770455565 1.3586843619144093 3.9426862217818694 -0.2732951534185681 1.6695448093397312 0.7787560372052459
Ni 4.934886084245772 2.83199093012093 10.673873433955688 -2.5151207323830036 0.44206647869043225 1.0857328991469752
Ni 5.35473529688588 5.610468034453574 7.573029709913363 0.8106708836359716 -0.46872367626664435 -0.23251565750836087
Ni 4.624620739159659 7.4213710830700625 12.435026592194129 0.14035780712617763 -0.3311994819345199 -0.3883389072599892
Ni 6.8808703286258694 3.056261835531682 0.9000492026429084 -1.1783525196569256 0.28101231955716766 -0.22550117386374066
Ni 7.479293455254198 5.797118109066124 3.34315910622416 -0.5659026340125027 1.602338486696563 1.3243664966276159
Ni 6.923575806422647 8.999658477740795 2.4128409722137762 -0.11726467275213998 -0.3612713616192359 -0.3123620375130427
Ni 4.60533797950386 9.07703958097048 0.6799543761604939 -0.46127570462903145 -0.5900362938359128 0.33156149325962897
Ni 2.6631973207419923 3.969164358948039 12.439148027375122 2.1123175700685684 0.6717562367142238 -2.0246470660337774
Ni 5.986324399656101 4.05180608056605 3.5215616796486753 -0.3383818586155721 -2.246708360978034 0.13006645250249857
Ni 8.857936677427132 3.9185772152208647 13.358106745094519 -0.0697835964520411 -0.5656627500875548 0.42267856108212365
Ni 7.873395275078205 4.867924339619724 11.34474212941381 0.868240197410008 1.2976383366041522 1.3819967455465747
Ni 2.9571806814501533 6.108346665969817 13.425896481417603 -0.11942722762109756 0.11119969750498268 0.05834193027400274
Ni 5.7036217311961455 0.5933940495423055 8.111868923972228 1.7328723657537832 1.428978513612752 0.19583887091261756
Ni 5.4056095518279115 8.509253999462894 6.0200182899672425 0.6739619861162909 0.8820292807743003 1.7742293314340154
Ni 1.5279317922458606 2.5562067157737904 5.13268440948161 1.4639480877094013 -1.1254808684688746 2.877104546688232
Ni 1.4730657652521253 7.203009111694083 1.6458381803698385 -0.15099523223536576 -0.7536895811549214 -0.6740458040793489
Ni 7.047570804631987 2.8364828313856094 7.964386376057265 -0.7681486940030449 -0.18134967615750702 -0.0572702944763788
Ni 8.080393199337149 6.173446818525349 7.490639905232257 -0.7370884822631306 -1.1980967921633883 0.44528164319362024
Ni 1.3495708962557607 0.8745972565285459 9.491100261053013 -1.0086972491182111 -0.35959063148270326 -0.37225537143456533
Ni 6.245428378585327 6.928762331594236 1.1271708445676165 -0.4836350461608381 -0.23292163469752789 0.04622020730980427
Ni 3.8634796469248265 8.923212801372413 7.639735832941668 -2.8128177116847044 -0.6717886326140559 -1.3753962095109213
Ni 0.2011853114059275 1.7669194628309963 1.523487125406851 -1.1174227740510885 -0.9056831727478144 -0.12824842545715331
P 8.384916320126145 1.2200744767037 8.522312002747578 0.566097009411496 -0.8756053795258276 0.6381305782399784
Ni 1.1091106229879772 5.3950975767033515 8.548567860263537 -1.022485304041239 0.029015927616375833 -0.2140407386326249
P 0.9658884350353908 5.4079897964155865 2.6664213018352605 -0.07245805796041069 -0.6224774450837538 0.9316651986338729
Ni 3.5501394333441287 2.1585484215464072 4.280282702191836 1.362786748277027 0.6645180670945717 -0.335772446017183
P 5.231018148239304 5.96913477337312 3.408441713325906 -0.6598633419313797 0.9543976072343822 -0.09624976106336973
P 3.600846978548501 0.5284958010023827 2.9457971848637254 3.083936169166927 -0.38181961808423276 -1.6807941570013054
P 2.123891319417684 2.7921843494289864 10.600009906190591 3.1140337598832564 -0.01698342193187398 -0.734070264262097
Ni 0.7710028993825252 0.13902295489401795 11.605384468755537 0.5185161743087392 -0.7515190558661637 1.0007664243069085
Ni 3.3559966821890517 4.721043799090749 9.638216047545127 0.4039200495276979 -0.18537988036282266 0.39454323629848825
Ni 5.029706878364924 1.585835641125812 6.164328722040653 -0.4467237749567855 0.2900096379597715 -1.372747716144481
Ni 8.391705111109673 8.632554373765323 9.78491228119747 -0.15052266347432142 0.7874175695349859 0.20393373210561005
Ni 1.807717040296797 0.02677173153749006 0.7833153396737932 1.0401266712720862 0.65781648670468 -0.22914828369802473
Ni 8.213131197121452 3.85067078208142 2.4301917512431586 0.7970306671447177 -0.035854290694447934 0.5926485346477793
Ni 3.5582155939684594 8.778944046733416 9.838822505695298 0.6982920782212233 -0.6333562967797866 0.8177794696562948
Ni 8.552626316210304 6.108985719964174 1.355477051794907 0.04079749363233619 -0.9729851404285824 -1.4611736102880577
Ni 6.3352386189226415 1.284720808306717 10.096793784573656 1.352480995475645 -0.7908145110316768 0.6690578639464542
Ni 8.502492993435643 3.8184680177571093 9.29725851359093 2.1305351215178594 1.0033028175755172 0.6569623662345009
Ni 3.304575989773586 0.35449621698246325 12.067663161960079 -0.0844622815101384 0.07287586222411965 0.0714239602689415
Ni 1.8015765649597197 2.049149787034253 13.155860048358832 -0.6678041940450112 -0.5094178115518969 -0.7381043251221547
Ni 4.406110581350207 4.173976533313241 5.692656861284282 0.6019456436789891 0.16875204199815452 -2.3918880149728867
Ni 8.65387469688139 2.738503813903043 4.864721660326268 -1.8464331072917748 0.8663010714057662 -1.1139515276730363
Ni 3.456661578778334 1.826638595521004 9.15248685124333 0.3163084237553004 0.10908985025083147 -0.4857245817000151
Ni 6.871349350275167 2.8742796335735625 12.063569511735361 0.09661408638132393 -0.7765538873476046 -0.023090563270876364
Ni 6.92681738465489 4.167400760327834 5.98378485465244 0.5217506220856369 0.09639939926735655 0.18034051816670232
Ni 8.821788449311576 8.374015355613716 0.6024908442271885 -0.233027821258089 0.472271798629219 -0.7482383282323629
Ni 1.6851298132054602 4.256766441364728 0.7832412464570562 -0.34522716367217965 0.6212330311536913 2.746044619924213
Ni 1.091439390796207 4.751570204386385 10.862455489194653 0.16277911224417127 -0.3686897655704941 -0.9729866830904791
Ni 5.609375159506704 7.616708587345023 8.679485943411738 -0.18320781241216835 -0.34114373763142536 0.5795274238847891
Ni 2.824377852101205 2.3020577207138495 1.6668621306189575 0.908591861754177 -0.6088400568059772 0.4377529389167429
Ni 3.158362288195244 6.415370432823687 7.887513737527438 0.2844475704909617 0.8605798526512727 0.796509247423609
Ni 1.0352489475532982 3.1765336495999885 3.083628165133487 1.1108759740715062 0.9293244663158382 -0.4498687483436704
Ni 1.6477405237095608 4.912380269661913 4.717293756158648 0.1262355087921826 -0.1997898851405656 -0.12325097224256193
P 6.887788782738686 5.044025392499346 13.47998267730518 -0.4209687774798686 0.5960138515755864 0.05130276403903422
Ni 8.86054846331711 7.836080078799043 2.9412561968429576 0.5847166813952124 0.45329268642355486 1.3710746993174323
P 0.09281101561516221 6.671649607864816 10.919428542039348 -1.9731686956488275 1.6159915587036233 -2.120878572264702
Ni 7.289235092671746 7.272082512997136 12.347364128976977 -0.1443173059945579 -2.371775303383412 0.30283070098383974
P 2.9053802612989106 2.2345310153101825 7.000586443568648 0.9501038649550347 0.1577546624463864 -0.6809669566792143
P 4.697852622252074 6.532039464228157 10.414247097848465 -0.5307559109080408 -0.12856261426346247 -1.0513420803719313
P 9.179343789980068 4.368989879764979 6.925530015014085 -0.8440342895877658 1.28190601347056 -1.6324918703514917
Ni 4.439443267229756 2.3704735447183602 13.114014978041414 0.46536761531021786 -0.11405542178622294 -0.043864305483118
