# total energy = -340868.58685836644 ev
CRYSTAL
PRIMVEC
9.30072278692039 0.00000000000000 0.00000000000000
0.00000000000000 9.30072278692039 0.00000000000000
0.00000000000000 0.00000000000000 13.61254793012318
PRIMCOORD
 96 1
Ni 8.42304152137041 5.56103239193875 1.664828457025253 1.952129101369709 -0.04644312195388775 -0.7646676774329799
Ni 7.572192795166739 6.291353050950257 8.161784216992924 -0.48774315479194064 0.3110512891214191 -1.853743782020575
Ni 1.2468083993707275 8.435318475509899 6.833539618569194 -0.16592845650643037 1.1387526458771162 -0.1306729757382459
Ni 3.1507314683348357 5.029561187095653 12.358723304420634 0.7364225665443576 -1.2724438396163957 0.7167695682001204
Ni 7.904275103917116 0.9194908509276691 3.51307181867764 -1.2302564076150684 0.02956023015562006 -0.475051161146569
Ni 2.599040492052911 6.374789835484627 2.220533625281878 0.8363045250436758 -0.04738491704186678 -0.025423068058794924
Ni 4.871021065685236 3.325529253257244 5.055591120088222 0.37642595787248717 0.21097058434773341 1.9196509262363457
Ni 4.232154414290098 0.0352013757781383 3.422003791058838 0.5952556332533233 -0.28377779811744674 0.4715896849605298
Ni 1.8009826686490493 7.383332317320915 8.927517378190878 -2.2261593331820886 -0.9741390515273675 1.1315260462216898
Ni 8.393734943723793 4.305899845632535 6.581857408348228 -0.507834526225177 0.29881823739033697 0.9290892103765805
Ni 5.106357255527297 1.005882475106065 11.50475418570651 0.5465885070649231 -0.40957364826904946 0.08865883608998924
Ni 8.595011886551601 1.140817361966462 12.02856438515211 0.7743010867576858 0.7155575501698903 -0.21796861293212139
Ni 8.374835874927243 2.854642956947964 1.6037347989524733 0.55570383910263 1.1833265758327491 1.131320100858471
Ni 2.8955475359672653 8.577954360875976 10.881544371128356 0.16440019278736204 1.8599846207239645 0.4231567862701228
Ni 1.0640212935348177 4.898569806716425 8.092605440561464 0.2785062653058623 -0.8353120792234194 2.244065524038548
Ni 4.064118254867242 5.740824665022452 6.445255831956167 -0.8493526164768856 -0.8774383189695082 -1.1284000989981986
Ni 1.0143833357753786 2.361881360535592 13.642223055367337 -0.2887287143648189 0.30178811865193833 0.0176940748456534
Ni 4.242161992058349 4.141481667391696 10.472936644980772 1.6508842568157507 -0.4544098307471335 -1.2935263713183078
Ni 4.755775809062188 4.961368287284484 3.3712023128729975 0.5854921261086562 1.5219586027859144 -0.6914143772647835
Ni 5.721321049241761 5.418926647774152 12.406857335297984 -1.317364611388486 1.633795933874896 -0.7611452661020182
Ni 7.145782555444612 8.686065963086154 12.460436009321743 -0.8752438824213508 -0.3985420730452362 0.15442045586683084
Ni 1.00431995367013 0.665784803418254 9.577788575923776 -0.023695029624094675 0.8224102835600869 -1.494587409861813
Ni 8.135770095229171 7.23092137225741 3.2431490308366984 -0.5694085902832323 1.0686247787117789 0.4195505569761032
Ni 4.186255347109503 1.399628576238882 1.470345692226912 0.4719550387197484 -0.8293072677902362 -0.27043068738657944
P 9.143252294662503 7.678760477386648 0.8662563036487296 -1.237075744529747 -0.8586342988891277 -0.3437768043788983
P 2.6652058342864966 2.916855491977547 5.310255142049431 -0.23201840615696814 -1.7498868980339088 -0.271201761224649
P 1.305681974903283 0.39422973872013 11.606044637791005 -0.46745483685654976 0.5029036645824628 2.1368042423560234
P 7.150023685056436 4.434500940243695 2.8156878094344484 -0.691773560376415 -0.43841396953950945 1.7491806159955037
P 1.009593463516411 5.925825342892603 11.979314267534805 -0.29812198265426076 1.140324104129294 -2.6213492019256406
P 2.9681861812925825 0.3005975018162847 8.153004334638622 -0.6898712011473797 0.5575357501050462 0.3489532063735152
P 8.65484343653595 3.2932185421355857 12.665931760026577 0.16445881393943934 0.03982793063021528 1.0381065555182638
P 0.3918329424460795 2.760687054889532 8.498913097952459 -0.40087174961967736 0.301783490666248 0.32388829298508737
Ni 5.003268043646911 8.276703948316818 0.11634832235103541 -1.6426587835821647 0.7536679838883665 -1.9565997355465532
Ni 3.404045955412984 3.5998912761063515 7.264200288625978 0.006151364313376502 -0.45988756603225317 0.8589723989548369
Ni 8.907162746270972 1.6156192625884132 5.9945307125318665 0.4939657386628848 -0.9107546737334508 0.5967733554494302
Ni 0.7096572430935489 7.170420170229089 4.961773798800001 0.20916464148724623 -1.3637869074067674 -0.6155539784910431
Ni 3.481939509138916 7.654262373444665 7.601056658406508 1.616514521086629 -0.08625305486197403 -1.431847864740747
Ni 6.696278620928277 1.2122841162148277 5.882689520465677 -1.8438653465645987 -0.39504742962841644 0.405199944681386
Ni 1.4888597110981767 4.535106859127684 5.984062748983384 -0.05916339773403359 0.7658069332437457 -2.3799575820838883
Ni 2.929588181535852 2.1176071760510684 9.61633914199406 0.6936021289447216 -0.31759526088752404 -0.9357008021558272
Ni 8.675993280258073 8.72178073876467 8.499321399684824 -0.4733786585401525 -1.38879371386375 -0.8433197800192445
Ni 7.526330930877477 8.309200673895136 5.636303141825791 2.244413651406586 0.9136150260003814 -1.0459059969580244
Ni 8.089805922988745 6.020181176032851 12.573529078681247 1.238245853578448 0.8172194833877667 -0.6476218055598654
Ni 6.333187702252854 9.161072479610429 1.7584281413991831 -0.613130456651215 2.342580426987011 2.9580714134506025
Ni 0.8587692217682071 5.186259765385145 3.5679172511512456 -0.9014264543539894 0.07234081565625605 -0.08108925127284745
Ni 7.293803559330966 0.5220170200834071 10.075980864398305 -0.7699680065999707 1.316404818578378 0.33277222573827847
Ni 1.8291917610013781 1.1031215323245274 2.297757526963838 0.237558619248907 1.564876228085047 -0.1380283876620526
Ni 5.151028627293941 6.573964814952189 8.91877841901704 1.3506146316908676 -1.2119110723386612 -0.787439938132489
Ni 4.949537767840975 3.077609185422206 13.075383061735108 -1.8247664209516188 -1.15219694430748 0.5774078064386249
Ni 8.778347735034654 3.475363898096022 10.639009421813592 0.2966762513466697 -0.21732917957590958 -2.2897337154996245
Ni 3.1604042200811007 0.8791229236158286 12.949508008986285 -0.2802985813195947 0.6915298197967251 -0.6558040842603415
Ni 0.330620235121038 2.4388169398097306 4.009099828948943 1.4586634422716942 1.3076116457667804 -1.4634922311189054
Ni 7.705946490227352 1.8264573484884916 8.098703924523027 0.5778366664459275 -0.02745372533557852 0.031578031916597235
Ni 6.991678878825511 7.32259859722177 0.9848107574557401 1.4683770700150323 -2.2054652951678473 -1.8043976274872795
Ni 5.677914575780398 3.1583487603350195 1.725553806473848 0.47896977947468483 0.19933711387386313 1.3840425723320098
Ni 1.6334952518733374 1.6155355560829165 7.068533541811004 1.0837896593776755 0.9460227529071258 0.6571235744027135
P 4.966093054483621 7.609256175656033 11.587096275163441 0.7097741107188937 1.2600930313605265 0.41125206441273693
P 5.790025488808741 2.3445448131749784 9.834711743461106 -0.9728730403307503 -1.9624094002497945 0.2411162546931783
P 5.7709404055555344 7.819006076984657 4.230861613816318 0.10992083079255907 -0.5223982829719649 -0.26401347100632594
P 3.1039581332079447 8.675472439779426 1.6153737235056231 -0.13866730679763214 -0.7483869379950854 -1.1859383024239833
P 6.414996860291457 1.3425593409359182 0.27036271203094014 -1.194763099804465 0.664120831656153 -1.035811331726184
P 3.17930328887765 5.402650382816494 8.672173473390579 0.046341820489333094 0.12514664660337801 -0.8617543325753481
P 2.844933002310367 2.8580470215048224 11.625891450244229 0.4293976249735121 0.36212445364815055 1.80658589338785
P 9.5398444169822 6.435002715105126 6.963294932883923 -1.0005067428876189 0.7504412494209528 0.2391449898994204
Ni 8.984414550121432 5.865714771223266 9.862644604345297 0.3197668146175461 -0.3919801035570023 1.3441285097458915
Ni 7.096572430935489 7.546392590028144 10.25106511158397 -0.6835727697331775 -0.1153844250102916 0.32602873636685786
Ni 2.0312592652699872 0.7811239973419146 4.7149921394397145 -0.2263712351735198 -0.05266442027325124 -0.004967628417920477
Ni 1.120225561614317 9.294891279730873 0.17035110933597633 0.8043197446069632 -1.7376037097911816 -0.28981449122982994
Ni 8.394479001550428 0.7278336457259774 0.8854297437688501 -0.3236255262420039 -1.0845303941984419 0.15804493999329555
Ni 7.496066378779067 3.117499985652716 4.77065324530577 -0.9996063425605367 1.1502909855340189 -1.3524079761458645
Ni 7.123823548836024 4.2484027770792565 0.10809951127049461 -0.0887259418824988 -0.19415711233482047 1.5147862534071912
Ni 4.97271516914068 7.159277904275218 2.158296908372929 -0.7486013679987366 -0.4913920643984376 1.0425311669485207
Ni 3.317428323669747 7.96752931990399 5.134884432600512 -0.08597897526498095 -1.5665124781368893 0.28029086801011077
Ni 1.7596502563794323 4.5885302110801325 10.349675095348008 -0.010767265818833069 -0.5711919074359001 0.4526622519284076
Ni 3.480535099991141 6.552712663278905 10.483636196527794 -0.28133293612138 -1.9506314337782598 0.9597221047710891
Ni 1.4817260566853063 5.419707908492119 0.2525974013477278 -1.87190862585506 -1.3834823289531657 3.0291675580664803
Ni 2.7432575003005892 7.16679288832424 13.154867039065474 0.309825387134118 2.0864766977460647 -0.026528385307831734
Ni 6.80620386409088 5.838100925132246 4.753665475051393 0.09547843011498396 -1.3781146368833492 -0.540851861691462
Ni 3.3772133700399314 3.2144414197405236 3.249410277447838 -1.52901988050807 -1.534434623765738 -0.9127328805057443
Ni 3.006784181049313 3.318851334263188 0.730492722383917 -0.21169203589479024 1.3392333864371193 0.7824995634080781
Ni 6.555354068563462 3.1954121408243137 11.674393789745766 1.8151849479107707 -0.2558515040208239 -2.243303191951227
Ni 6.603364399827135 3.9202546740872153 8.781794582916545 0.4986001521111026 1.876321153100459 -0.7316277162588755
Ni 5.267659691619099 2.06828544286795 7.686175943701357 -0.14681821803954068 -0.024929159141511906 0.5913197885340268
Ni 3.9429391370767735 0.6787444306136825 6.167137247154833 0.37077878688903887 0.8051445545011037 0.12084390546296607
Ni 0.9747808579526899 8.223615422386356 2.5621538252974423 0.3279940876233448 -0.01571252563925036 0.733180405457976
Ni 9.620667698400512 7.909883439785383 10.839753433223075 -0.4507460087423011 -0.015824368626766293 0.8944996453271692
Ni 4.675436165231191 8.909990166012188 9.290251149109515 1.2183534855298952 0.8429569973631869 0.6654585766309701
Ni 5.82940474928344 7.224131844589358 6.3541468811569 -1.9590057738848845 -0.036902015232671934 2.2229035452489523
P 5.61225147257979 1.6539847442743199 3.9933090617231652 0.6029473454706261 -0.4837260632127475 -0.7423142494384442
P 0.05364563922815575 -0.1934029508774358 4.535006411321088 0.41215143629855466 0.8040325523838474 0.19291784061108064
P 1.2923912419750014 3.642218865719094 2.1809478887602882 -0.17722562668680447 -1.1089833850344837 -1.0612567683824818
P 5.859864616561342 4.553978025755734 6.6658336348069085 1.4205658640690244 0.040462478890420636 0.17342707887632067
P 6.781733662317396 5.423958338826776 10.422638335900194 0.364712783200617 -0.4344375013902647 0.10641898828688769
P 2.6813425884016597 5.953960029462268 4.435117578167519 0.9654060425297439 0.07039011968778844 0.2675829335251392
P 4.699664548211018 5.048618368180361 0.9426794130947729 -0.5540094821193426 0.14873600388754385 -0.1640968026143303
P 6.500489104571907 8.773799681569344 8.027659423091276 0.6584860019678788 -0.3821358637730709 -0.765607672748746
