# total energy = -381171.3743790595 ev
CRYSTAL
PRIMVEC
9.21530648451265 0.00000000000000 0.00000000000000
0.00000000000000 9.21530648451265 0.00000000000000
0.00000000000000 0.00000000000000 13.48753253753520
PRIMCOORD
 96 1
Ni 8.925116230074485 7.7864545625434705 0.05955299493576045 -1.6583728518833116 -1.216581738341453 0.11990211037498706
Ni 7.531347240371111 2.5809953210298002 5.8019319166978915 0.17360242811192036 0.789947535045691 0.33535721285663533
Ni 2.927011639092429 5.2975570119067115 1.5281373697414913 0.33583132427957646 -2.0702982882139893 -1.6033682135126581
Ni 3.410225436203647 7.994858712777473 8.402139308141482 -0.43189545169470134 -0.677984991232755 -0.7507544097859973
Ni 4.791636700261928 7.628098740406787 5.249454956483698 2.3520372015245363 -0.20110783262104073 0.3533302523952883
Ni 2.0518340070905148 0.0509928969851805 9.92145578676628 2.745755627928884 -1.2103432136309091 -0.34618824203386833
Ni 7.415870238090222 6.070463175445351 10.264147222343638 0.35632147381312823 0.889148922538217 0.2121820881573314
Ni 0.4536077828084639 5.107518966975223 1.769564569825751 -0.062470093509763375 -1.266764015622799 -0.4115690814325234
Ni 5.650475594330396 8.226706602042885 3.0116173655261402 -0.7312739324638825 0.6150168750406504 -1.2643425506655
Ni 5.869855174276037 2.117695800666567 0.8839902293430054 -0.08353205638638517 0.769688784796655 1.358425643094854
Ni 0.04163843963817467 7.783588602308106 7.349410371140295 -0.2856986692892434 -1.3105365327230591 1.2924619346095354
Ni 2.046525990706045 5.943236657730089 3.5829092164559104 -1.5545658472979742 0.8027757971586109 1.700444327132065
Ni 5.602380911152361 4.984485413591444 9.111232240677449 0.31492491314421245 -2.421638506762442 -0.32416520079555783
Ni 6.909240347866265 2.8964168224319433 10.045162979034965 -1.0744678677561172 -0.5351298716060203 -2.5085227674505117
Ni 7.069153556754642 6.429003094665089 7.8521578528524865 0.5198958282650853 -0.3099999650387693 -0.23514641026298858
Ni 0.801911339875651 7.344801796498154 2.0695135720794133 -1.0839773499084493 -0.8625711720496886 -1.2245020216297944
Ni 6.896191474254444 6.472619139018727 12.733376544908568 0.17547547676491715 -0.9608996700189579 0.2627094074829217
Ni 1.6409050719928067 8.22474374181738 12.162894719395801 1.7283922184952425 0.677019541995692 -0.48902022173215137
Ni 8.771017879412845 8.686458229510249 3.583556130952768 -1.7200813846367022 1.4019487631884695 -2.6746923934334705
Ni 7.339788669912821 0.36523299612953003 1.27486942269125 -0.5979673757575314 -0.5189308932486546 0.4763014886139023
Ni 1.6192951788997827 4.728502637327895 5.75139425584013 0.352811917997973 0.06961724607750591 0.49217830774515886
Ni 8.711136819575545 5.513204392832022 6.340839338498662 -0.015915899899308073 -0.8944348535275048 0.7562090051426654
Ni 8.71261126857123 8.023656544724467 11.31436683146029 -0.6672087265528573 -1.6042138493424052 -1.1200663823215227
Ni 8.967469777475568 4.276353637494538 9.188179126109194 -0.2039422167460423 0.36139837411540343 -1.2281753567163234
P 2.1906718106468044 0.7771276953194127 0.0320038369819885 -3.083277709647322 0.6757692145283588 0.48056283499341745
Ni 7.777589437956908 0.6477595404379167 7.459172040501655 0.2162554868957566 0.9469018130779693 -0.795547654841288
P 5.992188364386866 8.644464079051865 7.072187235563266 -0.8072394893569194 -0.25540747450486984 -0.29367628817808134
Ni 2.823809424700627 7.319911254389728 6.156680658937471 -1.7170181723303461 -1.1486205398101315 0.8130229288079159
P 4.606888241102463 2.5729411433908647 4.909583404610591 -0.504623475487047 2.1825590799936343 0.9656826932298983
P 4.060918208612357 6.139292297625221 3.1552056594404063 1.9752818853370886 1.0150221628949745 -0.8586566674866308
P 1.4419834718623095 4.190623643701616 10.613703139526535 1.4986276413694577 0.3968214908097037 -0.13553107516149562
Ni 4.668916467289732 5.9833048091878585 7.2525160338581625 -0.42377745057325733 0.7776216664904866 -0.09015701790207055
Ni 8.585698071267553 2.6252011449817134 1.7601907603356768 -0.5639233987989449 -0.15414714760078616 1.16659255090752
Ni 8.98258287968135 2.9649234088940073 11.10804810502456 0.023382897700314566 0.10174472273966993 0.8643004960359695
Ni 6.274250457261612 8.498954393790095 12.116875323179196 -0.32567906633692295 0.8698929025220825 -1.214230207390141
Ni 1.3745274303096717 0.31293889790565654 7.56278341448976 -0.5200657781840463 0.9297168166582506 0.09784590190589601
Ni 3.6142615312879305 3.0479072414324637 0.21739736757706601 -2.411442025845415 -2.329447746259795 1.2204769596308014
Ni 7.044106354440425 3.6380185907309226 3.5546255985961626 -1.0187188950202715 0.16677743477028698 -0.6636377213721474
Ni 7.7960108350967605 6.5474566408560175 2.290951851435281 0.20924254591303318 0.7862019519603298 -1.225324774641406
Ni 2.2685227176190295 4.727433661806022 12.68986555504587 0.4887813662484679 0.7275810569933276 -1.2429550861286593
Ni 6.220368561775509 6.123414325002927 3.841033629885693 -1.790416482716839 0.17821473007295113 -0.6794219807895977
Ni 5.406343701869675 7.24259483517844 9.253620701721475 1.1355048283637799 -0.16981185072123658 -0.5208522786410836
Ni 0.07032660944111413 3.486196420706372 4.131891732550328 1.7213959896830677 1.2498934651197056 0.6308157897461201
Ni 0.5729828596216976 3.124891909619723 13.455256636359623 2.0823053399771947 0.4498607779238704 -0.48436703923085606
Ni 3.761909167593444 0.5082674501397912 1.604814246700901 0.08227401560956799 1.0224927602404068 1.1299417324537055
Ni 7.0114749551046485 4.328512270716932 11.694162776014087 -0.6796672640311843 -0.22756731236415 1.2956837839809427
Ni 1.9740107460369596 8.513652807215841 3.347160488066287 2.124575304389999 1.3993599194153707 1.5303599394757321
Ni 4.909214792361669 5.661285148530019 11.112418003235526 0.1126567416664834 1.4027584035739584 0.803445569532126
Ni 5.755290487311229 2.2059415730583787 12.215887337831381 1.2689509959717886 0.4200380381354831 -2.076863600136333
Ni 2.3290304182794963 1.9691727102698646 5.657831251757624 0.49495587049029593 1.5782017415493594 0.4464471242566311
Ni 4.166193866904343 8.277731752599847 10.724247188386231 -0.45677113189045854 0.761478738182037 1.239645305029136
Ni 6.424377010941123 4.8415836599907935 5.582394755015836 0.08951115678795551 -1.0290159060709052 2.413195261091096
Ni 7.7247304414615625 8.445754430964497 9.218538952460994 0.6790501992724757 -1.8024163353911926 -0.03432345587221831
Ni 5.684102246738261 0.3934152456208247 9.011438768057548 0.05635189642716747 0.6880629442940472 -0.12176590305660319
Ni 4.1461874370941265 3.531121038543682 11.047084246706055 -0.8489427826329766 -0.5283812400282771 0.9859231886464892
Ni 5.249591343015799 1.733749282189914 3.1107371992611363 1.4180461829709643 -1.322952904109541 -0.12769306717431556
P 2.026086441503347 9.116730092370114 5.4372426236355205 -0.14684187218862452 -0.07595887202481756 0.04086614208674252
Ni 0.02692159559998307 0.9465593940055662 5.434801489017038 0.22696618844504138 -0.6966524857352712 -0.12603830517971198
P 1.5461164321826384 6.643056227613814 0.08482597225244204 0.28342427143277 -1.4777127455936614 0.11779226312083585
Ni 0.02006909389253205 0.9190332743173518 12.27345166968421 2.0796439910949474 -1.088757802016228 2.099103899591772
P 8.204764957925832 1.6900687306927142 3.598999141121335 -0.7099767136480031 -1.201529471994021 0.6845243350131694
P 5.499897490645956 8.606202127613813 0.5492350154849288 -0.7119510637655545 -0.2371323303447658 1.492133806114998
P 8.314952374434696 5.832459461622949 4.266416772794236 0.5401386376745214 -0.8105233023145136 -0.20059952552605453
Ni 3.8539240002304784 6.95766678206833 12.764789680761657 -0.43830006966946444 -0.04104971885245833 -0.464400109190626
Ni 5.308062461000975 6.460427288885647 1.1052045767576537 0.7031051833391504 -0.3656658911425057 1.235376502450453
Ni 4.344804932119263 2.564647367790131 8.99058637313606 1.7365775825195124 0.2611690595789954 0.15603305176958934
Ni 2.722302826653864 3.7128837384868825 3.868750506412724 0.9346960150403968 -0.6129196261919896 0.7029054086235185
Ni 3.9760728842168467 5.309039283460617 5.1016727767073276 0.40961504302994617 -0.1410646033852151 -0.08898228086767901
Ni 5.0921109749703035 4.425438861570846 13.21001245643778 1.7522255734694148 2.160229049037867 -0.11924030842127205
Ni 0.2900996829624793 1.1250414449333652 9.815011627645214 -1.423420302798684 1.196273108691088 -2.257347071638803
Ni 5.537671030854189 1.8146412402157412 6.740003092141418 -0.12393771389694137 -0.317039388384054 0.20891010227427892
Ni 2.589436541530103 6.631140836667425 10.145052290839583 0.3017940321892093 -1.0969884174561366 1.477723801337255
Ni 4.0216149275711 0.7081271684437936 12.782403817076373 2.2111037244005467 -1.092754324770131 -1.5079810575598998
Ni 9.0798043603344 5.247434961359608 12.274530782042927 0.5609509464341823 0.9047634891470223 0.03140191135004915
Ni 0.38178092151423926 0.35657613746360817 1.2530798311268767 2.2650850637130087 0.9863456208958884 1.0263231897300906
Ni 3.2473725446301205 4.6595076396360104 9.046101220884884 0.19062904457690394 -0.268684394119434 0.6804326814422992
Ni 2.0189353638742693 2.573328186252233 8.806238779797296 -0.583322372150847 0.1835860216871935 0.381304111900395
Ni 3.5159895057254538 0.932662712221225 7.74563352056728 0.3963391518566465 0.08258151954765777 -1.1502187375351869
Ni 7.558053197805474 4.601764530842454 0.7012737452057204 -0.911694669049217 -0.2879728100354008 -0.11306220463501819
Ni 6.778852980116501 0.32514825712055956 4.622487911476822 -0.8047228935826527 1.1327959140730492 0.4498597494826059
Ni 7.394149761322522 7.635498631303887 5.810092070358392 -0.090735773223676 -0.5047234914000212 -0.8289794521371723
Ni 3.7580479542859915 3.7732532095540043 6.890065138677367 -0.2606874919568865 -1.0995155547533644 -0.4179166209171061
Ni 2.1217044588735887 1.8258931291140705 11.393822123245945 0.8453290971397893 1.2234658670557963 0.7419658649600899
Ni 3.1000197981237436 7.556495811053781 1.4583120729589103 0.4370384293482215 0.4142800526057833 0.5562481416418743
Ni 0.5405339233491364 2.6072036519281196 6.966768740024825 -0.8653438496988194 1.409463840618592 0.8448884100579449
Ni 1.6742736958264273 1.6520463772164593 3.329518705832903 -0.6323556234294142 -0.7429997055412431 -0.4406086631979832
Ni 4.056826612649328 0.5545126213588626 4.756000189566818 -0.36641768170686567 -1.1923663174375143 -0.35054034835497694
Ni 0.4722586410732705 7.502945666591708 5.089277268306719 1.4035865559022085 -2.109705586367018 0.9969205681982573
P 7.868480003234731 2.2282886906492454 13.120482070358477 -2.0233764268514705 0.7568576944702579 0.5487772871861258
Ni 7.63181250881467 0.7909571053683258 10.853983955516648 -3.682072466402156 1.0241899454371717 -0.00573818803535786
P 4.6000228379663 1.1557191993498586 10.691256392107755 -0.38380091018031964 1.2582966015817363 0.03414733530567022
Ni 4.77119715105923 3.7822012718965743 2.394307039910386 0.004483746802966471 1.8597061702515973 -0.3139059849613948
P 0.8279215416901756 7.580391100090118 9.612968803296974 -1.7298927143001692 -0.13053902126354291 -1.4770781973334561
P 1.8054627952175955 3.3563527560237674 2.0234674514747595 -0.571701500082467 -0.04112093841002595 -1.7350472619179154
P 7.143272264706536 4.138833622728143 7.837241036669255 0.6664487084583812 -0.3146071247934776 -0.9546572886536718
Ni 1.577641994771651 5.786926633574919 8.062253011778418 -0.8978950441619632 1.019650405695605 -0.6532232109070427
