# total energy = -340873.2446497186 ev
CRYSTAL
PRIMVEC
9.22418634950503 0.00000000000000 0.00000000000000
0.00000000000000 9.22418634950503 0.00000000000000
0.00000000000000 0.00000000000000 13.50052911754542
PRIMCOORD
 96 1
Ni 6.171294287656778 4.855399536128076 11.627546253324784 -0.3649701506270618 0.5993529432511484 0.5435242663173027
Ni 5.45277629225292 3.471522531231041 0.17966777922429944 -1.5233886503642216 -0.3274454142087264 0.36563889455931226
Ni 0.38451297507938176 5.509615728515563 13.506739004523876 0.33877189496513915 -0.938437741471016 -1.769626285444365
Ni 8.350794261621974 4.542017029216842 7.257695894995861 1.3772530602140023 -0.07260846749534593 -0.16941075862807597
Ni 1.9299949574984276 8.323075581652931 2.6318743655717833 -2.112640500625626 -0.9222205082812053 -0.040059844135363266
Ni 4.522166580200742 1.734045566955207 12.306853154991403 -1.3415635772321926 -0.1483642223704219 -0.9873360098336156
Ni 7.307557234287928 6.60147344207817 13.138013224375282 -0.20256461967222533 -0.10405948691577563 0.6284105227387371
Ni 8.592154321545427 0.079483891322877 1.9077600563119457 0.6432051645494085 -0.19014387741036928 -0.08382387659519111
Ni 6.203947907320808 3.4092131524653557 2.9825373440180876 -0.9127002274955958 3.198535893492395 1.2386641720627893
Ni 1.6696976430071064 3.779103024930786 7.170414798954904 0.5399445193858442 -0.4669704410209635 1.3281413902890158
Ni 3.8263216348347897 2.605860315239439 3.105283591721267 -0.14316827999177922 0.3688653719164099 0.6234737475587521
Ni 2.0331029124714592 9.207509016858179 6.646350953487617 -1.9366780569219613 -0.2735725754496708 0.3324598367041823
Ni 8.136147445355874 7.124152737174956 8.232798469886866 -0.5179662153425402 -0.9776887165518388 0.2544093722576586
Ni 5.952182965199325 0.30301913355176113 13.381657192837947 0.9211465584907362 -0.3443308771101554 1.53466628016057
Ni 8.16059153917217 1.8971476299211358 7.938581054946241 1.0520424488730657 -0.3480803168502586 -0.6984818256345261
Ni 8.451596170008564 2.3454430863256226 10.360575663755421 -1.361146641570443 -1.2613783258308535 0.054700476866673536
Ni 3.6536817631873335 6.876437212859267 2.9815106920778036 0.5969862427911848 1.4488564834836015 0.9428512971576795
Ni 5.810582480605389 1.1509939722253468 8.337305733928552 -0.1623458813614946 -1.4428989803485859 -0.2884914015430322
Ni 2.804890584022147 2.7557717917309144 1.0877972267331983 0.6444958583363739 0.13473223340928409 0.26294389209123104
Ni 6.137745921917208 3.0174342858014103 10.08195173583232 -0.9896374042732828 -1.9007913703276813 0.1809547547119335
Ni 8.79974463525701 6.780247397645564 1.9324661170204596 -1.4301933598564596 -0.4600120074252594 -1.239223129890053
Ni 4.242978132073281 6.584445594083876 5.560773065989211 0.943202509849511 1.443032934823289 -1.4436636264287523
Ni 3.5779973142202794 1.712949852782428 7.290987828355019 1.0535565715247468 1.0836873294718563 1.583817030853608
Ni 4.790959370316519 8.119811411337514 11.702164386350267 1.7543382489370432 0.5024123267683412 0.3744315531502777
P 0.01933758425527502 7.797748945074908 3.6320206063915585 -0.3838577315601841 2.116160340853426 2.8275532181226657
P 4.05115195282662 8.477774410857863 0.27543420428473203 -0.6599127071120764 -0.28572900830654663 -0.3041455631405214
P 2.3291900699843735 2.1712351029993853 12.670691961214008 1.0082635040149022 -0.5728533542987231 -2.053714158603063
P 4.615293965547649 5.177074586564161 3.880848567580548 2.072429732734695 -1.160094344777686 -0.8218302426869007
P 3.2842531000391912 8.935045000576785 8.359001020213807 -0.7141012773393378 -1.621665469159949 -0.6352632839945124
P 6.191458359008634 1.4062641051582228 6.1464397175480965 0.7840283413477787 -0.4422657391854318 -0.15882115603768776
P 2.6830483065808535 2.643227494126158 5.694536681863779 -0.935156756726899 0.29983048070493523 -2.412752774237038
P 6.832530085853396 6.763302567328382 10.126490719602876 -0.2745344251423078 0.3131274549241575 0.10064763302074924
Ni 1.5467392390179744 3.5363962338008506 3.126398676685372 0.5457390145804344 1.1268147567889497 -0.43704485710612473
Ni 6.61229341266176 4.778746547594718 5.7461893581441945 -1.8246918589599415 0.08655593081437353 -0.65667286001854
Ni 3.620502364901594 5.018658410261883 1.7157014275693716 0.6775435328199622 -1.8206464852459738 0.9681021013046683
Ni 3.020644302649738 6.602294394662944 7.625314772782963 -0.4815753354183318 1.2665835241808767 0.5071765809262039
Ni 2.4995331192317325 8.72150508667218 12.010259589648108 1.1978787626153111 0.09670098966817539 0.42643005770475595
Ni 4.238412159832124 4.765472943443152 6.945171237414782 0.2433927094321808 -2.3457541967293016 0.9733386671132591
Ni 2.869275404715631 2.6851883178130724 10.558682591484915 -0.7579864087580623 0.9333356443577603 0.5043298555060283
Ni 4.561876702419287 8.919077934012254 6.395497360977096 0.7170963554119199 -0.6463321402141642 0.28101026267463863
Ni 8.754795175194067 4.304392764763426 1.8655031362433325 0.4029103773162609 -0.761328842867734 1.578586635692604
Ni 4.015066935841963 0.8255923505055716 9.909604270892023 0.7374844321499686 -0.3037804664916187 1.3248874021280923
Ni 8.454824635229583 0.4884723224521284 4.8946844233560824 0.17091845352185403 -1.411713298774401 0.6162692593905129
Ni 1.258059103140715 7.9669666435880835 8.74305094113863 0.6314264267469254 -1.0175161329614217 0.3015587762499516
Ni 4.968709441199532 6.235171778101244 0.09605606451168977 -1.1300633456332345 0.5178011505195856 -0.5478370347600435
Ni 6.581512302825921 4.968986166789906 1.3891910586508345 -0.002334047449815335 1.798145990150613 -1.3836268249508301
Ni 2.7851323768695044 4.805865655451285 4.836429996907998 -0.8317397884911288 -1.051021720918035 0.943470161688601
Ni 6.868679672142474 2.420112874794641 12.149449794349891 1.1486267104577186 -0.9619443092333884 0.9446844937116762
Ni 0.2597161907515377 2.477837832946478 5.711695513304183 0.0447950448275035 0.6587551964688655 -0.7863809007403554
Ni 7.073871697404157 8.15181933795734 3.358202479554606 -1.268707512502415 0.13437459295954923 0.5465080315359748
Ni 3.0836362712050107 0.6259643544476575 4.71958261637294 -0.384091444837545 0.5732865851813997 -1.446817598676702
Ni 7.59590529945674 4.587962701405129 9.528471037689734 1.9392085366532992 0.41983234988258017 -0.3787713181762122
Ni 0.6645408241643079 5.553402941098939 9.164860991288505 0.12110152999972693 -0.27920586247604817 -1.07381352200157
Ni 0.7402732389003597 0.9389114797633724 11.506919723643865 0.01759354471204712 1.2195567618093772 1.2235957077654411
Ni 2.3605707519326877 7.016940019278056 0.4490776674066082 0.6846629174735629 0.716294685446231 -0.1012004202004257
Ni 1.6737747333719373 0.5860632915717545 0.7419824806302311 -0.3392166958120416 -0.6182477232731224 -1.3141903274255624
P 0.5369518786295988 3.2561101074982433 9.0247658939062 0.3469996821915701 0.4624249877421262 -0.8299819252597578
P 1.1663706908637477 5.766389403822799 6.900498502942212 -0.8898215231252095 2.0656841864807456 -0.9411721096830437
P 4.448446882925337 3.2011985261818667 8.86073495537525 -2.0784209173211234 0.342484567930036 -0.2889292604113992
P 1.5394798043638522 5.646142910619325 1.8531639421685944 -0.20934127627442656 -1.396965451041265 1.2860701721505787
P 3.9366244551575234 5.568355347165435 11.384833927683042 1.075368525193516 -0.3912918192407261 0.1991046861480829
P 8.463264765735964 0.7447395899289821 13.243128362297153 -0.41305697883195963 0.3336147762442319 0.5222355321418555
P 8.022496245389627 3.8788164793285747 4.422125667187679 1.5892376876485468 -0.46042338393106513 -0.6756167481108946
P 5.328369691007502 1.8044537813324797 1.7050899235971964 0.09480660085893995 0.2415399724941582 -0.7462593501291213
Ni 0.5588703902244206 4.009965960792751 11.075199207684093 1.3792955445653279 -0.08250387223218694 1.0722626325746822
Ni 6.218125481734259 3.2241114050647623 7.597976129291365 0.14311685792855353 1.4185784013253506 -1.371017877937568
Ni 1.508634125223593 1.1595355687815312 8.96683523639885 0.09979942608784102 1.1699164730744303 -0.4174913604542294
Ni 6.7247546925894035 1.4526156415457239 3.531333077915657 -0.1287410488228557 -3.1976822872428476 1.2070552869082567
Ni 7.460448122969088 2.1173381821810433 1.274586077816433 -0.06911793784358419 0.21161875945469363 -1.3552032795028146
Ni 7.050248556172636 5.719401398577441 3.4357087053249495 -0.009418979321054746 0.08344001089321114 1.1967657320567906
Ni 0.5288438188316659 2.741686459180922 0.13498951023992142 -1.4844150973145014 0.3700956447790852 -0.3714457310490764
Ni 8.475210087053739 5.948686998574278 11.207113374196334 0.3988045826780035 1.032846592670905 0.6460850572003647
Ni 2.9746986304614516 4.937227293201414 9.4134463563766 0.40557198330882405 -0.8742612067931073 -0.02240896382281947
Ni 3.0001204880303973 4.693432048082678 13.063301004649073 -0.9412626125143209 -0.7693419429801976 -1.2434567083554262
Ni 7.53449989095294 8.605012837311433 11.654845232815095 -0.3679675426924889 -0.45582265193426014 0.2654759144844654
Ni 0.09579133036356613 7.852531387782444 -0.056950126498792206 0.5112710627105518 1.6296088923767418 -0.75894157358248
Ni 7.04712155700142 8.59393458951016 6.708858652259736 -0.6388746554948546 0.8060943200088827 0.18872051470028142
Ni 5.210309329967975 7.94044710784399 8.805922995271409 1.1804402554238895 -0.5937258268723582 -0.32345711898493973
Ni 5.4579049398611685 5.267499285311757 9.171814182955947 -1.3616184390005388 0.8636530922599578 -0.517069928780516
Ni 7.943500313524441 6.768578801918164 5.488883447284807 0.900961856012745 0.15992210241135038 0.06771257285562532
Ni 0.5306821991703781 5.760947133878794 3.9156126810804905 -0.1237058003917934 -2.3081847231159602 0.31278961196876454
Ni 3.836366773765335 0.2909363718574353 2.3086173671774 1.4371353383919316 -0.33358957943325124 -0.6410063571258767
Ni 3.4024887206192886 7.172819544335247 10.197476368045395 -0.4793094222022906 1.346748463867242 -2.0853135306758985
Ni 4.861773448893005 2.769663416367646 5.1361413372361655 0.2048508446032407 0.768384721273251 1.1188206828398795
Ni 1.763904258156469 7.463953313780481 4.959716781931039 0.46548228651121126 0.01158179130032844 1.0156184017180767
Ni 8.734418947556257 0.05253081882053316 9.722379115794634 -0.9439720410256839 -0.710736474632163 -0.8057189389473349
Ni 9.041685818920246 2.0652215293274354 3.10791617450435 -0.49068681080129684 0.21916571856401607 0.8671513352212034
Ni 1.6571988705085863 6.221344722768933 11.274103105113864 0.9505831185842983 -1.699330782352912 1.1020840868114892
P 9.078684030353136 9.07193192594803 7.455801900306723 0.013803738652311711 0.47189718889861954 -0.5506737328778903
P 0.6131464251015738 7.932495859213936 11.334693095544699 -1.6515257470544913 1.2990154194573371 -1.5311883489142983
P 4.914434328741013 8.564500210880803 4.221899021435925 0.061395886608978135 -0.6915411326506348 -0.45199350799615706
P 7.868212504570256 4.0597488945008795 13.320296982847243 -0.38641906452945707 0.48911021034279634 -0.6736143729688849
P 6.340604228033411 7.383029526969029 1.4228750199296878 0.8055443610426837 -0.6159332162073328 0.1146280064602413
P 1.8697702448468865 1.2319362074094904 2.781676074245744 -0.3067205229565492 1.905806821264402 0.6854913269121291
P 5.830691206839171 6.30806129860553 7.174693899000706 0.3697626869196987 1.2177176517181094 -0.1626695832495005
P 6.276219407339927 0.6609286327913038 10.318211743125195 0.5170545021615482 0.0828543135930702 1.812322281650995
