# total energy = -340892.36256800784 ev
CRYSTAL
PRIMVEC
9.08906917386268 0.00000000000000 0.00000000000000

0.00000000000000 9.08906917386268 0.00000000000000

0.00000000000000 0.00000000000000 13.30277147314039

PRIMCOORD
 96 1
Ni 6.38147161922388 2.156290701868489 11.613146030785982 0.2821603171186818 -0.841565516332299 -0.18432110008100516
Ni 4.6301625595875375 0.4406571465058938 5.711331843739248 0.9635916150288242 -0.6697559184547434 1.3701604150332791
Ni 2.7287293492061186 1.4103417295491127 4.874521267607535 -1.2678374511926358 0.9054340328514858 -0.9771773241330591
Ni 3.383960325001513 4.341157436305998 4.811465852229804 0.004450322461869755 -0.963918916461256 0.08812198974991275
Ni 5.1058753358693405 4.248003569321298 2.715254804586661 0.4534911755876061 0.5736496249477733 -0.4519423430432475
Ni 7.398883811880072 5.825911372802494 2.6318598708619354 -0.5391487629574263 1.754378101036043 -0.9127722183841119
Ni 5.0667014489824185 4.4256130643694025 11.953949757633314 0.158901631566636 -0.4813506210020356 -0.9272017635458807
Ni 5.535497443844048 7.829569340914124 12.668388745948148 -0.3647354089084363 -0.29109721459699545 -0.7128514640926368
Ni 1.5774715281747989 6.695735264932044 0.5603710905813037 1.1302795754090986 -1.4835134114358386 -0.8481051172230297
Ni 3.043074796534232 1.5834884917755279 0.23406079297524504 -1.5321363146498646 0.8415030385254798 0.3902836896911859
Ni 0.4225617192661789 9.155146414057802 4.565723787925773 0.33040141151325675 -0.17655354032044432 1.0739670168602988
Ni 8.345892076966404 2.16938805012929 1.0566896949283822 0.8350613966651941 0.842305222711801 0.5929663229985143
Ni 7.164749397446872 0.734067741475157 4.7009464102367176 -0.6215454201877877 0.4163906711908829 0.6203398299154608
Ni 0.6507300688843959 7.388485917077603 2.609750710803366 0.331813461369435 -0.11516819523442746 0.993826759764282
Ni 7.662403186012904 3.957171543194221 3.8694965669323604 0.2958056758162583 -1.445848292784897 0.010690904054942878
Ni 7.621847760655725 3.950236583636281 12.54991364196153 0.42082171037904303 -0.268834289433737 0.39799777050599194
Ni 8.263835963088185 9.089614227409378 7.031605445189533 -0.6284318628949758 -0.20195141156825863 -0.7324370995340482
Ni 6.769520326126481 0.5992295867779752 0.3614331864917036 -0.0857203222869556 -1.147509823244456 -0.5631682658004753
Ni 1.9304727854634869 6.507818765770305 9.329326603416243 0.05577005578176847 0.504857445874724 -0.5275718567531044
Ni 0.13394742594662068 4.6282811223286995 1.4394658329717953 -0.3357313083666024 0.06938327568982888 -0.33288586849800733
Ni 6.531732106002206 1.9385438786318363 7.154017024909499 0.3731591141957573 -0.09597182481163473 -0.7426793460873466
Ni 3.4985643945507445 4.338303468676649 0.6426462510196098 -0.2958977213094323 -0.23795122670163538 -0.21654730710456255
Ni 6.060809269021889 5.560174265862144 4.753399426762105 -0.4975375151745432 0.44658390694481154 0.21334602655844548
Ni 5.26228003321276 2.719149470603145 9.239505697991042 -0.5399612315563926 0.8811227097996308 -0.3315712634516419
P 0.08398844992280373 5.535288395259733 12.448267857919184 0.28230738421950735 1.1945360713953233 1.2539396101646212
P 3.9565625755790412 6.14206554483838 12.718194116707839 0.044110617165969195 0.45737585535399294 0.2488809862402617
P 2.492104529898901 8.375440639905936 1.509026294949286 -1.6693874578262604 1.332650591013279 0.6342320145165207
P 6.329309452902757 8.159966083890103 5.772751226717988 1.1076338129851246 -1.9157713886762815 0.7266125224324712
P 4.79831033392815 0.8602203819474799 12.441310175689036 0.19354339001022153 -0.25857224538609663 0.23174972587661377
P 4.1830985284258215 6.177494735345392 8.01734041497373 -2.0783841505459173 1.214357734106941 0.06106961361781095
P 4.645277681140426 1.1869142382604128 3.6897893147859966 -0.31448474028300033 -0.9205078964654727 -0.33716778370281286
P 0.2600591656089688 5.47610946776072 3.7558641188467505 0.2994856957710068 0.5208468793244448 -0.9732908445944592
Ni 1.5035319528093456 0.9667679008385756 2.7485389748372193 -0.27643781281260776 0.3135750839845373 -1.599481476863742
Ni 2.070526247885893 6.389742671907662 4.711895102613512 -1.4171933480523657 0.7420023746249802 1.0230794859818122
Ni 5.891143620177769 5.759688416918943 9.102208041254046 1.6222077148166643 -0.3434453891814085 0.805538961726045
Ni 8.882719752419357 2.4606381734249982 10.264790842113927 -0.03466001327603063 -0.1728220983024701 0.9048509066545061
Ni 2.243482139665759 5.267678940129426 7.090243573089991 0.7539752307161403 -0.12443882190307602 -0.3595196690354518
Ni 0.6520325324553693 9.07106343781861 9.062592425619396 0.561020109109221 0.8710141606107193 -0.13128824072474166
Ni 1.540969827539561 1.1051035292420421 11.635401524853574 -0.028120412385299956 0.15511773904417156 -1.0911504706181208
Ni 4.093671179683265 6.942239902115383 1.5921949108588183 0.06409914447275412 -1.0697506647861061 0.1327601972845778
Ni 5.864258154421037 8.402135235216118 8.0299651316526 -0.4073411593941049 -0.20832491919477025 -0.9389213659756539
Ni 5.47189213979888 2.919163520448525 4.684903294750845 0.039620442605099504 -0.007130440397194172 0.6200094431592353
Ni 0.8067084888971902 7.310138143303762 7.033547779209889 -0.4325248577485841 1.0089260772995656 -0.5363107792879989
Ni 5.202437603685268 4.558086243343156 7.024488704253928 0.12578530862864143 0.16612283190542357 0.250069350121408
Ni 8.477238211398632 7.284697839499471 9.614218923028101 -0.7393837060552105 -0.9124508304889511 -0.5906492448295635
Ni 4.47548478533194 0.48375478442972547 10.058145407611308 0.5704488586222886 -2.2540336909948535 1.062794030962615
Ni 8.193322966691728 7.162586199052652 4.874082265580472 -0.1744912584747769 0.15623745447091159 -0.2636702287342943
Ni 7.03749334401212 6.352777428759377 6.976957418528834 0.7344669854798834 0.18252595585379533 0.017860682330504724
Ni 2.292354063051136 5.250800539213182 2.626619113743838 0.13975822586896575 -0.22033762738493023 -0.41901088242254936
Ni 2.2668592248335457 5.563164569524741 11.504795240628447 -0.589400717134443 -0.6338898006857535 0.5370779964713266
Ni 1.1517395416821332 3.284253239351971 3.657450407699299 -0.029619108418013507 0.6349388107755581 0.30205577049102816
Ni 3.355911458427722 2.5637718380435355 2.634600225130243 0.5595203846352429 0.7831665075681157 0.10915052828543781
Ni 1.0576585896713393 3.4356135034651722 8.220181165241808 -0.4357045410281464 0.41640558358921836 0.3876524227159259
Ni 3.867280651938618 2.7883899973559445 6.5976423979161725 -0.8799852537610781 -1.0631503858607692 0.8805709510612191
Ni 4.092689560243872 6.9843586473204855 5.920571298501153 0.48626759868767866 0.36121968244569397 0.150483839816586
Ni 0.8009596528285179 7.698532234823928 11.743034278569333 0.8555854847604748 -0.45526883631331916 -0.3332941596800195
P 0.19676743444027373 5.698200865923578 8.152403978579217 -0.8419977187737111 -1.7871594092321221 0.7731104088836943
P 8.63022541884194 1.761761488852111 8.168872462488824 0.15592172300270565 0.12945093040568673 0.03522771285404255
P 1.97309142945717 3.461971803226674 10.558782228584832 -0.37156914400081814 -0.43331752885320857 -0.8078946064424151
P 4.130909094898049 6.060854714366306 3.7703511857398047 -0.07494251494516126 0.8272717254174463 -0.6557146098703287
P 6.5730873694211125 3.8964747411917013 10.336386346614384 1.5017661869984393 1.688849937426246 1.4271445457278067
P 6.324165039914822 7.724608773450048 10.058744377250717 -0.053008948096863545 0.42288733465882006 1.1281213914155153
P 2.168760904376344 8.447289729428237 5.840621121883189 1.245755788802248 0.5897372745382553 -0.5285362775489026
P 6.914736379674588 3.8635814009031244 1.3965645189358424 0.02396062458065551 0.28859758810359326 0.5591455177943274
Ni 5.259862340889809 2.4621196916529726 0.7285452232216783 -0.6106151464285291 1.5936458440185712 -1.1091358514519478
Ni 1.7523815697645695 1.2560184289799632 7.072737117513912 -1.1620015891027278 -0.3078831758060826 -0.40969140479383637
Ni 6.976178485325537 0.9297935686214073 9.504643835291986 0.6988165832661255 -0.9507486976278853 0.12534924953248733
Ni 2.7824093900307485 1.8255576633438277 9.101849023033157 -0.5807098742286643 0.36360849439284476 0.6011725129583905
Ni 6.378881234592146 1.7068998690726545 2.551445242824036 1.1479265990669003 0.7277407224996434 0.8826599723797638
Ni 4.160730329904078 6.762449030535294 10.50366884159731 0.24473456817205597 1.4197747356262969 0.35817755318526057
Ni 8.322351388558719 7.1108603080379265 0.4919576690968824 -1.006979752206472 0.14281963840310888 -0.2032742441447402
Ni 7.634145270854797 3.9238782838747794 8.439145014801932 0.21243765581156318 0.45861564129836496 -0.8792360342998793
Ni 3.101281193662734 8.38918331205745 12.680108191366244 0.24894500670897776 -0.5735634929918703 -0.8546403472383861
Ni -0.02486678355775585 4.942890152654428 10.418730583976204 0.5600572309753195 -0.5531707882681313 -1.2843454761499882
Ni 8.84663614895275 2.561526838029366 5.684420019682754 -0.6278225114457511 -1.8400081776020376 0.8837305797361231
Ni 3.828024963431747 2.4294626671553603 11.239005417088572 -0.37804986662915535 0.8625763142560113 0.5767534606840776
Ni 1.2004296836898447 3.566914192552983 12.641503280191417 -0.35684572174771445 -0.34163250434238585 -0.37190955805937237
Ni 3.3059761139830015 8.452479587760587 8.081500152220778 -0.8208712212077411 -0.748436303175782 -0.46330919011929234
Ni 5.601256857214553 8.07152035458694 3.545148599298201 0.6217408240280454 -0.2392915427796137 0.4030412464671703
Ni 3.191753785326867 8.328159303575132 3.632494551266487 -0.41099932497198244 -0.08485797428666031 0.48285857300612967
Ni 3.5981533223048037 4.555277721058223 9.452110834960425 -0.3319073066348219 -0.6352915661292866 -0.12019444480442525
Ni 7.122730631999485 6.022698803194311 11.434649442614871 -0.8605209743888793 0.2732732990416971 0.013178960584119237
Ni 0.6691081661663807 0.26614066159876903 0.4821605617475988 0.32046564045678355 -0.986302426362779 0.4438215137083259
Ni 4.479583955398297 0.2728520300621803 1.593192890622202 0.7097332301786293 -0.16975914310643023 0.3251203656199756
Ni 5.877046474339807 5.625860966681582 0.5720559975376439 0.6820373069252577 -0.15713476947420035 -0.1540962397581927
Ni 7.769863247419881 8.39761796798113 11.676347780172735 -1.2878586315095693 1.1405632167232937 -0.3307986469516755
Ni 8.907932829501567 4.903107298152327 5.843681411376188 0.5276417907590912 1.143802806706514 1.1874434262146
Ni 8.00033476709312 8.948597323685345 2.418869357371902 -0.15265925020135 0.12673584546736882 0.09195190501896423
P 8.557731005428927 1.9621027451772888 3.5292118259182645 -0.18440774625754047 -2.235344342115466 -0.7312885877519018
P 1.6600638971171313 3.038230322819446 1.396604510838929 0.2587473375113802 -0.07943834593298578 0.28474376157514186
P 4.605794765911473 1.1854327200324388 7.9690120179075725 -0.5933381045156362 -0.5850149293619216 -0.9869009791787263
P 8.493334952390914 1.2961921134440446 12.306153903580938 -0.18004381286188995 0.6455093872025529 -0.9997847771199296
P 6.296252509374281 7.620139015705669 1.4548845294253854 1.0308475599630054 0.3752013414367667 0.5865678756713381
P 1.7223876424497575 3.3368244137728413 6.032740406496555 1.3286023890858343 -0.018453064498864993 -0.18167003561140327
P 6.955191825274052 3.8355870687426328 6.071198074755475 0.5064304467887988 0.5732482757442966 -0.3561651507409221
P 2.3249020187221485 8.481828191184686 10.305270828199376 1.0008391865263733 0.16715615826594438 0.20211287684678741
