# total energy = -340858.2326868012 ev
CRYSTAL
PRIMVEC
9.37903959405318 0.00000000000000 0.00000000000000
0.00000000000000 9.37903959405318 0.00000000000000
0.00000000000000 0.00000000000000 13.72717249374755
PRIMCOORD
 96 1
Ni 3.252660268016407 8.852819083621668 5.57490668973017 0.6877299864346608 0.25785619315567854 -0.249521448037738
Ni 7.425957671589581 0.2634581566795011 0.02108220492572766 0.5373929566085842 -0.2942838398550932 0.5119146098318216
Ni 6.039895081261789 4.36820322284604 0.46104356752958875 -2.1663115077865207 0.2924840676421931 -1.9881574557481758
Ni 7.30750040305504 1.6366611459868887 3.6685043685213192 1.0370344055000074 2.14021275381694 -0.4969299634975313
Ni 3.0514142180602994 5.369659541535201 5.4705939506237335 -0.39434166181064345 -1.8180041625271206 -2.578982049813339
Ni 3.0949235821720755 5.143371456188181 7.962555967395789 -0.2974254708078684 0.04556509022430862 -0.38761154217566146
Ni 4.3542472121113285 0.7260483278180642 11.426044849997101 -0.40861231279704463 0.8249186518042373 0.9255485442131738
Ni 7.916303234238378 6.254440609189549 5.5081373077272096 -3.0547379503364165 0.18909589576182917 0.8290740687335076
Ni 0.20479789220424927 7.6317619347292025 1.6325043556927867 1.9201134676950609 0.42065253179103035 -0.3698079383353373
Ni 2.3762453035713067 5.345902434551987 2.2081250831272454 -0.27092099675943665 -3.353737193389308 -0.5236995182818915
Ni 0.2814227688846523 5.011727258155654 5.123323759316243 1.7255606625837183 -0.8294008559453071 0.2819471726666112
Ni 1.174368290399596 0.3180122776738011 6.713108466020817 0.6090627143397447 0.0828244887963993 0.5147770189812813
Ni 0.1922252897916957 4.881461778925548 11.605541845321007 -0.5936872603249388 -0.6408073537411932 0.5803797445827553
Ni 6.820024826484752 8.991910238995162 4.542335407591814 -0.17591102164043895 -1.383432706662153 0.538972128170246
Ni 1.4095664632452551 5.47424521069028 0.30143670121449045 -1.3093170584936613 -1.109405817283883 -0.689534129522935
Ni 5.713710846495814 7.034879862715096 2.3764347601686464 1.3321160586660477 -0.010956756121819839 -1.404992949331432
Ni 2.5428639397958603 3.052783557823248 6.577209935683676 1.1511085963393077 3.3144949600592333 3.470100437373101
Ni 7.66078068285635 2.7522697540928274 1.0332606415395673 2.940061607136743 0.5032286520220495 0.5869897937001052
Ni 6.7437919936542885 6.802073344934862 8.1806674061309 -0.3116693823213923 0.829644596524997 0.06938996055804823
Ni 1.8858622247646197 7.027179671308377 6.184626790973896 -2.2858536637189273 1.520870511928058 0.8005921592437308
Ni 0.08947697446922967 0.8692437508646161 2.167204333909811 -0.6857906033201028 0.6033507515566319 -0.30308241198332964
Ni 4.999028038710225 3.126080751298896 12.214012658507025 0.5393086855740583 0.4056573439337788 2.026115680159504
Ni 5.969655454654094 0.26868509537738705 2.269828845911243 1.7271992266284062 0.1288580340166942 0.18092621546684326
Ni 6.72368333302578 2.1249526989912635 7.860315996012718 3.0058563941443652 1.516407076840066 0.5063018916307345
P 7.182768557113563 5.151578115726401 1.8511232004633462 -1.45056472442396 0.3373446756003093 2.395242533267417
P 3.7125051943014418 3.429952251160383 0.6658967960667244 0.5719169585273828 0.9678786724399524 0.13321219722033187
P 9.244684731811821 3.89992654007545 13.545177854995833 0.2840837593936398 -0.37749733655979506 -0.43577138971033985
P 4.539548894964608 6.978352391815834 -0.0028277804008839265 -3.8327416827566694 2.0923652953163576 3.657010124116889
P 1.5601938371696196 6.393691208234072 3.7704151356189133 -1.5900766386100744 0.5071493272326943 1.8307691755022728
P 5.196156690338014 4.738534596407902 10.773785177323033 -0.14751627254782979 0.17582566101548427 1.5406093851178821
P 8.494108339965925 1.115664882342772 6.206823225788927 -0.4611366079480058 -0.048300229767284555 -0.1728310971635346
P 2.0159495022447524 7.088209081154321 10.225233295709439 1.140385810605165 1.2500068507691182 1.5918692117341229
Ni 8.55823283283771 5.659593788740922 9.1534979584468 1.7428641868591725 -2.4607616980161495 -2.3142455845980594
Ni 8.700981813605383 7.364290487059526 3.84603833088368 0.5645553759559889 1.027605913097256 -0.616605302573693
Ni 8.01489569717069 6.443156262410728 10.99063325944123 -1.5297233343329977 2.3166814477330617 2.4137750448539657
Ni 7.021186465085609 4.274778610662939 4.401206186940999 0.15129965084966202 0.1545454114804693 -0.435629721926153
Ni 5.246803503488174 6.847392863664782 4.780721515954091 0.5564862257946093 -0.6797518533251906 -1.2690821222330142
Ni 2.897035228347034 8.42232117184531 12.321097841681462 -0.5492259446877703 -0.10640767543297804 -0.9398623897326847
Ni 8.166104571542334 6.332943169572297 0.3745031703191211 0.1899549013280148 -0.6473538966104593 -1.2344303364870997
Ni 5.603844778117856 2.2205251112135094 9.909645499739215 0.4967769828594347 -0.2511612976340062 0.6210599959109369
Ni 5.565869047294709 8.288266560668413 6.488188782532799 1.6678954466617664 1.8882649557258966 1.6465216089716805
Ni 6.534517485909933 9.185099694044606 11.02228751766008 -1.7408201598459505 -0.8984300907298269 0.8863579900566412
Ni 1.7689712558219453 2.745441813357028 1.572049880966493 -1.2638136747452235 0.8102461373937273 -0.040340608600575686
Ni 3.7496368115720866 1.8908143576059688 2.698281189178704 1.2772559162930586 1.667359371652638 0.5549013978059928
Ni 5.092462029932797 9.059655041103237 13.23317285210401 0.30333643697566465 -0.8559549522847516 1.7980976534111806
Ni 5.926455598844902 1.8648813134651927 5.756888192610273 0.3353127327719451 0.4240335324481214 -2.145115847545512
Ni 9.279884266951182 2.3634241566127385 11.717266839322363 1.0215759048530924 -0.3777786152456397 -0.346425554855655
Ni 2.0870426214444215 3.2427466232942366 3.8707192732549105 1.4948360355375097 1.4420782842195037 -0.2955544790374007
Ni 4.772758711442149 4.7128735444118215 2.6262829926699625 -0.04441426444931706 0.3554706957770588 -0.21291768077177528
Ni 5.651499677676368 2.0184349477048995 0.671385409965886 -2.7241254512536184 -0.7325322303510159 0.05183935326879459
Ni 7.408212528908081 3.800818229972165 12.15988622171266 -0.7209648372283907 0.4344238745435099 0.00035198402278003893
Ni 7.557273603240579 4.701215398347813 7.140271191360842 0.5768416495225097 -0.8237230888342395 -0.6788463107917857
Ni 3.2685202237639848 7.993173841752955 8.175560519138259 -0.7958068220399456 1.2082282241704354 0.6515008288992973
Ni 2.326123716631593 9.253285311007877 3.4063977314297693 -1.2411054345144301 0.27356306236797406 0.6939517989746564
Ni 0.9447037508425654 1.2394025501001904 9.275931001813628 -0.3047597996857526 -0.6290018764658328 0.09389077391288991
Ni 0.7807862779860203 7.869107907614008 8.737633224055049 -1.0911612692513981 0.21118758545454597 -0.7496058980038509
P 4.123635389567601 6.883164520211951 6.642318289796101 -0.9337979287061595 -2.3335370858378197 -0.17903876863614326
P 6.258501733281035 1.4295438173211517 12.381223112122278 0.3836019067956361 1.3794271850471858 -0.4309397726496514
P 4.983627655896788 3.010024516869252 7.531935190202343 -2.4327161047328425 1.2742412978364508 -1.0115097788663419
P 0.015416327180540331 2.598659845616287 3.3695268514564534 -0.4427632476471407 1.1581197375498182 -0.41075481306134426
P 5.35137041456431 3.044520624048194 3.726405868703266 0.9698080282521814 -2.0030467141551824 1.498837700497735
P 0.6250266936624397 5.649680144018752 7.426413492907932 -0.4089871796379601 0.14265483069047047 -0.33070454457597237
P 7.942114350866016 8.808521880194222 2.112611758853675 -1.785869486776105 -0.47433073804077674 1.348502470443871
P 4.547464804279189 8.826454603665168 3.714888408231341 0.7922836393780355 -0.5020932528660256 0.7973926784698266
Ni 3.52115403098856 6.917379256206725 3.0365052969152075 0.4972410669800468 2.1400075797846694 1.186767483193498
Ni 1.8219346917217514 5.045341735624205 10.141676370955095 1.163711629815299 -1.236329867502658 -0.6747618563097669
Ni 3.443645648789871 1.0701108876260448 9.527988936014609 -1.112273368639665 -0.5685598691296918 -2.475074000873763
Ni 3.912175565626211 -0.09947690635454458 1.7156908083879772 -0.6335470726343541 -1.5272977556106406 -2.773516085871604
Ni 9.017196129412355 5.417520779962102 2.622411325175817 1.973447917452143 -1.1152252521791375 0.5075257367355066
Ni 8.903878574508607 7.882782547164551 6.6446377262575895 0.15995784074529226 0.4906798688227613 -0.2117519425984482
Ni 2.528551525561204 7.592857678998302 0.7680617351340162 0.18401848123892178 -1.7786778541236723 -0.3977666283317924
Ni 7.526829241113649 9.491587945918852 7.813369213934362 -0.7895287023407177 -3.6235415600457976 -1.9919585746618211
Ni 6.065368552468424 4.368118811490789 8.901289021710319 0.5014216807202977 0.7499213723617407 -0.14522336274859504
Ni 3.7658250337011934 5.370766268192926 12.704374165522927 0.2947582083883505 -0.5485127206708295 -0.7655364531911784
Ni 0.8413054680846724 7.012210724310663 12.517176978792305 0.31584716784816574 1.084940742262983 -0.8452699617670797
Ni 4.329148902483583 0.9169858754902197 7.156002654267652 -0.8220480151246616 0.7207370374883006 0.9007224863084294
Ni 3.5097678770692458 3.148759268742801 10.653342366132216 -1.9044194539985717 0.9907031265336357 -1.9822416044843731
Ni 4.372151798463857 6.494422092166057 9.696901685294074 -0.6095327119976277 -1.230237638561991 0.9552324444308515
Ni 2.7604857926705195 1.6031967331498942 13.512836113183667 1.855427083260269 -2.569613978334878 1.4767233850971988
Ni 5.099449414339626 4.88517587855656 6.2048873920418535 1.808777244612214 -1.005615524869094 1.1671131992976804
Ni 0.27327238358326544 3.3075745441264415 7.667792452765805 -0.055227810125053275 0.5965810369329662 0.6181551635593161
Ni 6.0927553477274 6.737198528905295 12.719433151299572 4.076038232930618 -0.8163162548472069 -2.985185238948259
Ni 0.5178814846353821 0.3758800133136476 13.416307038935251 -0.5240453316570846 -0.3979224371833663 -1.161600239899251
Ni 0.6857700428044786 2.500930254315423 5.396549247702147 -2.6187261624804963 -1.3814961517610722 0.9747136930839148
Ni 0.4798494795754009 9.057441587787785 11.023002200467866 0.380566462403422 -0.36324699728836796 0.3492985055280759
Ni 2.2105458132150337 3.6315453255769636 12.660515901142782 -1.7402164648236804 0.18891720409211982 -0.5108720274999202
Ni 0.04687643928231464 0.12091551478021781 4.4751814849704905 -0.3563746956485669 0.4452227649312268 0.5052567381956717
Ni 7.992357865318868 1.1864109770819673 9.601003820402141 0.04065556873783321 2.286340373547359 2.7655142986130503
P 2.1862165848240123 2.8160753596225563 8.834657511587599 0.92695673741461 1.983475219781158 -0.6965419282993359
P 1.8185957536696296 0.13805101989602192 1.2819636933213219 1.0303482517290834 0.4156625347756067 0.232705919142296
P 5.26086268365708 8.325285629465391 9.173676961871351 0.45898305194011274 1.2429121487058659 -0.47957038917316114
P 2.1580700873677845 1.56065341010376 11.561642313167182 -1.3634104979039552 -1.007483174205452 -1.7652392121202631
P 2.7959948361124654 1.6306960768825365 5.329752666484716 0.19601601992043016 -3.6250045177445696 -2.657779933948848
P 8.391848672599963 3.18053545447479 9.567647266519078 0.09143202795975222 2.451420880231198 0.08448722121080289
P 8.31170478030957 7.991026041713809 12.606005861634003 -0.07056778291623331 0.2980754456870415 -0.15657529742630455
P 8.040294136061547 8.580611221018502 9.815271728761523 2.3573663270469334 -4.223647836523203 -1.8339434594651967
