# total energy = -340873.0116115632 ev
CRYSTAL
PRIMVEC
9.22077999173302 0.00000000000000 0.00000000000000
0.00000000000000 9.22077999173302 0.00000000000000
0.00000000000000 0.00000000000000 13.49554356862466
PRIMCOORD
 96 1
Ni 2.3078690342295936 2.4729209968038464 4.374782488816849 -0.6911456969844291 -0.37770765279838825 -0.8530665749933631
Ni 4.6119944317661625 2.98436078206326 6.830647808795354 -0.1047894231032647 -0.4181467346500412 0.17953473443595533
Ni 7.536687546241825 1.8443957466970662 0.7041125944197655 -0.042431172581017244 -2.8037928824782745 0.04173697472747006
Ni 5.458591129631661 2.6629520524850068 9.684173098827408 -0.2355017367198783 1.2253543423277606 -0.416162871450793
Ni 5.733462582388001 1.6709436535135873 2.704034315839942 1.0662462511772732 -0.7601957577045552 -0.45121060708354555
Ni 3.965949699598428 5.562619969953602 2.1984644791489507 -0.05558467924383976 -1.1539977449616448 0.44090459717184716
Ni 2.5175772344992158 7.645640283100896 4.8327269966421404 -0.40114711476825105 -0.5063782533946247 1.0200013612771208
Ni 0.9462272261121366 5.428642036087463 13.374731293675687 0.3805775181470155 1.0818639031098722 -0.8403067042245335
Ni 3.659266555731408 1.1203985401381176 1.8706168788742952 -2.675314343288186 0.585401880387695 -0.2864908261732356
Ni 0.4409164933400473 5.270708515697977 5.522470849537914 -0.9361517736503168 1.5269516851251315 -0.6374800891401732
Ni 9.126820283554252 5.49655308102374 11.1175073937723 -0.06779433393615421 -0.368301786103456 0.18017982421912193
Ni 3.420964716582303 8.860017013325985 10.93997326126862 2.8149152176436814 0.5828127795042801 -0.8540536214969807
Ni 9.128618335660509 7.623833138325025 5.668060511698453 -0.6932511733632061 0.7743903040373825 0.6599044795819603
Ni 5.700922449654787 0.7761591592004317 10.965182873876328 0.8381325793913502 -0.4948612538939607 0.7427965883915014
Ni 0.1645761703245974 1.2890742692649784 2.8526336406029515 0.21028847067904427 0.796695395292486 -0.7436141991967904
Ni 4.148133871472288 0.8039662655431787 8.362513515007059 0.5709684785711844 0.5779143137613982 0.40533209938387615
Ni 6.127531058619054 4.701786387718569 10.60350238750796 0.8373309094256611 0.23605298123765797 1.0645845472041342
Ni 2.1539188908139666 5.002577453145088 9.749841650059885 -2.1027636078315464 0.16050934237338807 -0.023528936359875605
Ni 8.272367481101421 6.094059627102599 1.2026285343862144 0.9766656746039631 -1.6968738361719873 1.0473614984576285
Ni 7.604902876919161 0.9700998256151947 4.514731799831764 0.025791250031491065 -0.6262024593438248 -0.4767971973033982
Ni 7.2413551825942974 8.565726597822083 7.424195874006441 1.151640814693694 -0.09995137828467301 -0.36149659025616454
Ni 0.5703282969343 0.15791231259541233 0.3655430711238063 -0.9800559312324346 -0.3045042320315207 1.5682052924582799
Ni 3.44155471839394 6.838259562711838 0.3198439632068088 -1.0213409060241507 0.43585855010750746 -1.2992599313679754
Ni 7.043560230126125 6.021160140168965 5.135364984309086 1.5919203766870327 0.6116176195511144 1.397625196112451
P 7.399307144543847 0.17598227522428178 2.3912617688397355 0.35240928324291565 0.25281297430481625 -0.2711881343778942
P 0.33867464018832494 0.13383962216565803 7.410659768919347 -0.14265843023489627 0.28495150671057373 -0.006992886378065376
P 6.005872086875774 6.928807622626875 10.671479822060471 0.5273558840875563 -1.0919598538932935 2.850767708565916
P 5.894291427707561 4.619168198631121 8.447494990016729 -0.30465515578708824 -0.9449585733086694 -0.6743430236047935
P 1.8814356200859361 9.177082755509128 3.231237946642201 0.18987879667444074 2.733084203108803 1.5945899530993959
P 8.010488107410284 6.054511701545003 7.103109871729312 0.43889528005130224 0.3932538280631034 0.7443096826019181
P 5.7415676480362015 6.454066541895144 1.3829962125937538 0.25801148778662014 -0.7684541410586055 -0.42280814468145245
P 1.03773424715051 7.14872322639201 1.297460568704156 -0.5007984453140021 0.18469545270128834 -1.1865782500008273
Ni 2.8542094719104347 7.59993287648187 2.45863155398813 0.020712807067319164 -0.9342458148768555 -0.06974631545620247
Ni 2.5495087957503126 4.404121166722924 6.063237325689362 -0.3298362830384062 -0.7719999494283349 -0.7441777850097442
Ni 5.760958948443667 6.548367459283238 7.337905048232217 0.6860453996433862 -0.3516451513833815 0.14220720163009057
Ni 6.068444300173478 4.920328095258924 3.469407006558845 0.026634828978708967 -1.2013687780464408 -1.5120164039715378
Ni 1.750177816329261 0.39747094406289046 9.394382423979163 -0.3425658147899326 0.32792466783799007 -0.3706610303642519
Ni 7.84804562558511 6.938867493641875 9.5289062280232 0.21164986980294517 -0.5697202079863801 -1.0727310875706686
Ni 5.589553868427311 8.187951239907719 9.187131561588089 -0.5732817000853933 1.3299465618185546 -1.2172746506434198
Ni 4.889973287393313 8.704905051626316 6.375712963572534 0.46908645892270184 0.0016676175104100312 -0.5033962879481653
Ni 1.8722793855140798 2.016206541034834 7.355679023822056 -0.07198214676525667 0.622719900111863 -0.6851342006830266
Ni 5.078298498768539 8.496616851481633 2.067085883173855 1.2844223521345104 -0.7245137309219135 -0.8405625289890815
Ni 7.290391290804905 7.17712322889082 3.0213416424599244 -2.900764095088701 0.024305409514583945 0.4408829999052923
Ni 3.2702602877379685 2.9146885681408548 9.162029832106755 -1.1074276105115897 -0.09684702832773644 -0.11567418833656853
Ni 5.213226172977983 8.087583049258514 12.467641668409719 0.47482670384058867 -1.5526372628166938 -0.8182165571937134
Ni 0.7026861397488027 0.6892616061000956 5.285178685802321 0.42821903128437866 -0.035508991539887236 -0.30657397007635584
Ni 8.51299295681861 2.3858122878407757 7.896444577895501 0.5318177765136518 -0.8897490180160612 -0.4821021544560794
Ni 3.812681893905175 3.685112402161332 11.380697040305995 0.6408042684173996 -1.0450459629505744 -0.3539881976942613
Ni 9.068692486232013 3.5182900498209193 0.8333307616333445 0.854166235815445 0.06120151120998493 -0.17026385065699062
Ni 1.500257794339733 8.517363606553817 11.901126164018686 -0.8217243132366558 -1.3123324482812173 -0.4793423323227551
Ni 0.06231956392482373 8.005794730373953 3.2105631136542687 1.874671790422494 0.5083505466296471 -0.036020641068983124
Ni 3.7661353963032296 5.199920587391689 7.946135361488386 0.43188413884079163 -1.5151446651878744 1.0770749663616612
Ni 0.9140577687362118 6.5532729142603054 7.747629486879739 0.404369992580923 -0.1280836177445149 0.7511621867473773
Ni 0.14429229841002522 3.1233640410468837 5.18948174231737 -0.722129289850137 -1.5681610694839057 0.18022224742128315
Ni 8.552015297914378 0.05072535511248488 9.559932308675146 -0.5755334722340475 0.530206466162474 -0.8238791547961294
Ni 7.083440103764875 7.986145248125589 0.6100495731564992 -0.8529732439486083 1.9658009424298466 0.5730747262809097
P 7.842365625085348 0.27046115366699497 12.630856851601582 -0.16287141484766143 0.1588484097311974 -0.8659686277670118
P 4.785741589910667 3.0589292301827005 0.977451553534773 0.04142792812748349 -1.113473045374721 0.13823176192211034
P 3.568902911417013 1.3819920696482602 5.6639443554921325 -0.27032655770854735 0.2085385778674731 2.565659878783136
P 2.7650445290002095 5.299717089678904 12.162574927282325 -0.24593733023090547 1.5061648302867674 -0.4162831990787412
P 6.64908603957366 8.23842578980333 5.073905719161255 -0.11555206093640744 0.04049410345930445 0.5413496272634871
P 0.7977422390215241 7.351368309157058 9.993935983225143 0.14363493521555262 0.0635998362388324 0.2834870063499053
P 3.591816549796735 7.013961526223144 7.078817726734793 -0.04815984753467835 0.5737653245900312 -3.673723837327144
P 5.890971946896012 2.671315299974105 4.57806657163812 0.332789195019143 1.3648806546915784 1.4666845128039578
Ni 8.1137055190894 4.472963510442443 9.078532902682252 0.0934518866032584 0.7428474962340949 -1.0872866167873405
Ni 4.7622839255090526 5.026523818888403 5.617209753977531 0.3610785288821394 0.31234815355597173 -0.8200284135914716
Ni 2.5415420418025945 8.960071697454097 6.892538606448686 -1.245525932179629 -0.12398167976099937 -0.1140191692316488
Ni 7.620154047092224 3.0681776725548775 3.2678379888235405 1.4603914807063947 0.8789884370654475 -0.11910224018151101
Ni 8.810897918095089 7.4535990973727415 12.664703568865342 0.40659965324239 -0.2075196496846555 -0.24912061305489352
Ni 4.173029977558907 3.427705106785754 3.2120199968993375 -0.10955573414365648 -0.16856486568801293 0.23987338342501272
Ni 7.090088286168006 3.91912657859552 6.559590070660284 -0.25869437278625773 0.7480215842358665 -0.01939974468285046
Ni 2.7202315380442954 3.7930508532168736 0.2782425699360683 1.9030012334948063 1.2834563886768156 0.9269410536853261
Ni 4.0590334740222875 6.023566763757338 10.272929124655823 1.0315718397235394 0.2163267064533242 1.410583556045332
Ni 5.011291090275405 6.919715933515243 4.098339815143043 -1.0391823050809457 1.0589795423125312 0.0635368442113809
Ni 1.2648697216807652 3.352463541723972 12.021398330445138 -0.8790982231704345 0.9645064135336099 -1.004545945953999
Ni 0.7497268711604679 2.9419175315755903 9.719909153919744 1.5612699987910272 -0.10949068523367596 -0.8211195897731214
Ni 6.81386137874695 3.9289835924498147 1.0205937391488744 -1.2911295889513572 1.8805315916373808 0.22127608003879956
Ni 4.807447306106187 4.952158227929669 13.414435050415825 0.40085529455944513 0.11842115495408638 -0.7205426620893075
Ni 3.1682692398031187 7.680955870623767 8.883684911512331 -1.6294862507559484 0.0904048722468185 1.9758349296270812
Ni 1.2207575100072892 4.987372386872186 2.2530810034349735 0.2908416469427636 0.15121249045249444 1.0114393306397227
Ni 7.870037185961624 2.504004246291992 10.421865929968007 -1.6230039854657146 -0.5705470747630496 0.1225644876984986
Ni 2.274406823493171 1.6143649472367376 13.180044666156329 0.7130934049001137 -1.1392372988230186 0.31141510021874114
Ni 6.9294622980091525 5.975627928370549 12.72084521016867 -0.3900821152033411 -0.6206195659394086 -1.1604450432488853
Ni 6.671372664911201 1.5440472787120865 6.562032655290782 -1.360170907920735 -0.1636453168992085 0.0951099910319717
Ni 5.115246164357088 0.9076668460959764 13.476892926041131 0.22662988815154517 0.9381407790558874 0.49828647752542565
Ni 4.16046205437518 0.12749941381559904 4.104088971493046 -0.20862805225748585 -0.017949385389569087 -0.6959657440808917
Ni 0.32784944443066166 1.1535841274735776 11.469633307871424 -0.5128798019585683 0.5799076900423432 0.20937598616710393
Ni 5.987015591710169 2.9154631136635496 12.394968090586872 0.3308405559332044 -0.05279734630668971 -0.3676705802773603
P 1.6836498883977953 2.7484563457224955 1.7054856175917665 -0.7123215597310959 -1.6562046405873991 2.139938674219947
P 8.45526165303775 5.216278251168601 3.473644877061589 -0.1846535437197594 -0.5555392885003078 0.11166403873591092
P 8.138223573194704 3.603674472917991 12.266166702630743 0.12466790719474659 1.004438216731541 0.4190993283712976
P 0.953216577376454 4.148327507852961 7.578139562876046 -0.0038461132189675697 -0.6802177372180156 0.7613481261414436
P 2.64874283045557 5.619309325590836 3.967298699717121 0.42752380498956694 -0.594091694852209 0.8784551902697967
P 2.74913868344487 1.7095787218480074 11.006776890523044 -0.8125948401315618 0.8669181361644747 -1.227610485351789
P 3.2255026214622466 8.863474805838015 13.170638548445604 0.8875743789622457 0.2056975088742522 0.9866667516807331
P 6.441609268071803 1.0614593141730548 8.794154825712836 1.0497186858358953 -0.8866140719315054 -0.7113075166442847
