# total energy = -340875.7750314062 ev
CRYSTAL
PRIMVEC
9.23405262504469 0.00000000000000 0.00000000000000
0.00000000000000 9.23405262504469 0.00000000000000
0.00000000000000 0.00000000000000 13.51496940909354
PRIMCOORD
 96 1
Ni 9.0232666132064 6.049947934610703 4.696735425902128 -0.4479427349655511 0.35516010651517543 0.8407304220255134
Ni 2.0811153088396623 5.229391576849337 4.437099729851534 -1.0543518137325325 -1.400188585964253 0.1371966357893766
Ni 6.3683472928512295 2.7805670703502092 2.971469097914873 -0.950656137914079 -0.46192465106694 0.14487009317423438
Ni 2.942513880037352 7.875667824227707 6.188166000036637 0.20089520238960243 0.5908988989465243 0.10838536798463916
Ni 0.18879666363441697 2.3066939731028167 12.356411378991163 -0.9240850722937697 1.1067436970706874 0.48869806250604225
Ni 9.055650434712435 8.731682942919544 11.767469985498225 -0.009184237602429344 -0.2253317381654119 0.3820877841439549
Ni 2.278991816125885 2.7362897894487466 4.649716554865182 2.8821444231049846 -0.18969830523251846 1.1738597739928947
Ni 2.8082876954317917 8.49582677841795 12.456463259344748 -0.32286833636100526 1.1421053643994332 -0.11166403873591092
Ni 0.4837332183207149 6.008376231040654 2.4258963545745535 0.30680279825771034 -0.7664124280382285 -0.9362872707869166
Ni 3.050764675450875 3.1525978044980754 2.47696989798769 0.4287427649983326 -1.154498081636831 -1.0949083949986562
Ni 3.053165529055542 0.3443479686808183 1.7054001878138645 0.28874079854967694 -0.7264880810394649 0.29167571280828475
Ni 6.172012872303389 4.33597854623864 7.283081750281837 0.45190891870215066 0.7011758275269215 0.2881522730360586
Ni 1.835895815279864 7.602016683557251 8.401337491185334 0.9929183890173997 1.7219675459158215 -0.6222136498994059
Ni 0.2751212018006987 8.358876548376324 6.052908371786304 0.8913464444101682 -0.13851792570396143 0.2752808163900291
Ni 1.7085674677615605 0.5373138069402634 3.878107138266356 0.01316739061989345 -0.32080219786059594 0.599334174198071
Ni 6.870809016098814 6.788607482295933 10.27929626161897 0.3937965879404508 0.3199452491769393 -0.8126737729986133
Ni 5.462994632583475 3.1567161918353124 11.559366765261354 0.3324089288615888 0.9194203198282488 0.19709511191722184
Ni 6.783122455214501 0.4566792918170435 2.400029003794727 1.3447597155719873 -0.034172789226966954 0.00993242862236354
Ni 5.087639639598378 6.642746391760062 6.760579363271906 -0.18733803253045803 -0.45274427011925256 1.799891769197126
Ni 1.0778909279724096 0.7811611203244715 9.907053144267614 0.019046217998173652 -0.3012592427316618 0.06954319830646087
Ni 7.279378895299254 6.722353156859438 3.1617866099673235 -0.3110798283665094 1.0414333058986516 -0.051722625185272215
Ni 7.644290175104048 0.22857973126898848 6.9323955280846965 -0.5169776261770258 0.5294945276971139 -0.09899107125393274
Ni 9.147907851497942 1.99395508893791 5.671448746808723 -0.09660483040994332 -0.761432972545766 0.030317420036618758
Ni 2.208157400735871 6.23354859700148 12.945718440956199 0.7209764071926164 0.3186167601735029 0.9799006366014928
P 6.603335456434214 8.753382965884809 11.286363855064156 -0.13883262873090282 0.8885801945189405 0.11494785169350526
P 8.107627218647881 7.858381678274101 1.3239017798165158 -1.2337783047253976 0.21941177313655114 -0.5933622728853523
P 2.7495591226406972 8.522189997807663 10.035580995183018 0.4818144480123314 0.8711897669566351 2.4157625075976394
P 6.482424775282233 7.938976486972321 7.943639683396771 -0.2708464347677594 -0.4188357902972658 1.012079792437199
P 0.561838526511941 6.728290652504827 11.204530759949067 -0.6406422889182386 0.04334417131358987 0.22031500167711085
P 4.151020478155994 4.3276678991455615 3.9646699149826397 -0.5384370816023825 0.5649945203759367 0.015554917015463535
P 6.656015724952013 2.212746724741716 7.117793137058044 -0.5059391089746771 -0.16570477053139848 -1.2116313363147133
P 4.148702731022257 2.278114581154949 10.09965516086543 0.33080764581273997 0.013861074252808385 -1.5225612693669197
Ni 2.7379057486057348 0.8077884336106982 8.116035746695612 1.1733879765627986 -1.5089423930319046 0.8317297611887998
Ni 5.77641683662048 5.382436760094558 5.037893952909669 0.3087558082190231 0.2408591443770497 -1.4190993068258269
Ni 8.294312054515423 0.841647856678369 0.3410283268697493 -0.33497000472054567 -1.8160501241245433 0.16464573313926484
Ni 3.6193606814547215 6.715492255981485 3.9866589637856955 1.8376193656548867 1.5954551293131685 -0.366596116266259
Ni 1.98104588378666 2.596975642011758 6.952559928148205 -1.4289412326169133 1.2742952910028378 0.21728212838805808
Ni 9.31928262860957 8.226183216456823 3.0655465464137657 -1.175682171913614 1.1472383147506242 1.491751997295547
Ni 4.2993193585058345 2.5724038287732194 7.67471822432751 1.457850716562412 -0.5816514122063273 0.8589451452613271
Ni 0.40482454757715775 4.313983033598957 8.466209478988679 -0.8437879779049146 0.5767192650120325 -0.49404724263309757
Ni 0.9410422725063673 4.5924728176880505 11.726965738377022 -0.1186625815409311 -0.18135944634951992 -0.49874541943971523
Ni 5.459319479757869 8.057929549031265 5.089061683656527 0.8960027122352568 -0.5800161905957495 -3.9453218055489474
Ni 3.920760149363738 4.5107606886584275 6.363049717032007 -1.5043023231567318 0.537886351305235 -0.37633494082057767
Ni 2.3459109933298263 2.2221377559568958 11.3221790504144 0.2885361387380386 0.5209715778277673 -0.26500745948847904
Ni 6.628812206800665 2.8503488037751 9.189935717252878 -1.5305861965539254 0.8714183380276733 0.7971587080821497
Ni 8.100849424240858 2.9176742792813695 1.3774592833052504 0.7669225349054275 -2.6701891062464784 -0.7395773101232553
Ni 5.810592064277687 4.966091808835927 2.513784217799567 -0.7778178416616928 1.4301835896644466 0.5595242412899848
Ni 4.719671888473795 0.870801606680892 11.790066634944308 0.29977340221475474 -0.323037772059334 -1.713119094386256
Ni 2.573031744331363 3.718580573693765 9.123888234588478 0.8730149930908319 0.21975578673953122 0.6975418303187599
Ni 4.679245207392126 5.511205619775662 9.537715983183139 0.6262801066592956 -1.4551996520928099 -0.5593936292493914
Ni 6.733997296842076 1.3078280649332676 4.871619142897496 1.447567589468849 -1.6227044519474247 0.14040151587991948
Ni 4.533393350908581 7.343417048177594 11.040567233234006 0.8939622847664603 0.8719865518263176 1.877073200775135
Ni 5.578374116392395 8.56028969770327 -0.16095876608829837 -0.8490381705602604 0.7602014141315101 0.751693376660499
Ni 7.416384529654832 3.7152009105425794 5.092629721475156 0.5791440724034413 0.10860468308429683 0.3985492721340878
Ni 7.972062096455104 1.4446120820330304 10.64198398162375 -1.3887109243419566 0.9994163380369174 1.4336219259220342
Ni 4.916837373730943 -0.007406633370398952 6.767214953273114 0.22189365901814045 2.1436860570775207 1.784511944306946
P 3.148636396050374 3.975545781811783 0.17367405614071 -0.5375680487338678 0.23483967765584715 0.45518193302646764
P 3.4299887363604173 7.335595805857773 1.0217266515121457 0.26993292181455447 1.001398658574269 -0.36326679478270985
P 7.974878482414425 4.6641752339966756 2.27375795526771 0.017252873543176738 2.3586845316377247 1.3699076755925246
P 1.5754678375397295 7.584582792766435 4.54571896395285 1.1206615927033603 -1.4255671739383577 -1.0640872958527416
P 0.6599475622562095 0.46414225290662886 7.774661142863651 -0.591722166178768 -0.6705794427973032 -0.9325319175095423
P 4.956497628469583 1.4141858796200337 1.6275940629179892 0.2534022711493829 0.12767584078313496 0.09266075816053075
P 3.263757326394176 1.1306358348564873 5.858144663539056 0.2705404734915663 -0.03002868515160635 -0.3454007131355664
P 7.501651768829827 5.108213108179912 9.024972142670949 0.024499270692944903 -0.711683926147097 -1.4958220535998628
Ni 5.646216698828901 0.4280130997773146 9.221506942154255 0.2978273342319774 1.3209281603700282 0.8395726542719862
Ni 4.138397528626839 0.9198685905236659 3.688910640166239 1.0453005021635418 -0.0685929185780496 0.6915331622308348
Ni 7.597113401772334 4.691267943520114 13.548756538729466 -0.5585819319813735 0.5877346422859296 -0.49421642122111015
Ni 1.1795301419207715 6.141688244465974 6.803191744539055 -0.1094696021877534 -1.6748389678591349 -0.8635605325461514
Ni 5.137762075621972 6.037241878610616 0.34929557391689825 -0.291526331714614 0.1042338077101108 -0.8159658134863237
Ni 5.30896140573941 3.6177077860884315 0.6984886498529819 -0.35847168738691165 -1.606899109484052 -0.7327680005109057
Ni 2.444216714388631 6.23592174844917 10.39191661059299 -0.6325235164658461 0.37200108933191417 -1.2231907590175386
Ni 7.704847090255621 4.276982185930102 11.11869747336651 -0.05750272220215904 -0.3469785991456476 0.01624988619995911
Ni 1.3785424376430484 8.123712937799153 1.0944531242236843 -0.28917994296962457 0.5231804125536279 -0.6541686055394477
Ni 0.966121958622816 4.375546460454024 0.6667770673562556 0.07447765949360076 -0.7413254031626135 0.31225559384216545
Ni 8.13709307961901 8.917342798978941 9.330815959964296 -0.4296909878442148 -1.3377858553573154 -1.0371138525876913
Ni 5.15092983423834 8.048520049711435 2.170395667155383 -0.6102305093956006 -0.7847027417069841 0.7455042171306515
Ni 9.17318145271323 6.791774762243628 8.970601119172326 -1.8543701027506643 -1.7261221915141434 0.9923257497387231
Ni 9.263601293085935 6.690200186661546 13.425513335960026 0.3889199765744399 -1.5678512515529708 -0.4338757153495238
Ni 7.182975389019531 7.039690599082515 12.827800516162958 -0.7978724463197227 -0.1346306748344133 -0.751139561039558
Ni 8.617189928133888 2.0714934263163416 8.294285275763679 0.6993218050373182 0.2359668492817549 -0.17870941032118254
Ni 1.0186452482510784 1.7562982842328136 1.7082784419237678 -0.09968269800431866 0.11622723262656112 0.7015964600041079
Ni 4.999953078714063 2.68699841813446 5.183085574651931 -0.8090953116187355 0.6769231256271439 0.690725835838191
Ni 0.5385086933112018 3.3378051919935143 3.615511005040161 -2.870139428224309 0.931759301009576 -2.5291401865905474
Ni 3.060321919607916 5.42304812222274 1.90281314567334 -0.014854805624645384 0.254074100405427 0.27177306034708676
Ni 4.318516953290848 7.801324468953948 8.795190137789161 -0.04300247170345497 -0.4287311950341068 -1.5024403302473288
Ni 3.3668462865576645 1.7792818404713413 -0.08397631865987053 0.632139650763866 1.1739340788742558 0.7696119088121326
Ni 3.6091478195825597 4.859733994149161 11.81054222257119 1.4362786468185909 -1.41662590558467 -0.47238749827147675
Ni 7.709501052627745 6.393556255700237 6.799678187629148 -0.2414247870725326 0.05493830390909249 0.30334209340261953
P 7.129140863961028 2.2890384650561857 12.623764895975532 0.39187905920276384 0.599397937556471 0.6780153302500581
P 0.39097993292531985 4.156551675499054 5.645540766198664 0.5571020050017373 0.16912459484622488 1.1700812807870686
P 7.607538646847985 8.148275516985365 5.062329102173788 -0.606436075350175 -0.7356049557390687 -0.6912241156308483
P 8.75757522564065 1.2974212879622669 3.467237980036832 -0.17759586554202964 0.334638589523056 -0.16045380654510433
P 0.290785848165921 2.979542429863183 10.237994192376831 1.243270303376233 0.3662492744498015 -0.3922706382142277
P 1.3811372063465543 0.886748815047279 13.340774284578057 0.5987888432175623 -1.5824929127255456 -0.5488513349571709
P 3.220329578306673 5.892276491150334 7.900634854905783 -0.6110069825503089 -0.2773634099506707 0.24858685203861058
P 5.812004874283511 5.488674532101091 11.657079660160852 -0.37857154346058025 -0.6653639600346347 1.1668756293655775
