# total energy = -340890.7088488074 ev
CRYSTAL
PRIMVEC
9.07241772258840 0.00000000000000 0.00000000000000

0.00000000000000 9.07241772258840 0.00000000000000

0.00000000000000 0.00000000000000 13.27840039104484

PRIMCOORD
 96 1
Ni 6.518123925641043 2.0478896512143083 11.308005788935164 0.6525554954160567 -0.6960755301858786 1.311115802265297
Ni 4.577805932201161 0.09320185523171667 6.057221513458273 0.48812933448676576 -0.29760647647042293 -1.7639636878419491
Ni 2.9661907078280985 1.4505525912897033 4.84053498631733 -0.47966192044570294 -0.29253548970541876 -1.4837707788622831
Ni 3.342659756576316 4.347910865320502 4.836086779873305 0.32093178145992474 1.1210302888966885 -0.3917121946075963
Ni 5.06942210758116 4.712712784786616 2.6045051638739625 0.16063918308303302 0.1890061642615003 0.3998829033438468
Ni 7.24190327235001 6.280989069361379 2.6938956963907397 0.17572641643345865 -0.6029254910937553 0.0618784826723515
Ni 5.0647588848354355 4.789356570303894 11.850401193945697 -0.06638896894819533 -0.26466036056170544 -0.6053040186282608
Ni 5.712084966800783 7.8849562455347435 12.454316664012179 -1.210625006537386 0.9843555870490531 0.9312155126909639
Ni 1.8136035341217214 6.609220072702949 0.4645223068822716 -1.348394484111097 0.06706388352803289 -0.8820683615423518
Ni 2.7879176981909652 1.7453970971521557 0.4685114489859585 1.0504231681020877 -0.8588222465302177 -0.5207720602224515
Ni 0.6274692811412872 0.01182589659348616 4.827256595635146 0.4259238074922987 -0.1405976910511256 -0.08964176882854884
Ni 8.69090448019707 2.2635138049062036 1.4221831408502472 0.6306494393715848 0.8010878679332268 0.02566089510121387
Ni 6.931109456007045 0.6676619064488917 4.93416052345999 -0.756240115490917 -0.3427457920112226 -0.013828164132343926
Ni 0.6194166031080088 7.531177313687414 2.6197749502617618 0.7393294557785074 -0.451395469400842 -0.27465603832183666
Ni 7.752752973451674 3.7997372374174563 3.6781305493168897 -0.527455385779898 0.11159616161245298 -0.025455978179259386
Ni 7.69015329067833 4.012911838305177 12.697709674085619 -0.8729188338325998 -1.3537117825589526 -0.396272303174453
Ni 7.932386845757794 8.45308012016512 7.0346438878634805 0.1142127732996936 1.0549318546057187 0.5236678937130078
Ni 7.005031516186351 0.8799954942071794 0.4281754794772209 -0.26531573475751724 -0.6445192553751417 -1.4635637077867891
Ni 1.7090167018012699 6.4486201329270445 9.180805968614147 1.114840358035893 -0.1059965560374884 -0.08535008343173042
Ni -0.11767833119609435 4.941383075265188 1.442034498223632 0.4957331149759527 -0.16251660261140397 0.10846815750643256
Ni 6.46017839319563 1.5228960507729858 7.2117910104524725 -0.5550605490916763 0.34791448069635567 -1.2584562670880521
Ni 3.414368146814072 4.721894071593373 0.681920118252745 0.004983055036888191 -1.7575919799876505 -0.6491235869163724
Ni 6.05652838073887 5.440393271146675 5.13388072876034 0.8926373953074497 0.81441466694912 -1.0575932034879656
Ni 5.2619115959002976 2.475010008502175 9.262561154316135 -0.9516552686025546 -0.06767914851452861 -1.1308912408511684
P 0.06848042398692154 5.575136820211852 12.483581562087828 1.464237593925362 0.40543134396590175 1.6712255394762636
P 3.7740441502270055 6.397034365354691 12.60186593079251 -0.08889152092608563 -0.35740879334003606 0.41821306911160233
P 2.4734676974773246 8.635227052199966 1.402969574447727 -0.23380018064773928 0.0022885389238605745 -0.24250079374553077
P 6.335922559099438 7.703589541430116 5.773793738146832 -0.40573396280798507 -1.0452287683853418 0.11297041625216028
P 4.792223454326557 1.0788828515541087 12.490912075664765 0.5110826008488295 -0.05579885213717487 2.0019727643647136
P 3.866219915006307 6.167683643541626 8.243762204081305 -0.13336337808621548 1.8463729434778007 1.5358937248097677
P 4.985602039589431 1.106408567138794 3.8728582031056193 -0.6815439122286069 -0.7103261265676217 -0.44630982734781843
P 0.024079104065033847 5.685457420577629 3.7674938645802873 0.8150996088312865 -1.2734936210371488 -0.9732908445944592
Ni 1.5825744150169077 1.0967282973534085 2.6749470445877823 -0.7650649128713986 0.6207278093824987 0.05862218051858291
Ni 1.8633657457176336 6.498690806727926 4.796582751076207 0.374846014979877 0.048030521045665665 -0.5354054938649101
Ni 5.819230220938929 5.743838429077117 9.42093200104024 0.5899622460648678 1.4348887084495998 0.053781050376197695
Ni -0.13342986296871473 2.2377299935378203 10.108355447926364 0.0638741729461416 0.16735978963631823 0.8391203972259161
Ni 2.4416779455298174 5.02941274511298 7.149196771129804 -0.20480327919475697 0.07403362997764669 -0.13669861310703557
Ni 0.5626223604805577 8.641015254752052 8.770861512692438 -0.36203343659624104 1.1869914262788461 0.1328851528982163
Ni 1.8390970281207213 1.3947027873545281 11.437948214504159 -0.3581155895990736 0.36247078124397575 -0.0148666326991873
Ni 3.926497058824582 6.886645536402384 1.5050406253141135 0.8788503688256863 1.1403027639730556 0.8070016623145004
Ni 5.465360564913667 8.02175016102119 7.947972352284797 0.36497940659844236 -0.9200936917461895 1.0519200643625886
Ni 5.316518478597799 3.1465503735576767 4.702545326165734 1.4525370176589822 -0.8123302736162654 -1.44390685278781
Ni 0.8693227019152139 7.043398771033956 6.914979604412446 0.29630832648428973 1.2488364846101008 0.059101948368478846
Ni 5.003656150997976 4.760234109187598 7.2505647096172146 -0.522738439920203 -1.417445573272488 0.07749407772242137
Ni 7.930227610323002 7.077665293039017 9.227028122787138 0.17328283998897254 0.7047067234983154 0.34429359611431676
Ni 4.581008495682175 0.4193307793705928 10.47695054527183 -0.3393727617739316 -0.7025449399603061 -0.9264435452236175
Ni 8.386053097508675 7.160569046833628 5.1019866440082104 -1.3455364458370116 -0.2276400745836144 -0.5760600341614789
Ni 7.059329936678883 5.996623206050118 7.431389790379586 0.6657020601003438 -0.24924094068284175 -2.0298052131959494
Ni 2.1900181483631798 5.278133078914609 2.73608062464574 0.16556284563689552 0.1161027912335549 -0.556583413494106
Ni 2.2610007451774763 5.272771279998804 11.170852605704104 0.8354655740821483 -0.03799936206190875 1.9312774547316804
Ni 1.078474592753413 3.45938548390412 3.885260198228976 0.04905073478006391 -0.7748322766708075 0.21190158080243504
Ni 3.705175426758533 2.671064957014056 2.8573525405297353 -0.23256785090253496 0.28419457393989117 -0.8927929470487075
Ni 0.9591904436079155 3.215845500662431 7.996186809405184 -0.641380966856476 0.5333347273788105 0.6544257158555762
Ni 4.132558884162404 2.53220253027075 6.523531993887593 -0.24946616931977036 0.11194557453207173 2.1959995217692567
Ni 4.153216779477608 6.648476424494291 5.912354053377623 -0.23709813467272067 0.978888907507527 0.4122632792860706
Ni 0.4528578993255051 7.188421369458871 11.070946233723186 0.9790478016828945 0.7620981169335908 0.49724698051731786
P 9.160873866722401 5.495807599027775 8.133046953541522 -0.8650096062878523 -1.425731467430364 0.37859854004377375
P 8.470245134629927 1.4083386312977655 8.158887013900221 1.399982640601034 0.15132433344001034 -1.5945930384231892
P 2.14959145467651 3.364125097075118 9.980232042124914 -1.3261477568977547 -0.05435800592559026 1.0392995473851003
P 4.0722454506729555 6.412702430883614 3.735346659371727 -0.5303517334910866 -2.2782866500049472 -0.3185195724740063
P 6.383434811082627 3.912280580142578 10.375304083558166 1.296586241190554 1.246109572597241 0.071610879468767
P 6.287031299611677 7.921917275624397 10.463458952771505 -0.0015673444871198814 -0.5366918167765015 -1.7108889195041566
P 2.526622993327908 8.304310613191598 5.777777436799843 -0.790956950146812 1.1720679721997942 -0.044604783193568344
P 6.868446266309148 3.9734196036512106 1.4857472216350127 0.6338558621240244 0.9151543454630433 0.5189812868706158
Ni 5.2723993108692815 2.9844807020992667 0.32480253665750475 -0.5139331829237471 0.0063166862466471855 -0.44967128762088365
Ni 1.7194227650101144 1.145392746396339 6.794172196319464 -0.9248939413483104 -0.4743469359906927 0.7698461363101258
Ni 6.875359448667596 0.6300685288390501 9.31583348435625 0.031970896479641714 -0.9789236174002045 0.8663118700390435
Ni 2.389339167280626 1.436063940073902 9.06835062834162 0.7486939277125428 -0.8939417159411702 0.03699200384331694
Ni 6.256956234627091 2.106815004781391 2.3677649577683053 0.4868869774392324 -0.1042770022432204 1.3684218350756174
Ni 4.020224207046527 7.054312889639221 10.59750483290838 -0.17327127002474677 0.33191142039988003 -1.3167927980454162
Ni 8.195604903193017 7.508215024252728 -0.10404520897819512 0.3224055377919738 -1.0869814268420956 1.8332400056402685
Ni 7.497600295434639 3.4984422425040114 8.377290049162188 -0.07546162067342488 0.8844057514262769 0.3810989378681243
Ni 3.083760170010674 8.568571998673043 12.413352883192148 0.6064090787669815 -0.25769395654620136 0.23969494886561946
Ni 9.189179810237304 4.86316976146968 10.47943275878006 -0.6270223841419589 -1.9051208509409705 -2.2038940940259852
Ni 8.559989491440641 2.6289145039466706 5.974310501729428 -0.3044715790213724 -1.0333631272960075 0.22230529263426232
Ni 3.9193117039323377 2.7147032865995318 11.41117823132165 -0.7018085760149139 0.5050942444758785 -0.017827257989408006
Ni 1.1666403488681032 3.5723280130121444 12.736920663787995 0.01835022037241356 -0.3227912032661666 0.22926552600217934
Ni 2.905414581031195 8.175291759753955 7.982164480463954 0.7305902761332965 0.43135603425146357 0.2542738751210588
Ni 5.610836784228245 7.922978748506204 3.3925253937350712 0.7017077887709916 0.6944670480481783 1.0365006444837248
Ni 3.1846182386181043 8.386960339287999 3.440460420387425 -0.27246237310462756 0.32567520968218105 0.7549260246651838
Ni 3.9242380267940655 4.498821462893229 9.684588256254878 -0.15350720002394208 -0.38231044167772227 -0.7535872512491021
Ni 7.349801537164994 6.096918784754367 11.369125760366433 -1.8446819289286231 -0.12430718142121817 0.18421568485139245
Ni 0.8483372923176743 0.08272502716408504 0.0339825553281328 -0.5613497245344977 -0.18519064717015202 0.7164422667676887
Ni 4.834119879695731 0.2733147511973186 1.5119447352547677 -0.7525482684616265 0.09489376125610753 -0.5493791824361829
Ni 5.923644677321308 5.840214723294689 0.3965689903691372 0.8863291937012349 -0.31874428689030265 1.3883571405469637
Ni 8.044639871113532 8.950021804789749 11.469789679233088 -0.3502590696691323 1.0094053309288293 -1.1595544131138158
Ni 0.22202292996146633 4.91256000393607 5.9496262673975835 -0.18458129572092727 -0.3783679120902064 -0.27876440406325537
Ni 8.014174692163836 9.102266047778082 2.5486698758072563 -0.28830551078447125 0.03118311047102372 0.10042934636235608
P 8.564008572523045 1.6242349575234578 3.9531527295428956 0.9240958709270473 1.489860436699789 -1.3942012580325664
P 1.8835700201431755 3.227957178416404 1.6530017798622578 -0.8960682753658697 1.1520660751565708 0.5592100524836756
P 4.363805741294256 0.8579703855305348 8.031427709081239 -0.06360420711420658 0.8774128650482115 1.0294496511742142
P 8.829086475605884 1.7123009170424222 12.344982235460526 -0.6831310542100687 0.9945916629547646 0.5190766747978995
P 6.577956520987449 7.815543176998676 1.287323464837318 -0.5533407381870923 0.7113589387075104 0.5091792131785295
P 2.0137682878939387 3.2137769894055723 6.034647523505138 -1.0921596286089257 -0.9218217301808899 -0.45608464734639514
P 6.56109089630982 3.6640410844839906 6.367763116586587 1.3337751915360254 -0.34054775591863934 -0.7407535898195436
P 2.0427637351611283 8.533525248737766 10.31154131682373 1.2978766778672035 0.08249924424649663 0.41897668675050426
