# total energy = -340858.91970607924 ev
CRYSTAL
PRIMVEC
9.31904264545892 0.00000000000000 0.00000000000000

0.00000000000000 9.31904264545892 0.00000000000000

0.00000000000000 0.00000000000000 13.63936089489063

PRIMCOORD
 96 1
Ni 7.232890901910181 5.712619597889367 9.282007612246872 4.517012506998137 -0.3233735581321979 0.22717367647015715
Ni 1.8004762714669815 3.1459037016277134 8.49868525079444 0.004585819598469521 -0.7050113992229278 -2.228267894884659
Ni 5.413096255509187 2.973184569439099 3.058517177058863 -0.1897715816726151 0.6987412499434998 2.869012256598401
Ni 5.317883599117092 0.36619363565220875 3.071365340841557 -0.0959653970537315 -0.5118783572772474 -0.20178223298024606
Ni 3.451055745628802 7.398807133133127 2.2192190554141282 1.1728706706067478 -0.8303372517166474 -0.3819268330860584
Ni 7.417957765303604 4.711726484991247 3.3866127034948477 -1.8630619740977075 -0.5845909544506255 0.7211952080716418
Ni 1.1340529100192538 1.8568937542699313 3.2170480671649715 -1.5048363412833308 -0.1480055534794225 1.1087476148745938
Ni 4.974104124290396 3.090138551794074 11.66133993116981 -0.19301477120026114 2.8245745951103163 -0.6328163651159167
Ni 6.407102596059869 1.9096674914871603 1.5947006320106727 -0.7340226988536132 1.01615679072005 -1.4383596977173356
Ni 4.258830342483722 0.8284460967481316 0.053759691905129935 -0.06995560325353113 2.2855515590974766 1.5642576206644414
Ni 9.180347110405263 5.801131862782398 4.902709076512075 -0.6658735526812015 0.3533099406803141 -1.4363632361125973
Ni 8.0002488117951 8.66738042046665 3.4844747636465847 -0.3070822771713421 -0.4302769422546719 -0.45184489823343477
Ni 0.12643144849481655 7.333079926953873 11.308898406414908 -0.8386493711267685 -0.7260011141007174 2.4267395754344334
Ni 9.284161242949839 3.7309345465903134 13.11038486208008 3.4138585841612366 -1.5621148632898259 1.9948186698184354
Ni 8.80961696490362 2.379375186518062 11.147830872962425 4.6528572567453095 0.7841016177878755 0.11188849604189116
Ni 5.9818374143238575 9.20103538457483 12.570116173567333 1.232333087638439 -0.9934259247814375 -1.0227215884217613
Ni 7.60240957189739 4.774965506844701 0.5601182488646275 -2.149874702386736 -0.6452383929293534 1.331403091759423
Ni 4.951673189188529 8.554247245503351 7.616000463360855 -0.5629569211206177 -0.769572570933765 -0.9111303119053148
Ni 6.975983540510822 1.710976188077565 10.80120070305984 -5.013444704923643 -1.0359044056606224 -1.066974901813182
Ni 1.2920852313559605 0.033352852816610046 11.101866560040555 0.15300017848053651 0.5364730158974761 -1.1021946442474244
Ni 6.45577595461286 0.9251414127890446 8.211154584102914 0.590900441608421 0.464650020417903 0.4907436321811613
Ni 2.6969308759784707 7.8520387611677265 8.539222153411643 -0.32840674968073114 -0.5397231474036576 -1.0067223847800275
Ni 8.759536430945403 1.2397774462596676 13.587216965040096 3.3442050855291563 -2.5730993657803167 -0.78929344640146
Ni 2.8816249776751444 2.40770507547098 4.471296122492432 2.015550245938832 0.49230480602069404 1.1639599983806792
P 5.836478990676615 8.51411944884833 9.818334345816499 -2.5151698404533844 -0.6859592676874832 -1.4899905345197502
P 4.681020240221554 1.1971335081515906 11.358000440919161 -0.9099833427850651 -3.3057051296817455 -0.7699394673548805
P 1.0303319678988656 0.7880648221393206 8.886929604617832 -0.9902146169329915 0.4613219844859346 1.4918517560982048
P 1.295067324929952 4.327138923412963 11.062175826474972 0.9950601179507508 -0.5958636991509674 0.5079013749073704
P 5.7087428762431776 4.6932375048325 12.8848444655579 1.25535294557238 2.8992494582163877 -0.2946805610728796
P 2.3552481856959875 5.335822755773134 3.038658297664564 0.9808231484157623 -0.14960555097669073 1.1066853330289264
P 4.106687655955648 3.4283172821271175 8.784702504997165 -4.981608791359968 0.576584282096065 -0.2344720099037833
P 3.721186828220329 6.646760409942171 6.809682432835982 0.004404813935914994 -0.02903392533850484 -0.3309423716183913
Ni 0.1781856824714373 8.621940769632955 7.232025162869482 -0.08699070435894696 1.5415223838504548 0.0826347413830964
Ni 7.076955365117687 7.005086909984494 13.553677731375112 -1.5904864724539833 0.7516388692734797 1.306107550417428
Ni 6.436597365315127 3.4949670735058254 7.033750420656003 -0.8519255194103843 -0.3178225464069817 1.4375022348130468
Ni 1.9467106851015847 6.17339965028313 12.37885214696546 0.6929326136815227 -0.5254028741262434 -1.5198572401721955
Ni 8.4136135763624 3.538496320643681 5.195150878558267 2.1035218261538096 -0.3532502910869723 0.4765406012079018
Ni 9.109298731004918 7.7548970629949565 0.7995682481009925 0.6795775325308554 2.177441299151095 -0.8518532714115523
Ni 0.4051668029515507 4.251682636948561 2.6914960104398715 0.2752710461980163 -1.124537787829315 0.530124705081945
Ni 8.574786414994216 2.023546189843957 7.264323100084292 -1.171007392145764 -1.224603065984033 0.8033519813770551
Ni 3.646606531743288 5.201619225901102 10.581306714339167 -0.6140524542448521 -0.8702744542312174 -0.20014058361176498
Ni 0.2083551503978115 4.865089966076174 9.354350406639178 0.03174386807050017 -1.032174249194229 -0.5075712452614612
Ni 2.411544520947494 3.47887308724869 12.885867696415477 1.063972110431116 0.7598134346644722 -0.6260870168118831
Ni 6.115109039954017 1.3937187079745548 5.464186973665594 0.14640607020278656 -0.857209393517143 0.23255550960736077
Ni 3.4631145865186292 8.450964298376643 12.49193593100394 -2.875332285279158 1.2020573194730328 1.1266998284776402
Ni 4.4562169799546965 4.792513263719158 4.284723301844144 -0.02430463818363556 0.9553507151762709 -1.0763805113977978
Ni 0.37252499307148923 7.117726175699601 9.240285327434007 0.27137813890151324 0.496083556336836 -2.863104375754398
Ni 8.495490683053301 6.17325986464685 2.187167140919172 -0.829714530530984 1.0364510221927117 0.6901095424104308
Ni 2.8587001333250854 9.192126380022529 3.498346158286854 2.299288449067595 1.3122712560259786 0.16661982614650014
Ni 8.38565644910623 4.6789700508894345 11.443369392804358 -1.9979513019101462 1.667635251021844 -2.374363375825563
Ni 5.106369293339334 7.835161975347418 4.929128561769155 -0.8326252764198756 0.5606676108658086 0.26141691392374333
Ni 5.44605770854421 6.401371384972355 8.660762036540872 -4.0603210793056785 1.2350255468689375 -0.5180366635691595
Ni 1.5853741343580146 5.500946868390489 0.9732975644877964 -0.07121312980971607 -1.087467622449895 0.06430200451217957
Ni 8.335026091645307 4.783827916184907 7.265537371311452 1.4200395592519093 0.29051511684128034 0.023195721390172955
Ni 6.892680620329856 6.686133364161277 11.33773245556268 -0.1241760551599926 0.027682810627249095 -0.888734460708618
Ni 7.116617209651773 0.053311445964789345 1.1216725621659802 0.7216469508970798 -3.8730632651938524 0.007736963632941513
P 8.356049851341947 2.7317747755820765 1.4223943334012077 1.013319578381571 1.7927698134403642 1.4125345091241155
P 1.124323829734107 4.202822897547196 6.063200109873246 0.44921980190576183 1.6828243000574565 0.643350174767705
P 0.3340867388069819 0.2649301250176377 1.9862728158817902 -2.709755555685191 -0.3805086125822931 1.8069725873033071
P 7.7827050855724265 2.8509932852448014 8.952712725051597 -0.9476392054646261 0.904188847590475 1.981353288342149
P 5.162740180930189 8.222880735178395 0.9673557430416184 0.3308909495551656 0.10317734142113845 0.08498627233440849
P 3.5807488589701717 1.7325684093617462 2.44074946798353 -0.32701603998079165 -0.942626325631067 -0.23344511130116571
P 8.203702145880662 8.754168662512217 12.333719092627343 -0.787464106502205 0.4914681690520116 0.6417712603163592
P 8.07262981426132 6.943050044603054 7.261636420154974 0.6855972563623741 -0.1740271743541648 0.808890137586465
Ni 2.1533790888216076 0.1389581053140642 1.0812167352178195 1.5311029882893439 1.2401104175910127 -0.47305778486562394
Ni 3.8645043815778717 4.329515279229737 6.402765513718195 -0.4046204180288322 0.7910433392130313 1.180720762778786
Ni 1.1063567159508088 6.588618904291758 6.594017425564924 0.5795305092085825 -0.9293905436670832 1.547937286237863
Ni 4.59018753376626 7.25924515387033 11.21598755350024 3.100824460281834 -1.3941266960408891 -1.5954458733417878
Ni 2.551451304779784 7.2275417715618335 4.821473119939582 0.8495948143946788 -0.968517848685848 0.32984990988516094
Ni 4.391142106744753 2.162176264864882 7.179336228938263 0.20803181343438365 -0.4571614253503417 0.10304441538769994
Ni 7.186044075671259 2.6621335715869585 13.222678391321452 -2.9843210911757505 1.040746307133956 -2.703512660099273
Ni 7.7610103548216385 8.891671133400477 10.158227779954588 2.5422137319450537 -0.06097859656590143 -0.011537054105322065
Ni 4.84540814848783 3.2198037080081874 0.31907935289587025 0.25641868937820356 -1.4118621656474395 -0.1995605427385789
Ni 0.9207176633528767 9.197074791546871 4.371824663714982 -1.0837737185380754 -1.5426032756194594 1.6142066988890587
Ni 1.4249747762469522 2.5043435453531386 1.158222778436454 0.1940334422727626 0.4965188441020416 -1.4035279347501313
Ni 2.5332325768511805 5.3721856592909925 8.385260389803435 0.33670524224409754 0.41226405061701904 -0.3155504625433533
Ni 7.280464613457762 8.672981164960301 6.02121875568114 -0.5078666650146931 -1.5471109336818258 0.490615334133413
Ni 7.732792294377745 2.027012873623722 3.5549220648109223 0.33195050116793157 -0.6549918727716912 -0.3763143719952874
Ni 4.101450354116325 6.372631458153013 0.054059765071012816 0.8459628740690464 -0.6573467461571132 -0.5196585154432986
Ni 6.3811863390934 5.949901055954895 6.157325234015075 -0.5317154466078327 -0.14422423206011936 0.7721848117456315
Ni 3.7009551871292814 3.7991872132650415 1.9359434634909922 -3.9171348015917697 2.185150494869895 1.3904214792751604
Ni 0.97855536822044 2.146231383286447 6.032934655809959 2.287451604333667 -1.3689676802767583 -1.9053262820835573
Ni 2.4015358693897855 0.6383441547358731 7.410674001749129 0.6738730259469105 0.2560883026219783 -2.3652868674455907
Ni 2.2556928555367683 2.4024677736316575 10.5320686218156 0.5749040661801648 -0.9155888618973007 1.450646999725121
Ni 3.75891031193132 0.5914162528279091 9.273646567388793 1.029521127842098 0.48472673656312 1.849576280906447
Ni 1.1960152230613441 7.143763580217512 2.837450852801913 -0.7091084521104367 0.996044079130575 0.5432265325712257
Ni 5.55231343020249 5.367889580735961 1.8221234751014337 0.18486720239246227 0.2640713208274549 -0.03829683869766953
Ni 5.803042266478236 3.9585987528797193 9.462729006160444 3.1185589014471193 0.4406814254174475 1.6220038263359742
P 8.585950627811847 0.8076739511967979 5.232427048233159 -0.28315122027704137 1.0973673980621101 0.579151528602609
P 1.605931941933718 1.4415253955826044 12.760276825546828 0.5965776944988564 0.5413807376117385 -0.15828302414603065
P 2.600031472908588 7.423875357239492 10.587881298765577 -1.6594079780160456 -0.20139733883700156 0.240413829309515
P 4.150934469359746 0.5732748729513808 5.884606253343869 -0.7163075409620374 -1.8761522316227623 -1.8671482283519392
P 6.3936924940193265 3.412586738524313 4.992606151108529 -2.5013673873526536 1.723637734529393 -1.913027507382557
P 1.9449680241692837 7.541034358527679 0.397632357156013 1.4712937294411952 -1.107200582102448 0.19187628672044374
P 6.900965249040101 6.76676171916807 4.273702602279762 0.9160920267859641 0.30785797899510203 -1.6869002698990432
P 8.99638921305967 5.918887282785383 13.13980507899599 0.9675138329013659 0.4860169161294533 -0.6285799584370658
