# total energy = -381177.383020787 ev
CRYSTAL
PRIMVEC
9.18486743136009 0.00000000000000 0.00000000000000
0.00000000000000 9.18486743136009 0.00000000000000
0.00000000000000 0.00000000000000 13.44298190643139
PRIMCOORD
 96 1
Ni 6.95426725848164 8.311735554076712 4.262406728199604 -0.3699028120419887 1.9147118370635152 0.9038286360375789
Ni 6.09064172950267 3.6832971633689104 8.23647475043038 0.15487811222953973 0.007064620156265251 -1.016888783790068
Ni 2.4834044532457047 4.237025265568866 0.730080312140237 -0.421111730815636 -1.0596701406216524 0.44317539548389484
Ni 0.5434438061488446 4.698298492310683 6.51772245029694 -1.1942738188728723 -0.509350191538755 0.7059966459543325
Ni 8.22086966068238 1.0208704592236864 6.0395821330235 0.7451008110446459 0.4991992191476822 0.7713936833029037
Ni 4.70870494709849 2.780397141298445 5.2817203523954595 0.41402757027534504 0.38781903020077724 -0.9287182001904071
Ni 0.32692708946398746 7.12043987985941 3.3833699101752135 1.6316778590906285 1.7214978053682546 -1.781911016348989
Ni 9.057473309709248 3.06470552744301 -0.10988040592894821 0.33554104673266727 0.5263539251856032 2.419152507115795
Ni 3.4445916439687974 7.399099572540161 8.473568325598137 -1.1200237020090453 0.8894320009962747 0.0032177356063492974
Ni 4.782468617355226 8.430404041153917 11.892670125500631 0.36737464630349637 -0.466845485407325 0.96109944473459
Ni 3.6244129783339294 0.3384825711661416 10.215940430791001 -0.5211518121593733 1.3420052927553014 -0.6902342409137532
Ni 4.14701356484467 5.11014794746098 9.003195335685819 -0.6842543691812344 -2.4308026897602137 -0.5807011324779161
Ni 8.315363576707943 4.773329674271494 8.688951629643263 0.12736627996251612 0.642466743721487 -0.08528837695585956
Ni 7.971261703653734 1.537262075357942 11.991502972895796 0.3607039191515401 0.08585941896798117 -1.5707092898270563
Ni 0.05587338549443107 2.99177768012157 4.756638014707608 -0.11222196812190995 -1.7870285400812127 1.2521323817525531
Ni 2.2171627013179243 7.76373880914736 10.898790317679813 -0.40532052941965035 0.8017802660145611 1.0966258919103953
Ni 0.9554099091153866 3.751375400692149 11.406612452510426 1.386335739241561 -0.7044827804129674 -1.0096272171316483
Ni 7.2122977389351925 4.807635154088317 0.7242901717181419 -0.18815307223258565 -0.9972987774732823 0.4967810966244928
Ni 2.1137502790267293 1.5079439785506326 4.2855691268614695 -1.1586835804730884 -0.32922924558202654 0.4848342086752618
Ni 1.8590722751817816 7.637437697243441 -0.04980402510274247 0.4165094561569343 0.37608451537266846 0.3504719570108867
Ni 7.089450137181509 1.7328630119520707 4.1779573831854675 -1.279010694200636 0.503141748735198 -0.9094644941671176
Ni 7.091718799434455 3.8103973587384425 5.632340725858236 -0.06447452553430186 -0.1377062284359435 1.1345224098458526
Ni 3.1515760035092795 4.9916356031299305 11.928603163824425 -0.9881556775214336 -0.12841194761821112 -0.001271924733888132
Ni 4.087027195719188 8.341742515940584 1.3484524297347797 -0.6305982744186752 -0.36483593904204265 -0.31817787286387134
P 7.095392746402789 -0.13893397855453743 10.446917802743222 0.9775784162262195 1.466638490057371 0.7271460263384381
Ni 1.4453582919450545 1.3450595397095226 8.880057492121635 2.2314527203705437 2.7162144239366577 -1.258112253485072
P 5.040884862240454 2.0457087811731745 9.236000496254785 -0.6804290818978732 -0.00738215139668406 0.2377897614231066
Ni 2.5267111031349474 3.679843653218676 5.480461595160771 -0.200838381009738 -0.09509199330984269 0.13809060835855572
P 3.2880355787806437 2.842275593112619 3.287897805769331 1.2903274047650357 1.0503907722022554 -0.8058253826182121
P 8.261659656898313 6.380222229546796 7.017277285962061 -0.45904861507072553 -0.7291229475591507 0.1978870116908979
P 4.1850756554366155 6.729908501992873 13.167199068285552 -0.9280882799158919 0.1112356929492407 0.041076458325335706
Ni -0.3112935266269821 7.542126328017423 5.406202860550053 0.5114741798602933 1.0902716675575934 1.4368771996345382
Ni 6.436709164184938 -0.19609875640833807 2.2622925473902034 -1.297585886099662 0.2801348020482208 -0.5028316736939469
Ni 5.438378369611985 5.044549624341368 12.456858873206174 0.5065435753278953 0.44486820980528546 1.6845027162011441
Ni 1.517303358452465 1.86235127285102 6.711435896636087 -0.6394991764527309 0.12826102386264362 -1.1644541644082784
Ni 8.361967594001266 8.123895830453192 1.2542432445992622 1.4228415474770786 -0.7128995437217529 0.24579591955703475
Ni 1.3442145319068057 4.216313389534879 3.4049864956501517 1.575122331293087 -0.007917455074863784 -1.0086903071396758
Ni 1.892541932063309 6.015436035060863 5.148165032202563 -0.777918628905615 0.9791082226071847 -1.0788819376634127
Ni 6.060983792600791 1.7112877583805266 6.958692527605 0.34426865641365223 -0.3034711627813161 -0.5226592499428354
Ni 4.321902625404814 0.5097573863961855 3.6906900631559414 0.7589546862086026 -0.258444975779613 -0.2728688645144268
Ni 7.21314274673791 6.391868641436416 2.8156863204160403 0.46103736336598017 -0.1576947557427284 -1.0989977345766815
Ni 1.1182484236193924 1.0596122300047737 10.961206084238105 0.8006500090648598 0.21554483398197716 3.8927453170038118
Ni 5.793033655332734 3.8028290279836736 10.683271996083601 -1.5250719516039153 -0.5350023448892205 -1.8466560219358585
Ni 4.566936518457883 5.384408088647151 1.5036647488192652 1.1352055519558062 -0.7932598872483757 -1.123674154277439
Ni 4.972540263762011 7.008283463783578 3.1637927956657337 0.3022714860462601 0.7446547246461627 0.4724528042917734
Ni 0.22327586061985044 5.479352063176334 1.8557225540334028 -0.4375426226781497 -0.12768303987198656 -1.9910566316728417
Ni 7.722259947874863 4.193222632838897 11.701282287592438 0.9193100195026296 0.6958587861893822 0.44075547318849256
Ni 7.688689257451706 1.579163440531797 1.6395465959298587 -0.17718526036717225 0.4155105825787747 -1.2163346553276537
Ni 2.956122024793884 0.5204017292501927 12.646902046523955 -0.14558948783876216 -0.2070085143761919 -0.14506678256607275
Ni 6.686712070512681 6.403166028364044 5.262564392902563 -0.7885205727911775 -2.1718895160949305 1.1731619765949215
Ni 0.4397530823747979 0.6202770590976239 0.07179259770822445 0.8251176551889209 0.035002741327430045 0.2654054662578461
Ni 5.1534545973502235 0.9830012508475786 0.4783506507373781 -0.12972089623762173 0.8431259188408835 -0.12383512688080607
Ni 8.98113787657468 9.543352796271487 3.9484055026569593 0.8440008652466691 -0.5197806428434597 -0.6092532330839959
Ni 4.364740847055594 6.461701188437035 10.64423355408482 0.38388061437831955 1.371360091768335 1.3159613032830562
Ni 1.8618185505406117 8.947952950583199 2.491602865905543 -0.18079586053656604 -1.013052183652797 0.19341946283784756
Ni 4.297397399126022 0.4812218402931315 7.832244142805667 -0.7074763158236526 -1.0528052951810192 -0.06705694154949741
P 6.658872737360126 2.653471458409909 -0.1433656770850909 -0.6209440391583628 0.5931897518632301 0.36258416689338846
Ni 0.4693614209926056 8.752324459386806 9.42343608571179 -1.013883678415157 -1.5142985151374952 0.40208839563559784
P 1.8030170293124181 8.803245364367923 7.616968301709365 1.3638092760042704 0.4789430400018074 -0.8717086155745826
Ni 6.963975663345464 8.228043042138053 7.007207915808598 0.06462982016524353 0.7670775724260531 -0.7642496160589547
P 2.933490511468943 7.443315524304067 3.7853557362022743 -0.6826343170793083 0.7941710862087356 0.1036401399901699
P 2.116496554385559 5.978531237763943 9.871759567876971 1.7544480350420302 -2.01185119982069 -0.8956191036435929
P 1.9167073182475292 2.3919323586015966 12.888498962188148 0.1016112824855992 0.44046905229632527 0.08115018641776992
Ni 1.6301670093197007 3.922829320836899 8.735290204268123 -0.8631082755000813 0.864353203650776 -0.5857636346024879
Ni 5.577519926170233 1.5413677110950557 11.452816009584202 0.26897030079096906 -1.0290853258562598 -0.965036575005467
Ni 7.790558622016202 0.7003231786702118 8.376053506677861 0.34715112016776983 0.7785701464466849 1.4408343845100733
Ni 4.090122496040011 6.945385491685691 5.676554840648657 0.781451324649222 0.13534544151325076 -0.3217645617738652
Ni 4.146058338632903 2.8146291421759013 12.708551795139352 -0.6504286788810412 0.9598959113447921 0.3566678014089535
Ni 8.262908798867548 3.6667827717462473 2.7913004974137197 -1.6537304680152938 -0.5318540290682259 -0.8853768570902947
Ni 2.810183666344217 1.6309660927853136 1.3987827477407362 0.7500787238752115 0.5924397610710829 0.2743601043479727
Ni 3.656247728814548 5.043199448830505 3.6601476235214347 -0.27527387441149365 -0.6752521656826241 0.8691454828330968
Ni 6.865706766809938 9.023526039721839 13.008020723448748 0.7393320268816687 -0.4267553022546586 -0.2758968527074732
Ni 6.750794890507854 6.9414084440924695 11.16522954425714 0.1666841037255323 -1.1874228573893097 1.0110150986181106
Ni 2.4803642621294077 6.327262283998254 1.9283822032261542 -0.7581535304635458 0.9610400522515641 -0.0008296949901469582
Ni 3.151171869342763 3.012085421989039 10.121005641129235 1.0967883856301883 -0.8841640677291158 0.9188392505137981
Ni 0.18673294709931135 5.902085586220323 10.62553408250274 -0.9700939349237162 0.7473207015141 0.06852786966806908
Ni 2.8649530307746636 5.504463490704901 7.169451250903734 0.1401114954433264 -1.0577677813926172 -0.37206459557999794
Ni 0.6514284554421322 1.8915040420447544 2.49640195913293 0.18985257142219564 0.6792877692045786 -0.9981058467556101
Ni 8.796678184162026 8.306950238150458 11.54326031756392 0.7271462834487541 -0.5800915239183752 1.2859873826287853
Ni 6.255987712812565 7.1355306170318435 0.7431356826922138 -0.8820701613145648 -1.0649110773056176 -0.4826130326542269
Ni 7.910788536554947 7.289955792978363 9.057907753938256 -1.2837165843167375 -0.7160002941342637 -0.28701944498319604
Ni 3.667232830249868 2.8128564627636803 7.584436419791505 0.04754869631324069 0.7602960307278455 0.23534747053020114
Ni 0.9145804179695431 6.8965036272720015 8.1722302767686 0.5426315792997043 -1.4858245760675186 -0.970978651521515
Ni 5.344757015991401 2.434100084930656 2.312569593165119 -0.22174633480699874 0.5160689983198273 0.5457379861391698
Ni 5.925056939639835 4.480947789664014 3.6009979958179916 0.6218194997847807 0.08099823422093792 0.05495141653521504
Ni 0.919772623522542 5.541891825444809 12.852136072069056 -0.7552985775132541 0.5123277861098403 1.0986719758061465
Ni 8.830313168657128 2.5413701515386027 9.971197698035171 -1.1955781395065925 0.45331145547663215 -0.915645940387481
Ni 3.1011970057059925 9.139007377804013 5.692040527120188 -0.3769000692954283 -0.1925470875352232 1.004461870880625
P 5.061100755433714 4.943947771480949 5.932696912360486 -0.11078934944044146 -1.0054208923597845 -0.3185802505086126
Ni 5.487113276146942 8.224561977385555 9.435574806495168 0.18263677040004675 -0.16140048672908977 -0.8200196718407233
P 5.422681431189774 -0.12386987749762389 5.7336204219343125 -0.9101697477642584 0.5806962473819095 -0.5267799569794283
Ni 8.594473327892315 5.3049957249266 4.299294074248425 0.20168427394980104 -0.4272569244814255 1.5588847863883024
P 8.739401350925691 2.887474325690554 7.820225743785502 0.36068077922308855 -1.7161848777957736 -1.417844094262487
P 6.3685482630549135 5.52971269124478 9.371129184236871 -0.19282348112506145 0.54590202252086 1.8610128048781625
P 8.08051570162458 6.427212011271793 -0.4791093207863391 0.28635430059537137 0.5206555892492453 -0.08538633598630456
Ni 5.614828857633669 6.466192588605823 7.606173327029656 -0.3349820889054037 -0.7717011872409935 -0.5296770760215651
