# total energy = -340871.6667199366 ev
CRYSTAL
PRIMVEC
9.24346178127103 0.00000000000000 0.00000000000000

0.00000000000000 9.24346178127103 0.00000000000000

0.00000000000000 0.00000000000000 13.52874066032859

PRIMCOORD
 96 1
Ni 0.3948335389907268 0.6528240990377966 5.482521706252329 3.657010381227205 -0.17930667758554927 -1.0553378317948856
Ni 1.0178437769013597 7.5806368268357645 12.657192168915511 0.8297376704594356 -0.4733915140559589 0.6925127525352848
Ni 7.4824712643720455 7.196071849364901 4.625855245370142 -0.139408812949347 -1.6212283816225304 -0.9335035373941923
Ni 0.6738270925434522 8.674036659064662 7.494137437289697 -1.4156936235783877 -2.4489621342780596 0.2597138151897076
Ni 2.475509944871334 4.324091348448949 3.8562862260011994 0.47679616886213366 -1.2736771978028645 0.48190932171898293
Ni 2.049469555086467 7.7231525181790435 9.839453225164657 -0.8781931948576617 -0.7703873535255764 0.39876730168216484
Ni 3.8643030802690697 6.63996671104642 8.375629987405881 1.092930188226363 -0.39186080437031867 -0.7892690209214278
Ni 3.5477422499776394 2.5957488936969515 9.979664521524677 1.4196888607807099 0.15100140288295283 -0.25436797749676193
Ni 3.8272830164585994 -0.2517050061416716 8.840138891437947 0.07854411625349053 1.463011691938061 0.6475726974894846
Ni 9.465766877680945 5.322246552087812 5.026671152724949 -0.7924677303643836 -0.13915813039112163 0.5120200250614343
Ni 2.905109067382051 5.130611105666171 9.906285301409966 -0.6974886084833214 -1.3865892500132635 0.1428111537626766
Ni 2.525406150726245 5.737573769848624 5.735334079096745 0.6899447346977925 1.1940244218662275 -0.6004240648281401
Ni 5.104452109265764 5.3532121485335225 4.22083171428337 0.027132594550733916 0.903602893180018 0.45858864471517147
Ni 1.1661551186838808 0.6801727289494168 9.397401311151953 1.0364561643990344 0.12328182548049738 1.9111166635130892
Ni 6.8786328902190395 4.718888837939336 5.8201862837811325 0.8656608667186059 -1.004997688779437 1.5506017204439035
Ni 8.762931029517919 4.908777270113742 0.3538997935279835 1.445014226919376 1.0076423254911355 -2.0307660344473217
Ni 0.3631284656149682 2.336109300095877 0.3502356853396014 0.9201471706919443 0.610525157817884 0.3570457535736625
Ni 7.848826622440506 0.0466046091700401 9.177640784042142 -0.5155702043065379 -0.1106530809728933 0.09545374752463562
Ni 1.4747388415924307 3.0353771720714287 9.270582866341243 -1.496896517610964 1.3278901935101581 -1.081105427677293
Ni 4.605841302258424 1.10371553540305 11.4128318188022 0.1591785393771065 -0.8924059960229341 1.4367193339004352
Ni 2.589019653633525 0.6214813693577609 13.263157463588565 -1.1291282354134746 1.100448608090595 0.1416109628069884
Ni 7.1032674946440215 0.9523538512840856 11.63110414859029 0.5287507075525538 -0.20405020307881633 0.29178112803789746
Ni 8.057516255561351 6.850042863411104 7.079062566031263 0.7550049575322352 -0.9905516885574359 0.8859864656498354
Ni 8.306054451750098 2.3598834833968834 5.223230591154539 -0.7541415810906754 1.5963331610427476 -0.7566584339752582
P 5.5944480100380565 6.478557384140443 0.6190660528349954 0.24047270757190847 0.891172380726149 1.210728621994786
P 6.265588028286951 0.9445708565953425 7.421623405183141 -0.12070558011288889 -0.15422325225436018 -0.06459382472098553
P 2.5973757429430546 0.5600899946252715 11.185603499045078 -0.9850261307535164 -0.30383805920243157 -2.5937633218875717
P 2.267726170989795 0.8277603076866545 7.4526315215523296 0.7392731486192752 2.1207147929933283 -0.06395027759971568
P -0.17830360171905876 6.740415408531658 9.351971545954523 1.2778061323695735 1.4451993463469883 -0.7499612244607406
P 8.842323121420073 3.8295476645568676 6.873371511861757 -0.42944519038199586 0.4944550195944774 0.041202442380238714
P 6.567276128822814 2.4556734762228274 13.213723430814932 -0.6254208439827939 -0.13192947385316633 -0.8081710000322533
P 7.432325485053243 4.7977817829137095 3.8488184333538884 -0.492126885681933 -1.0951063699420753 -0.5624015628377799
Ni 7.02725850969683 2.906745160089779 7.8851312423211555 -0.38309359970064993 1.1390022999940772 -0.09206220534458338
Ni 2.681463513351007 2.1340749593454524 2.1768962196721406 -0.09710259598196826 0.6564363185277018 -0.23463347518231203
Ni 0.4696362521957784 0.8657047176596835 12.025237033189798 0.010234533243814632 -0.33840499854402367 -0.7293666881388406
Ni 8.412326530059456 3.185010328866409 11.983771788683583 -0.38125500383001437 -0.07384028301991799 -0.25480300815165147
Ni 3.4879832705682285 7.220853569983096 0.16614937402757624 -0.17483372941586017 2.883342557178144 -0.02108921657013142
Ni 2.777641731565225 8.154914610710147 6.750219023931754 1.3876649995759456 -1.1791981554866724 -1.5986687511544597
Ni 8.95759833135275 1.5786630806488897 7.730146121244962 0.2651838371653433 1.4278320587131343 -0.8717610660790729
Ni 2.0189938621069117 9.594435863509098 3.5377519166527063 -0.1941627687617753 -2.176356807837665 -0.6992210177933957
Ni 4.367729730783339 3.8980139848175805 5.996478508250465 -1.254583671506523 1.606963387063084 1.209243038588195
Ni 8.65900679046146 8.087132306609728 11.130392302755455 1.0876193175364108 0.8437054454934372 -1.0912538289652045
Ni 1.9837947602366817 3.00911649759314 11.71436000745194 -0.19083858948454877 -1.738382239828419 -0.009914688010550666
Ni 6.644033834161678 7.674836944262108 12.143276038148528 -2.0774721802546092 -0.35329528539229477 -0.32621539845636716
Ni 5.885996033170652 1.6121983594265143 9.633085549604159 0.3957053749273895 0.352032102409155 -1.2785216703793594
Ni 7.809504936685264 -0.3027122760839781 6.131536574754221 -1.041898161350212 1.5181132608978951 0.8430636981443803
Ni 1.7787378075346905 4.896899421924864 12.936857722128416 -1.4065754633272032 1.63643954214533 0.3173571767347889
Ni 7.205666562532259 0.7056088866507033 1.004873351548338 1.464677252565942 1.0276231394884365 0.2342907471309126
Ni 6.473436506399869 4.89883130540461 12.95221296058084 0.586347789240732 0.018983740191354403 -0.5657766499575998
Ni 4.322889698437622 2.2329060510462138 7.689045993472958 -0.4607511995841291 -0.8026467277799144 0.07908121970388315
Ni 8.612909647334662 4.722410596818684 8.945162178081688 -0.6548859433214463 -1.3546900873118217 -1.8838812248359038
Ni 3.8573242667417524 6.773192723455986 2.4548036664838597 0.8488394242858929 0.3361300864669179 0.9111177134998244
Ni 5.968290572023241 8.078998060379213 7.868139911161004 -0.2547734404652967 0.6896709122111154 1.1577973212133932
Ni 8.776796221956296 8.371941846217272 2.9174056443825673 0.5040148953687706 0.563783530786971 -0.778686360309575
Ni 4.827878493966616 0.5427788396928748 3.8399299206547255 -0.3563744385382508 0.3376876607620249 -1.556466663865113
Ni 8.035424382276203 7.379452884554894 0.3368354390209899 0.7247109345343842 0.7436959602773192 1.1442411797955132
P 8.313014778354164 6.127148703520555 11.980308263612477 0.31270219446128084 -1.1595101901394418 0.49655406821535125
P 2.939966161172134 4.7482090982156935 7.616586497789992 0.819871319188317 -0.4844081768814368 1.087679481350385
P 2.938810728468936 3.102586381551062 0.18478234397243173 0.10238955541252044 -0.16520083431178648 -0.23857163389445363
P 5.791962298053569 6.337816437429277 6.728031942991862 -1.365381762697713 1.2605985102420354 -3.1483605581895846
P 0.32301369085225173 7.652911453286219 5.2801730878066335 -0.077011481659048 -0.5674134142300744 0.41378588657818416
P 1.113753934728436 2.3110780060137914 3.938757314970837 1.065770082871803 1.054076705694275 1.2151668602717975
P 7.199575121320998 0.40893998577753304 3.80069697213109 -0.8668582294608168 0.009523108999086826 0.34656516575731283
P 8.718904421795253 2.036695091119908 10.048268569363612 -0.15277649250550462 -0.1609142911212906 0.23436068113689962
Ni 5.12602634869988 5.796796628483751 10.665869533530952 -0.7895546704826467 1.038320728411599 0.7790339734569809
Ni 6.3398684859101575 5.271379782762214 8.296838720509388 -0.5120696473524472 -1.7669795918501374 2.20197245152324
Ni 1.2325601470020877 6.131733460486846 7.791553209862215 -0.08342818381866923 0.17704230703140478 0.30496857326244897
Ni 5.869524184553859 2.2609044963101126 5.665336117244672 0.7178250060478283 -1.484017604765767 -0.19438439785427813
Ni 7.013559699567713 6.926477047593071 9.894569213799537 1.044892982312478 -1.6538783064470675 -0.9768888463583627
Ni 1.8305381664844722 8.07975602423251 1.427687773225875 -1.7504432847580111 1.374529490635252 0.6045213748259654
Ni 5.692622815963402 8.508393826734167 5.579752754745701 -2.2605344682278483 -0.5610987848659562 -0.3525200977891671
Ni 2.9856565919874036 1.3966500777794837 5.317999181470856 0.2726768031082788 0.8351261884648585 1.3746102232745163
Ni 4.021460414827276 5.32197849170067 13.07500033177663 1.6590935320994202 -2.335354341552217 -1.1801345512580128
Ni -0.31103601327781794 1.7766765155921846 2.505956058773688 -0.7330035135604795 -1.3172429982089573 0.5067346082927788
Ni 6.359372189940142 8.056564179013916 2.161406026679984 -0.7195831263895155 -0.877259884410115 0.3784262761319676
Ni 0.3333534270266318 4.176334614363963 2.6807064738438715 0.09411985920456048 -1.0187055252838326 0.46895276155831495
Ni 6.469942477905398 2.5522214329020687 3.0845930591506967 -0.17980135783378065 -0.9121487258675 2.602172114776557
Ni 1.547678997279927 6.924055260647167 3.4858424848557426 0.13022843200165957 -0.09881777890086207 1.8794573847365954
Ni 4.956445801716886 1.9416445752240112 1.3342345274988792 -0.03294688723966584 0.41002796219764875 -0.6466962084218024
Ni 8.024886836023034 5.911618908796775 2.2749388440962393 -0.447670455140771 1.8840169790828196 0.1463407641824899
Ni 4.263509700954861 7.901902579094618 11.554559042868817 0.04042854032869166 1.7947899291941865 -0.2759431325643764
Ni 2.8823054475517313 4.727901213024282 1.5905603401071813 -0.622310066267954 0.08805694083993222 0.46373342214090457
Ni 7.460823077244925 3.4441507755397014 1.3435010977785289 -0.266007104397587 -0.33994508933763395 -0.33754187921278
Ni 5.1933557231806455 4.362497931503257 2.129965316306717 0.16857952097603227 0.5134480157572126 -0.664040870347837
Ni 0.5639269555460521 4.7544946521210925 10.791713717486324 0.2897239883985526 1.3854006290218013 1.3874963352085654
Ni 4.635605248692809 3.3246790340290073 12.241791927807856 0.721623553858312 -0.9991625701548985 -0.3656167830721252
Ni 1.7052522876112848 3.399800646660142 6.460189701544243 -0.23729482406455904 -0.5455230419148862 -0.43637945560798397
Ni 5.375830899131332 9.249377441025986 13.461705170613818 -0.6424271487328033 -0.9616056949470472 -0.7064342477123834
P 5.725483322042358 8.488760714241423 10.113044899743391 -0.2149938465745136 2.3719941042624373 -0.06798639534230226
P 3.7469943087787625 -0.009099263624226478 1.2814719241938741 1.200608245731332 -0.43789383536998133 3.27852085595747
P 2.740483015830371 6.545544750541062 11.581400206737191 -1.3665390162306077 -1.8222742506573844 0.3036691377247351
P 5.591748919243385 3.9195974677133227 10.202888573705595 -0.17424520390224182 -2.401198493740536 -1.1333512723558867
P 0.058191288317711656 0.1469719641929738 0.7051873848005765 0.6955530820235053 -0.5027267726849665 -0.18890871945168755
P 3.4556126679554273 7.7049613856998915 4.5137828948907295 0.5036037759732811 0.21911969581742907 0.44985666415881237
P 4.372832121600663 2.8873338906760497 4.140849889529503 -0.17763031832439086 -0.12834587026696606 -1.706938676607157
P 1.0663811938973096 5.984346464866884 1.6450542437746585 -0.2814126403193799 -0.3360586097990341 -1.3796213033358629
