# total energy = -340870.6132150195 ev
CRYSTAL
PRIMVEC
9.22278354703255 0.00000000000000 0.00000000000000

0.00000000000000 9.22278354703255 0.00000000000000

0.00000000000000 0.00000000000000 13.49847597433062

PRIMCOORD
 96 1
Ni 6.161972223927771 4.828994102324023 4.434073590704475 0.38374331746950685 1.7623837449493387 -0.07040091832106585
Ni 4.3096222724744155 7.936380432048048 13.093345938308603 0.304612732584927 -1.0415731739106255 -1.339673045077699
Ni 5.374245062666188 3.875229169766093 13.43886645468321 -0.9615517017806602 0.6283398174018017 0.12828750622520488
Ni 6.155294928675949 6.069790502875336 12.509185898949326 0.1081017753059493 0.48146014999670633 -0.2426018380997693
Ni 3.2185300936462755 6.908058517700435 1.9696028871640137 0.1631570644088803 0.45619931854738854 0.29188242950245213
Ni 8.480672222906527 4.200369179169049 3.422201433002098 -0.05842369135453164 0.09630066890596319 -0.18199733704383497
Ni 1.373051115898179 1.2913925908158121 5.4631434727936945 0.9838151411645507 1.4347946060738967 -0.05812595760845473
Ni 1.6291493680426525 4.124096759648925 2.079872331210749 -0.4375662768272336 -1.1942923308156335 -0.5062458415818184
Ni 0.5461381921145768 1.6823094921193142 9.403146095615861 1.98129878095513 -2.78886891417859 -1.064767866859534
Ni 5.346659717226686 8.923780856019507 10.943187696345626 -0.024651222889776902 0.20675988870049553 1.2177526187211027
Ni 1.6277382821676127 2.0956562028875014 12.219076788102996 -0.6556446758643418 1.3395614592004994 -1.5627301282763215
Ni 8.230983805292462 1.8689786300984321 4.406185737966272 -0.26839540212410556 0.023072051328115104 0.61833488367029
Ni 3.8018065903465397 -0.035605477968487266 1.3804081302937294 -0.43308201580363476 0.9836349068329447 1.8419521887022858
Ni 4.0079542470713045 4.679234543899867 2.0700316212194587 0.6736531966266205 -0.24332303253650997 -1.3962941360058534
Ni 4.027884682208304 4.819835878311509 11.314287602749141 1.1248625181585854 -0.3667529535590974 -0.583986230987091
Ni 3.5491392136629476 1.1676320590696765 3.80778479860929 -0.42275055197063965 -1.5789933842127193 -0.41069362080610555
Ni 1.6772000700619807 6.039844124860603 0.46163167148833867 1.3528707747148958 -1.2730915005027235 0.33435448262373385
Ni 4.4328294372107315 8.97963403287729 5.525614919088919 -0.8275882282166004 -0.42454363931532046 0.9274357339335576
Ni 9.326724267003085 3.581658748273341 8.225336694957255 -0.013454325732692958 0.3927043833175366 -0.8439005922233788
Ni 3.4187936144999598 3.3258095112832864 3.762645729339962 -1.455487358536558 2.1917456315889092 0.7059580794069132
Ni 3.0405949316388092 0.5381826190700716 10.967902911560866 -0.8313849762548714 -0.8623536567222438 -1.3398653635941635
Ni 8.059034229774543 5.2640420226606315 10.560951278869494 0.35095043930920206 1.536086300436548 -0.22372299891739533
Ni 5.0846773292111305 3.8916918383082235 8.269045310506199 0.13447023799714905 1.9522525143214509 0.365970309756802
Ni 0.626729641146342 6.301559052154745 2.6462139528538366 -3.8337498123062104 0.2525604919743779 -0.13142168097881238
P 6.085377006985253 5.503640715128987 6.511867106515004 -0.893721629510564 0.908255561460681 -0.3382484183615013
P 6.485267676631328 4.31975811153761 2.157974550976676 -0.5049399782862014 0.4909529199784899 1.004438216731541
P 1.942954576527805 8.447995900976684 5.982713592488486 1.5642481075827448 -0.23988032540354817 -0.43183194544661757
P 6.916829384806074 7.403773907880257 0.7896335106104109 -0.2654957119788073 -0.6511200485211109 -0.6750706457994374
P 3.541419743875965 7.606933382751997 10.903947519400974 -0.3791356434941664 -0.5118906985724216 0.4820790145276278
P 7.499340390476088 1.1489098085707827 2.307132783916828 1.609944324068279 2.2130932440267497 0.7543994627377525
P 4.110382480588898 5.764230462836495 0.10176972677590779 -0.4591206059592416 0.1116450125725174 -0.21968431007164746
P 2.2320519480245156 5.0413671379092575 7.635061950139472 0.92997187009185 -0.29077994046689276 -0.976883447041724
Ni 4.128828047582882 8.43096141985774 8.913394157245195 -0.7364469920243897 0.7346153381322896 -0.5540182238700909
Ni 8.908194351909591 3.1181862091990027 10.684448961285964 -0.02921853054548516 1.0315235029841072 0.6710723232733217
Ni 1.300633819879798 0.4471380672228158 13.622661773324666 0.47027225170068687 -1.184312336784786 2.91220370438421
Ni 7.1108675267992885 1.1884202130718964 10.383486478820373 0.9437648101108843 0.2985130474450924 0.8719482423892145
Ni 4.046487036521738 1.3905651817589668 12.87608851658336 0.6738802250357621 0.5518721240613657 0.5427781321798976
Ni 3.6550721049093977 6.882087159372905 6.9502306175187805 -2.012942890222972 0.22537956068421183 -0.6005505631036754
Ni 0.5171768073773226 0.8293145366062189 2.7601411528354793 0.015968607514114434 0.07819753154734921 -0.47354578024563604
Ni 6.275320233105803 7.6359298140665395 4.625793124926546 -0.5818090208301141 -1.4359143215006367 0.2752746457424421
Ni 4.031970375297472 4.612553819216614 6.156587040643878 0.22987873410614604 -0.6263472124518051 0.16681420154549334
Ni 1.9544461647650568 5.991018709027528 11.701113277293379 -0.1493515259843557 1.002778569640931 -1.92030012978457
Ni 8.348067041786775 0.2957718999134839 7.850443457701426 -0.5031800581723012 1.0916742043320748 -1.281799826909999
Ni 7.162856357371832 2.763007593946344 0.9014588382330889 -4.183320597659066 -0.2612518491007888 1.3698415982412795
Ni 8.805517103237579 4.639327559708382 0.7319477666717751 -0.18828574115570798 1.1932957712303192 0.36732759511564483
Ni 5.920565865894006 0.5619755559356115 3.2879592078116313 -2.189696462369364 -2.322544334271742 1.401184117108303
Ni 6.757505799895538 7.396072883660269 9.760680209773652 0.05678641286142478 -1.071840200325283 -0.3432366156047121
Ni 8.188946358113173 -0.08293219148330164 0.9117533091724314 4.277880115504207 -1.1687944436548452 -2.0586175094419517
Ni 3.6675689765478214 6.0244697447711175 9.209672387972663 0.5472719062851931 0.018866754997515892 0.37200366043507543
Ni 7.348529434733275 5.121337893611674 8.14502100715205 -1.3180176715914527 -0.5549787880111474 1.3210469453360798
Ni 4.666525548241012 1.9369044305537781 9.423960995690223 -1.0495883309056182 -1.6750156026463152 0.7355347646227656
Ni 8.441503061394801 4.891524574433628 6.00391953858312 -0.3480522918258006 -0.8783238068982552 -1.0367243304587566
Ni 3.206291459945767 2.644679281679937 7.583025161092745 -1.9189765258771403 0.552320524452694 -0.11661778319676046
Ni 8.046085441744767 7.136045725746077 6.926985513992962 -0.15536327939607436 1.7021587387200106 -1.0017352159780812
Ni 6.8236239347854735 0.22621182222247097 5.882852059618107 0.5275464028318075 0.9951120542346088 0.4083942832489676
Ni 4.644796670322099 2.3498361160646004 1.8000484685202636 0.7458708564414509 -0.3471251520258409 0.01684741057464195
P 2.0585898360130903 5.556791616422151 3.7074243131517224 2.537348947653585 -2.021995230233227 2.397600491976632
P 6.1526110986783245 2.0206565274899626 12.396973214419774 -0.15094766682688196 0.4388253460453152 -1.1888151097511461
P -0.29912161487959144 1.1389030884765465 11.655906881704523 0.9423332198706803 -1.4604817264273555 0.5092648309138004
P 0.5523460476864022 4.464435916254923 12.233641407801446 -0.5540300509446329 -0.5276484756273105 0.5722283191202145
P 1.2291295794276191 7.916735903199454 1.5595191971970623 -0.44616404579857355 2.569713737137536 -1.7017815578862496
P 4.172055233833283 8.14311834691662 3.563583937175936 2.133327339551016 0.6023035412390401 -1.1934011864599319
P 3.4181111285211823 2.6725689789748412 11.099229814887932 0.4579677233017209 1.6123328789051135 0.0769466898593836
P 8.47143099384254 2.503847377680869 6.649578942857039 0.7343379161011868 -1.4616006705231472 -0.7198011559375926
Ni 5.5167647360452055 6.329162843161242 2.5635086418445607 2.208377326608319 1.22452953243362 -1.0439488732316535
Ni 3.980617916786221 6.104892416864888 4.3337665973911905 -0.027586651369017005 0.3158831632924237 0.3976524713514313
Ni 7.550111813627029 8.397713285351085 11.981665739880127 -0.03267846406962759 0.25275409604242277 0.5122449965880468
Ni 6.556375337393137 3.2765875157598403 6.288562305650784 -1.3574226557516365 0.37287757839959657 -1.8851768037188759
Ni 1.188844461112758 8.264231939799119 7.906908105105059 0.4479501911647188 0.20783203871875172 1.2160160956459702
Ni 0.25886877630696986 5.941981169174021 8.131495795153711 1.6036127254232964 -1.0970804629493105 -1.0202484442909203
Ni 6.971096242902375 2.533683082293639 8.342881070626417 1.8755701338670474 -1.4800732754060382 1.148605884522112
Ni 2.8759221323000173 3.8873386844976436 -0.33260954175716934 -0.558910776075702 -0.03890696147784267 1.0295224133936787
Ni 6.234186618709218 0.4709457605419509 0.26743028622722753 -2.9107129787712966 -0.637357961740012 0.22156378648254746
Ni 6.199195378121631 3.304707782642169 10.416193235935754 -0.5343315440744411 1.403545161141312 1.167734120711131
Ni 5.7372261527573025 2.6928498798847267 4.023680015212026 0.48491571264547456 -0.28303063553877705 -0.33820188139428203
Ni 1.123381143851109 6.322706894713347 5.745491611327307 0.9551375707242001 0.5135757995843284 -0.2889413445962572
Ni -0.14655464115895114 2.3842002073743926 0.5970617911932181 5.264007449741703 -1.9044027418280234 -0.9280165461376919
Ni 1.8240636744680812 4.396464001882093 9.641191671343323 0.4574535026694638 -0.4392655189065274 1.0278162293358493
Ni 7.47492768255955 3.7685584558398837 12.343438645333134 0.44599281032803195 1.1092353531442898 0.44684358836410143
Ni 5.153018154923841 1.4155312566853242 7.202287445934872 0.3255317421257813 -1.1726215307104193 -0.34921700155786306
Ni 9.014837397485309 6.95838724724352 13.29424398666688 -1.8633851617650812 0.43236596357321666 0.06930074327835162
Ni 1.7520429581400707 3.766723121923982 5.5818360850082325 -0.4696757557672685 0.706993205539647 0.5172900152111221
Ni 2.073733646515151 8.428886293570915 3.656305191062945 -0.7337948991135232 -0.7177003075445059 0.6930727388038128
Ni 8.769649698217776 8.686865993548777 9.94084451855234 0.5233146241386472 0.1531107359164718 0.44821501479033127
Ni 7.891935838376043 8.018952012696618 2.8777131968551335 0.011746341902650738 -0.6528681415604691 0.8584928882152569
Ni 5.784409913127914 7.5776510451490475 7.366833893139755 0.3612723900605004 0.18903804594070023 -0.39922752914803505
Ni 1.1330650665229507 8.380208442273792 11.843157977322301 -0.026953131550076163 -0.5416049378074027 -1.5960927628971675
Ni 9.142904969124539 8.84631869742827 5.192242653136549 -1.1038164961215635 -1.3889019573068404 -0.22567729443028875
P 2.5525160061944963 0.8730249967118626 8.798603704728233 -0.352261959031774 -0.261938076534536 -0.38411895564137066
P 0.49302325967705035 6.820986218705333 9.880614208646884 0.3707844433159937 0.5515376235400824 3.004066649233794
P 5.887889543964163 5.376043505448102 10.001979583518853 -0.7324340142102547 0.5086387672940272 -0.07248711142613322
P 4.149726874987065 2.3968169751982775 5.563626621271771 -0.03195932651541593 -0.45883341373612585 0.47173032430345213
P 8.339849541690956 6.841608362604608 4.738869061991417 -0.10996839620104286 -0.826041709665087 -0.6576475652269835
P 2.727379981297464 1.9215669415982806 1.0406168070274526 -1.3646765091005724 0.606376168646517 -0.23257864953581234
P 1.048529032989522 2.754107607871747 3.724297395559469 -0.2827411293228163 -0.061663795558384124 0.007745448273373757
P 6.315734470389621 0.1220118919951058 8.724496794773204 -0.5609586597436662 -0.2816502102514827 -0.6883982161462789
