# total energy = -340856.19624152756 ev
CRYSTAL
PRIMVEC
9.36581009155169 0.00000000000000 0.00000000000000
0.00000000000000 9.36581009155169 0.00000000000000
0.00000000000000 0.00000000000000 13.70780977957515
PRIMCOORD
 96 1
Ni 3.8545927809032134 2.0052573932415725 12.636735843517132 0.9384662807161064 -1.3088115796121524 -0.2845851245100905
Ni 2.214517687010939 2.655047928148473 4.548991732459361 0.6503808563622412 0.6685305306880744 0.24658087735217535
Ni 9.096964464786147 6.593586464458518 10.438496870940266 -0.7434455348294099 0.5563491859961129 1.5471081054683484
Ni 1.304048561203856 2.1319674373003723 9.03999879836743 0.1469675991332114 0.8475955245764628 -0.19401698721253038
Ni 6.457819682089062 4.330282272938577 8.225740892798237 0.8658416152708444 -1.4075437407777436 0.8400043424927662
Ni 0.6735328633634797 4.143874555671795 0.4454847546497749 0.7125452457061278 0.697815909915753 -0.45805976879489496
Ni 5.827575592739906 2.3220278204835507 0.22073434765187344 1.1645742349259105 2.783179577103297 1.3386911407804043
Ni 1.1351174454755264 1.90842428321689 0.7592450105442403 0.7880744863926944 -1.4796199899187032 -0.5969870141221332
Ni 5.810230112542042 7.818840465778666 7.597813904853481 0.21721142305112268 -0.2985277027331117 -1.7052887997085597
Ni 0.743441142679297 1.1283553306251715 3.4030183765641024 -1.526744711320648 -0.6402964755430457 -0.1721510403773745
Ni 1.0201895904496168 0.713715934767861 5.992053265793244 -0.7275964836122953 -0.14777441130522292 -1.2249375665053164
Ni 5.265945427758756 4.534859661686922 4.924078375928119 -2.88006337220624 -0.5828904268197509 -1.2026576720611932
Ni 1.7396149230191071 6.039018120249068 6.8143170657863745 -0.303706932941206 0.4781665668470991 -0.1783186026406671
Ni 9.150340216215751 2.959773923676384 10.78814222801082 0.7206807303290684 1.7287614289092033 2.1150390827647896
Ni 5.577686415008157 6.363608998876153 0.5230102472727858 0.6128517490685316 4.468937248757465 0.11727752826794642
Ni 8.020317771403095 5.9514758937860925 13.002227214597816 -0.29820040130068 -1.6277672111823127 1.7950624661292827
Ni 4.683195361132799 7.4026332333203175 9.753572372822651 0.7668330605154148 -3.634482375328018 1.7221889178980083
Ni 2.8576865942181153 0.5458946675295135 4.188160788455596 0.3043921319336887 -2.381714416873995 -0.055723775924865326
Ni 7.299075471685448 0.8992039294885139 3.528198047262032 -0.4852949503617642 0.32613132338299317 -0.21616755516764058
Ni 0.1673351816971653 6.21176112066451 1.9583524799700172 1.2435130155146583 1.0664887062053827 1.6346122591286043
Ni 0.2844621289209465 8.83755025824164 10.376400613780518 1.139693412523831 0.16734230613482148 1.0905439473823735
Ni 3.1334441392859875 3.922054710636049 0.05199523102940587 -0.9061899371809039 0.6953944449584539 0.5916805143075552
Ni 8.14512655602336 9.242228178538234 5.6752800288082526 -0.5563602417397063 0.47148401262060086 1.238653373429512
Ni 2.843872024406102 4.9055022282907315 4.034249622291691 0.1077896433821692 1.9012896501203382 -0.990869734018487
P 6.143849632049656 9.208764139258014 11.314741453691719 -0.44142293156916235 -0.9774061523144134 -1.2114297618268683
P 2.8621072565579597 4.3786473159956865 6.002759323252303 2.2721052037845832 1.3454343730415086 0.9700401988676455
P 2.260541277557538 5.522943255312415 1.7081851376800192 0.44442726561312496 -0.6284766000899821 -0.3330545328653877
P 7.918951609318063 1.4368651134100674 0.530153550591852 -0.6527200460183791 -0.5279130421426069 -0.05290121887440567
P 5.98483690915585 2.9023427764985765 3.3301889010961716 0.187230046197684 -0.28566653049972734 0.49003426481896256
P 3.612318006735645 7.7900218682793 0.1443336888149119 1.7458050146550514 -0.1898541140840924 0.11266316942438663
P 2.3681450691305703 8.350565599295573 6.294571739894245 -0.5593625189011399 0.006493063923511398 -1.1199864210132067
P 6.799793504154178 2.0571065176343226 8.69457554846383 -1.66644740136133 1.0630768523103562 -1.1464006493406773
Ni 8.22576618048535 7.936137870745212 0.8635033347702544 -3.5233438700782735 0.3981908603534045 -0.30489915347709423
Ni 8.66388940844208 6.892468194520194 6.254654657495058 -0.8542078876866579 0.5758510034744664 0.8769690926425735
Ni 9.050116682955847 0.9804598242512705 12.480645253356442 1.4283776468039595 -0.542767076436304 -0.21867000987452015
Ni 8.785298404017082 3.188992758645344 8.452770001379367 -1.26922121891404 1.0182378416187947 -1.3775713627853694
Ni 8.408970790717753 1.2205149014388743 9.685390212297582 -0.3658481823566409 -2.34792600756964 -0.3411311392259351
Ni 5.959474295561997 0.8972492849327396 7.027473536533231 -0.3324711495580919 -1.7956162817502237 -0.239785965917529
Ni 8.68833417265181 5.586115644045996 8.453085629177783 0.0324123548924345 -0.46152921540073416 -0.6142044064416842
Ni 2.3451332738572703 7.766476221833604 3.3166178423452513 -0.5311680587447949 -0.8479163982509913 0.1713794523186726
Ni 6.708814025405773 7.284905001091838 4.630936950841211 0.1530066062384397 -0.8859337580350292 0.3462103535210554
Ni 6.252586686637775 6.894875207700999 11.838571209343181 -3.8814782287304253 -1.3888430790444468 -0.9567187991683909
Ni 8.726565409243431 2.574558156647156 2.121722177695381 -1.2404662582685346 0.9082997844350552 0.41528355416963314
Ni 1.7611469203057641 3.4869379077028158 2.5798507759019143 0.9623009212418587 -0.7087058173553794 -3.027906431965869
Ni 4.530364072866742 4.210250051439754 2.2825556140613603 -1.1009733702458135 -0.5457693535977376 1.5118695939810285
Ni 7.421992362677221 5.1038794507912435 10.59630140433865 0.43118916965629606 0.8642439317664213 -1.5170537092851293
Ni 1.9187360400731794 2.8056501536245246 6.743488127343424 -2.0570239397025865 -0.6649664674858999 2.490427086291066
Ni 4.691249957768956 5.757444407145088 7.958343269773891 -0.6444272098819676 -0.3383407209649915 -0.3389924956163775
Ni 9.300314932418985 4.6455448047637855 6.241028340464889 -0.9069291293397737 -1.8034599461643586 -0.5624786959326185
Ni 8.68145030227091 8.22113947032458 3.546416420955814 0.7920293572753843 -0.0683743748093403 -1.0537933701259015
Ni 1.0603970129601075 7.154832631227944 8.841262865342307 -0.02725420773026274 -1.1305497983513497 -1.008997039746817
Ni 2.761565285756628 3.5454180256053323 11.149452701488737 -1.42714300306591 -4.111150503252719 1.3843829863905641
Ni 7.4619750057467025 4.443477453106709 4.1284771639626765 -0.9306755810270938 -1.8557330445364622 2.581227137093774
Ni 4.674372768073194 2.214929782652789 9.920835437782491 1.14298288190838 1.2778195021060121 0.09192156600166104
Ni 2.3893586288757973 9.381169970511943 13.134644783296237 -1.7005649118703294 0.2824976458534425 0.8024464388436503
Ni 4.654610908884484 2.7642532732386944 7.13425688314658 0.2500798916443693 1.7427896248674952 0.00849415351394021
P 0.4843678516203206 7.909108142963877 12.851428307110883 1.2673944501179464 -0.4187568574302143 0.551892692886656
P 9.363281273331639 2.5364486755860827 5.015166498073012 -0.33109715202870077 0.20199640587358111 0.3944643034314368
P 0.6036835886509273 6.726103310743384 4.593404403678728 0.29666391005149556 -1.066795438812524 -0.7383503796946898
P 2.5901522303671576 7.5825129809877945 10.277539805881734 -1.102176132304663 0.1773444116528559 0.2146853141951593
P 7.416775606483803 3.736021625770949 12.016786652566187 0.9523175847769019 1.8480063653161658 2.522046255858244
P 1.7706438516883956 2.0617425936051337 12.271436471542307 -2.5839116259044728 0.24305075271172982 1.841092668915468
P 2.4765543203672182 0.5996712756289161 2.0980903657972982 -1.132337743489708 -1.7398338846732813 -0.46194521989223025
P 6.70133074318218 5.0352280631830695 6.222372583442144 2.425703163750119 1.1083110415578075 1.0867266305188124
Ni 7.488395955875305 2.3795057967115683 6.2380537591955365 0.7723791871446246 1.400842417498168 -0.4345022931899291
Ni 1.3523386777806294 -0.09477356839643723 8.201821550531863 0.584660117125664 1.349552251864624 -0.4229868363511618
Ni 6.456442908012882 5.4724147101355936 2.6266217580898688 1.0127081700498173 1.3433844324910154 -2.375494146995896
Ni 4.555764149700762 6.5750234289551885 3.052605959651106 -0.7557235808658146 1.2309554905646218 0.4397321741303008
Ni 0.8554721526592026 8.29562575758895 1.3963458094251768 3.298313465203364 2.4293734135128546 -0.23125196030458883
Ni 3.1543954563500374 3.9305963293943926 8.572576506856176 -0.5256324736385464 -0.02156435643433706 -0.017018903155499723
Ni 3.824828236589601 2.0588953873523526 1.6381654052247019 0.5453795743584866 0.22263876471428107 -0.3527746370021344
Ni 3.3683011919002572 1.0612305700538494 6.40184866469681 0.6832544671618104 -1.6681227321812238 0.5286977428274314
Ni 7.086649534121871 7.926341233441236 9.612162689902865 1.1803646649909478 0.4549361355642487 0.05673036281250875
Ni 5.47253646566614 0.33697809898869 13.271778037350826 -0.5476295467349278 -3.1048706053267496 0.09620322409615044
Ni 0.13230236923490352 4.452599752087658 3.7263991925337545 2.1624396835359407 1.0807400739180741 0.6017083308572024
Ni 2.8953933454473804 5.381575718537819 10.489832748942712 0.8908157687176786 5.674644506278259 -2.2707682301407153
Ni 4.843556760672659 4.093861130047286 11.930441376626584 1.718933387075188 1.0215887603688987 -0.43203094883130105
Ni 4.708642267017029 9.103848335167049 1.9760491780444571 -0.2817702807691147 -0.6971106563186124 -0.30503105106926826
Ni 4.877292408444098 1.430421436101142 4.501836752059683 1.7909348171141544 0.04097901351552298 0.47940583857083885
Ni 0.5499219658475921 5.276444500815886 12.050467042058377 1.0585774217781059 -1.2924254249446452 -1.1618686630692894
Ni 2.634349487955558 1.1288142553172313 10.600811041873895 -0.012410972069843141 -1.5778063058831537 1.119857094524194
Ni 3.1975250115936453 7.709653852308529 8.09702469222843 1.0980927062639088 -0.10213475908923701 -0.5837010956465044
Ni 7.95739825954065 8.055064926659075 12.071755528283944 1.2438665421993351 2.8170669738793612 -0.8546028091322313
Ni 4.933056441434422 -0.003353896576055595 9.14767377009678 1.0523041871748844 2.8917906879454973 -0.49238939531470033
Ni 3.8477838370026483 8.746683169213739 11.476685675128683 1.7153947777943102 -0.22322214802157686 1.486237495235221
Ni 6.94163869724092 1.8735085433801537 11.788565276366706 -1.159560583761403 -2.7220040340352414 -0.46687016799767334
Ni 2.5932523134910737 6.112202559917592 12.720299473874247 0.49088632840661256 0.9338192688623981 1.2551773392264642
Ni 3.818347096040507 6.75354513416657 5.705354581434257 -0.9395178619090723 -1.5275929182535561 -0.6130258127525506
P 5.2270304870340665 4.491177523650833 0.39455347964114507 -0.13672123881485485 -2.889290804341779 -1.8119042202769697
P 8.339785551937181 4.692617366035094 1.445132313934179 -2.810879871232043 -0.9810108389465364 0.3359781342700859
P 6.609911071361799 7.993878089654407 2.552270338490106 -0.02904266708925321 -0.3249696989747242 -0.37144393127686354
P 1.1258827567740721 4.339919691471839 9.592985257260777 -0.6116698129452885 0.4069837760546862 -0.33189625089122843
P 5.077851864684407 8.287908330114305 5.473788674468762 1.0366885921248146 3.1127073277623487 0.36742658258735433
P 3.2051487809678685 1.2211798739518596 8.596098738776767 0.8092737461781289 0.8620667216094444 -1.6449406376378057
P 5.450311398436372 5.431130219470268 10.064794494195722 -1.4494660920431426 -0.5051973457126462 -0.43445884154650344
P 8.666380713913263 8.796509278637409 7.986868717418942 -1.35880976590715 -0.7141452432033959 -0.39385803730600555
