# total energy = -340856.1128440783 ev
CRYSTAL
PRIMVEC
9.40568633295942 0.00000000000000 0.00000000000000

0.00000000000000 9.40568633295942 0.00000000000000

0.00000000000000 0.00000000000000 13.76617268963110

PRIMCOORD
 96 1
Ni 4.977103498920314 2.5474548592286546 11.024763140620887 -0.2276058789115693 0.08567867041574277 0.08286922599140567
Ni 2.0076060946342125 6.023439059191215 12.927399896231007 -0.10167581717494747 -1.190148226740273 0.2773911778648126
Ni 4.21757552765872 5.150770088743154 11.92763094772104 0.19836086600352287 1.392444680352776 -2.8282666992499226
Ni 3.349223767172135 8.01482975083287 5.708652375470792 -0.6416673877486433 1.0430263614173843 0.6798570114444873
Ni 6.921738524508602 1.8506345977996481 3.302105982200432 -0.9483082065071926 3.0251198703596676 0.1580230856164246
Ni 4.860877434663335 1.0834409922927342 3.9051882344855144 -2.5881182077866525 2.218078613056483 1.1923192662496627
Ni 4.6159721776330525 2.1721961972831454 8.510592183114834 -0.8055423041601547 -0.24423500282781807 0.3463844172050744
Ni 2.3651256324242906 0.8238910818637213 7.900971097790061 2.0592492294886795 -0.3054115743371385 0.20242089500550947
Ni 5.176579291650102 1.789478826188507 1.480221745379525 0.1322475193142174 -1.8436650576283347 -0.6402759067177554
Ni 2.3893076516202676 2.8290422924021925 3.5859225630011373 1.7824640606389817 -0.3006984851321854 2.176290473376104
Ni 8.834253131756068 8.84761861183288 0.9362786855863243 0.8243679215070898 -0.6864531766047661 -0.24560720058499638
Ni 1.9899610273406874 3.9754261366822776 7.087803438752218 1.7039680240146073 0.2290027592590959 -0.056450883898876966
Ni 2.086294065304592 1.4065357186252954 11.744706340980812 0.02492633092803449 1.077316392948506 0.6270264979070169
Ni 2.109789469408657 8.733875648730214 3.726874295115908 -1.6498200772172942 0.6173655777784852 1.3533873093399982
Ni 7.4168914683254155 4.3032519231687 4.778417783830534 -3.903123317804027 1.6891949794704908 -0.15506374587778457
Ni 5.426046306482815 7.719707535231089 1.2146841751215898 0.2793930387861898 -0.394374829041424 1.8363878072406308
Ni 0.4296733782638629 9.013497293489921 7.282428719113525 -1.1667041367847197 0.9101890310379679 -1.0560631399966842
Ni 6.348236214724271 0.5643336468857558 8.821376747361164 1.3975580903199414 1.8514357027126889 0.7930511136716792
Ni 0.7029292546097867 2.6563821110017436 2.1918221020884063 -1.1728560153187284 -0.6161808134417647 0.03819579434343099
Ni 1.8082619815110923 9.19088853504423 10.168741294161531 -1.529004453889102 -2.0575019077802694 -1.2697063860805744
Ni 5.7686672373470165 6.795683518182471 5.217889065399122 0.14491303059702787 -1.0113789097154324 0.07273213755740378
Ni 7.417681545965424 3.107770396973795 9.014942947457413 -0.41880545127996255 0.46238899229786823 0.11371397928640417
Ni 3.757392925098478 8.83705602624086 2.307637137858856 1.472015180988252 1.1743850503687452 -1.1579873257370121
Ni 8.924801672712766 8.050383244633256 9.558527650606752 0.6732071102281373 0.011223122409329057 -0.6435170393628723
P 8.91542420358076 7.104246459350588 13.32467726954866 0.2466978625460138 0.05464725503123492 -0.12460774338077252
P 0.7044106501848029 3.9014598204795687 11.909377332530983 -3.363993066789361 -0.33842119649393976 1.2563842150503717
P 8.000232125865093 0.9771943610839597 7.396040943178141 -0.9658174190355494 -0.9039667042773399 -0.9026518421206583
P 7.849562438778217 6.6855429328907965 5.842996613036681 1.3420263758012243 -1.7870568222159868 1.1890459948150296
P 8.30619909764461 3.9548841180420546 2.7574330411588424 0.2299396692510685 -0.4737851499499518 -0.7154220530332905
P 5.411420464456465 5.962584269538173 2.6326017146061043 0.6850858639435943 1.1422583450375297 -1.839739754431999
P 3.483837947931694 0.9282264776385701 9.97623511489896 1.69830285530903 2.0081603812326643 -0.2873704005647115
P 1.9784202503848474 4.700623353348259 4.8978803447056904 -0.747230712903455 -1.110030081131443 2.442780173837064
Ni 0.10787005264526826 6.76788030980312 7.645553105304569 -0.96149128085637 -1.220204422695705 1.1092530937561025
Ni 7.537820375677684 1.3229473854496243 0.22384592564957706 -0.023899432325416903 1.9284811229334657 -1.1544937107614568
Ni 5.852415467187927 8.622230153648047 3.9688703734074444 1.1505486100707798 -0.5791080769591833 -1.6220616761571034
Ni 8.64616762500307 0.6157291379369337 3.1215619546350406 3.0106296471632925 -1.4000021809850598 -1.9744359923970254
Ni 7.003774919462828 5.284406078138893 7.359202632644122 0.6700467102222848 0.6484005927074188 -0.3910707043688555
Ni 1.1520084446220513 2.4597186184429387 9.578750816485115 1.658087459432409 1.1608237667445427 0.420181762802199
Ni 6.745250228828588 8.553267662498726 13.359024013810796 0.4522670733725179 -0.2700203393220382 -2.026485404794097
Ni 9.44566035688843 3.703028058916935 0.29949868138625685 -0.6010889521056486 1.3253507149177561 -1.3668151527101298
Ni 7.559622756267444 6.92348798214005 1.7911304646835726 -0.765505599953243 0.21428936430832127 1.6437335047035821
Ni 8.662994397598014 2.424917579537798 10.907860807526806 1.3294282274212395 -0.5907245781521892 0.8280258299746512
Ni 1.298878234487934 8.388903296318368 12.959832583353359 1.2369901267944763 0.4326464709281129 1.603026256792207
Ni 9.349872848723578 0.014669108182826183 11.567384701504311 -2.420742477310734 1.1642117093801692 -0.21958969347531215
Ni 4.038115035142484 3.160912523950563 5.706519165842769 -2.2989606334145307 -2.5548113661044063 -1.915872947251152
Ni 4.621634400719781 5.6530713540648065 0.23794410868063512 0.9545307903781368 -0.7545138768284296 2.8309182779401567
Ni 4.778784605591967 8.465089354462053 8.5933264799844 -1.8618638400245484 -0.768674741709844 0.7766649590041721
Ni 3.5527251935914905 6.765688784920716 3.626353845659958 0.15310662215141374 0.7189539774459489 0.16609583532223007
Ni 6.711417975601077 7.93612296879011 10.033020064137341 -0.956562733206501 -1.0191737231695028 0.916897296296079
Ni 0.5746723771464397 2.1061400631667127 7.3517834273769935 -0.4494062068849551 -0.2552915177522958 -1.6697700379766596
Ni 6.826863367904238 3.5310827096669697 1.1177896176921076 -0.07394749802174361 0.43149821625628265 0.14885221775043397
Ni 8.06016515827146 5.122402539192369 11.207977442495785 2.4062352848334947 -0.2745799336682626 -0.600375728088708
Ni 2.394527807456039 4.047050437023533 11.001222589223106 3.1544093354868257 -0.395400442092461 -1.1100686476788624
Ni 7.852271276401103 0.5865536399423784 5.135800939170848 -1.3676582174367156 1.3330015465947946 2.7979924737464135
Ni 7.31093641338855 5.608140391132413 -0.07751320046517624 0.3126949953724292 -0.34017905972531093 -0.3072010621373935
Ni 5.056064234490219 4.061271834543687 7.330638504251954 1.3099032700144344 1.5987245440930595 1.546620881419285
P 2.5184289116445293 1.1564385228178138 2.189427414384285 -0.1392378345891215 0.723840873224605 -0.18381947785423824
P 2.162536557565421 4.723385113929459 0.982678816701686 0.8843337605377608 -0.5392392657887035 -1.323606992753772
P 2.056035972829501 7.982765766609189 8.10238352130649 0.4284311472951847 -1.1601447383996473 0.15632204376491785
P 2.7327186601244784 1.0021288351751831 5.707826556223259 0.6304869456517915 -0.19534444777470228 -0.5130222410737035
P 6.865088076582748 0.18130494757820967 1.8334062024043656 -0.9480832349805801 -1.3893850675908457 1.179985170164342
P 6.091451576035288 2.7059971056570453 5.556027246224895 -0.9586134450879426 -0.8379040083203116 -1.7459083730021352
P 7.937383330739647 6.095119793649614 9.191975832367861 1.5767380125196395 1.3881185421735964 0.09966624294408642
P 0.025479063321658023 4.076791216758142 8.123487059412291 -0.061046730799675514 -0.4349653488692767 1.7910554018524187
Ni 8.950780177971144 0.9686257809643428 9.205150377015006 -0.19667216544719032 -1.3714109996109285 1.0092400089955587
Ni 2.331584955468688 7.062710949132993 1.6583692041035574 0.5161939539334659 0.34195286379628204 -0.5535507973153693
Ni 3.0826007807278066 2.0973645579509026 0.13868684288007957 0.040442424285762606 0.15838586827248205 0.37234895958963615
Ni 0.4888191547360775 1.4545705580005794 13.806369735858135 1.175726651998304 -0.655777087677148 -0.5140216288724954
Ni 3.7183969501523397 7.68377781398308 13.48484669968802 -0.5703462716061533 1.016162961367637 -0.6709756497944573
Ni 7.814846051048791 2.9065169295539874 6.666668542412163 0.25021513167065296 0.8590963261272107 0.08805025597171287
Ni 8.240679087641041 7.943656923428763 4.346586741154552 -0.11550449552792365 1.7695684356232362 -1.617076821348002
Ni 4.5955524329133075 4.797473704052646 4.0790128398363565 1.181886500952113 -2.1177659947776495 0.06555181775888066
Ni 0.840926660692097 7.275561627625784 5.532638126374783 1.0403729829549373 -0.16259887791256514 -1.1007730813095493
Ni 5.152698254412223 9.375493937906715 6.501556424179652 -0.21455213105140467 1.2922377344138714 -1.076880590962668
Ni 3.585428764476132 5.607086954279068 5.870487552634504 -0.32727906383419114 0.1434081639167272 1.647664721437188
Ni 6.151243523148796 5.324163913666468 9.769109677590375 -1.4006904653013361 -1.6422767176523974 0.2188139916515522
Ni 9.017363030514248 5.895220745041249 3.729958419617799 -0.4410205539244211 -0.9651715579214345 0.4624535269872164
Ni 4.203702140527617 6.474846156535649 9.914480201077481 -1.7329836945206671 0.6522557047874509 -0.0661835378056086
Ni -0.09478486201693549 3.443694479270305 4.716538714951336 3.427035744973143 -3.9910622450088558 -3.31424813415575
Ni 7.1740366508846805 3.319925054688483 12.185154873344601 -2.7655749766476565 -0.662223357523124 2.7835475019656766
Ni 5.064595191865074 0.026709327075385685 11.211749122658206 -0.2883417633390453 -0.5715744875862995 0.5489505795391965
Ni 1.6589184961770873 5.074950852360901 2.95866675663765 1.0116295922736578 -0.32338358543452694 0.05827482448149319
Ni 7.1693055907308185 8.394537302346523 7.21414908078164 0.6921265728404596 -1.4145078308004027 -0.30120010735895225
Ni -0.03797451742584152 4.872324154757269 6.2158540032977365 -0.28308797113927375 2.856365000148035 0.570121814300173
Ni 1.6732245448729572 5.326092079335536 9.18028832670745 -0.9997251275265879 0.8399344084867794 -0.2820101646940627
Ni 0.43217999363365206 6.916518368672832 11.293795863867242 0.053913462189003926 -0.40960398728635267 -0.05257828831734816
Ni 0.3180241209072202 6.045420147818597 1.4438922824684157 -1.9238191986814224 -0.6222851265672895 -2.821367658137244
Ni 4.1977295297966 3.753978661011298 2.062571984163334 -0.9655819059859756 0.787841544446282 -1.0187813728270905
P 2.8443735608928358 7.716377922319625 11.518114895532204 0.14231235974938716 -1.0695578320490096 -0.9608402775359324
P 4.922926746462581 3.6359372993195387 13.081099154839869 1.1602599238212727 -2.09545267599243 1.3134526779285896
P 6.9208073615757355 1.010923151763374 11.755953660527506 1.0804482537092681 0.7963310699745317 -0.058352986017596274
P 0.435171001842256 7.776038189826464 2.717524714652218 -0.3450710977102896 0.8118487059941567 0.7286213253323839
P 4.370201597473238 0.28256280283150126 13.637885679126304 0.2519123168674178 0.30132686274480364 -0.05869314296583441
P 4.779527654801021 6.944161680386942 7.059211093301479 0.20772688059945513 0.7995932856655713 1.4385008512808901
P 3.5597512411758534 4.4164869792170744 8.822106628609554 0.43663450904158346 -0.27552635674193193 1.187303043981994
P 6.517256395568967 6.36984107590403 11.875994671103381 -2.1937976290219314 1.1065868597778492 -0.831586036522084
