# total energy = -340855.7628179251 ev
CRYSTAL
PRIMVEC
9.41030648026145 0.00000000000000 0.00000000000000
0.00000000000000 9.41030648026145 0.00000000000000
0.00000000000000 0.00000000000000 13.77293474221984
PRIMCOORD
 96 1
Ni 9.770344761055986 3.4002918969484397 9.197896058862861 -0.27202759956005407 -0.9102363393361357 -1.1714205684237826
Ni 7.40891305350282 1.0558175615943595 3.6783786855537928 -1.4956999261997015 -2.2206769699112785 2.514186393494193
Ni 6.6365809733165975 5.764207925400917 4.468118891617423 0.3050454492469714 -1.2756880575853062 -1.2559653823453982
Ni 4.80891125716429 7.59636635772357 4.7042150108405565 2.5875656777172917 -0.7638960893742779 -0.6388018932753902
Ni 4.354911023121617 1.9898751682031628 8.352499536409512 -1.2128549243091693 -1.0530624054971478 2.104819461919311
Ni 8.825277095916144 7.21133425955609 3.133163410188722 -0.7136001693332032 -1.342499973003533 0.13295945777957746
Ni 2.177535499165521 0.06647816879202118 0.6743086821568125 -0.5958549574002189 -0.1008918878210714 0.4173489213390941
Ni 2.8127311836484825 9.227040718928226 7.597302683214029 -0.7099178353856096 -0.19108927204277412 -0.03898538012426189
Ni 8.95818826402929 0.9856919580274405 9.212371933254566 0.38208521304079357 -0.26350336413912684 -2.5030758854033275
Ni 4.1790606267374235 4.095431233433718 4.056873443839637 -0.8038826570695445 2.227372893874216 0.30717278000261933
Ni 1.1730229282645117 5.410540378587241 3.456786671641676 1.234456561739345 1.1027967966077976 0.29739616023182974
Ni 7.942637403677932 1.23592141648798 13.633318840765677 3.0607363340116964 2.671067395086374 -0.27330672338279377
Ni 4.121582475021543 7.499778972456412 0.9345168295629184 0.22791029752586556 -0.23968877821803233 -0.07198034699304377
Ni 5.00377047255079 9.128834760953943 6.794381460924394 1.4748752761448665 1.0679267242034898 -0.6532453223942298
Ni 6.446671579115847 3.107678418296622 3.834109846776141 -3.7983290096047555 -0.5384867038933951 0.15944490566461572
Ni 1.4338578020793074 7.246237086130125 5.9870947974787345 -2.4684276992018392 1.3849967087151631 0.3523208372941674
Ni 3.1791873369097483 2.6571223564098116 1.9627396085620505 -0.10949711299157917 -2.65005736849361 -2.2093111512764985
Ni 0.8936497507692501 6.483465877283675 11.38667687422034 -0.07072924819476206 -0.871243503012706 0.0497899269389336
Ni 6.750379809056633 7.107378604348931 6.329200841804178 1.7667656760671187 0.13142965139861235 0.877488198370837
Ni 7.921548906953098 8.073967640309698 8.622752244906241 -1.0637548522139872 -0.41743736728784236 0.08781371448087456
Ni 7.725767481535795 5.550735123882458 8.401875414283321 0.244712713795185 0.3311951110591457 -0.7668857681302212
Ni 3.7719143084435007 8.848040627186727 2.8349799711569723 1.28884413535129 2.517722431671909 -2.052874950531219
Ni 5.916278477419356 6.88021380696495 9.996396319188495 0.7907800582493155 0.044130671770627225 -0.9355190251623242
Ni 0.26725270280468283 8.441073104715104 10.14405531954937 0.16400295734894335 0.036526377060808066 0.9925201251377166
P 5.019175144187806 5.8262124345128905 2.6925399267459382 -1.275885261197777 -0.5013890277101494 0.4510342294066813
P 3.7265660417246353 5.854433943516807 12.698494294182275 1.298273656195306 0.33609743345676957 1.0479207133952084
P 1.627804217741438 4.949736492990772 9.759446685171545 0.10877514722389008 1.9292480830064773 -0.2495767267557057
P 8.123418800635001 4.113734279453264 4.087022183601808 1.689795589168967 0.8276154819101101 -1.7498966682259218
P 3.462484612189149 7.489804047633421 6.231701597843296 0.5706602033021463 -0.37917729536537925 2.047893181045912
P 6.6953671576271905 3.7987336817883364 0.8769379875681644 1.723790458057173 -0.16065846635674266 -2.184671241240631
P 7.693236052183829 7.044376602754658 13.474199969226085 -0.917309187022517 -1.0906539905976766 0.11014220277474579
P 3.4682625403413345 3.5423216519988294 7.19653749371489 -0.14271396606318001 0.3410822882658706 -2.126628587374602
Ni 2.729553485053743 7.5447790578371166 4.139015067695687 -3.378320282045311 -2.6133001063689187 -1.1695290078280245
Ni 6.003568479926971 1.5663549167092345 0.8788266360700271 -2.2288242816087616 1.9550560452085166 -0.03657137136613057
Ni 9.346871561094241 8.215338673909514 0.308757800374765 0.754652973509455 -0.03481299391412714 0.7323797639335515
Ni 2.5992489718235867 2.6915076161298233 5.381925518774267 0.5416080231311963 -0.4083210068088709 1.1348594814702972
Ni 2.8534495796004493 3.515916332137212 10.634055621896605 1.965269752516725 -1.0810306085752994 -1.8827951908605767
Ni 5.062933069118855 7.032086742548217 7.747082766645756 -1.5255784589266888 -0.6814953183788586 1.3403865262049561
Ni 4.602825546198708 1.6752603931021428 11.089691367197993 0.5010434714452726 0.7043215722447548 0.06157303561679073
Ni 3.71791797010923 4.994256652743201 8.608883335279709 0.011049315835626133 1.2517163772610571 1.3613821546200167
Ni 7.765337820102474 9.559177484614539 1.8168149276774754 1.9937676028461018 -2.4512704706962625 -0.8686680289760459
Ni 6.362694004473981 7.366105569521887 2.787352528219118 1.254629180032478 0.972538539809467 -1.0382006578939666
Ni 5.685998868604799 5.764330259384595 0.12068435695983154 0.10770068321278871 0.09432709011936014 1.1993237225919537
Ni 5.7841389544340265 3.7495271894303897 7.856205621117353 1.5348652835452534 1.1268520377847884 0.6575382933426288
Ni 7.567589640639882 3.893344902703769 10.020609037650342 -0.3584950844256794 0.7062385867618095 0.300051852687122
Ni 7.48479776460905 0.5085724831308747 6.263200716579145 -1.8483874028046683 0.17325147253040485 2.001092418642289
Ni 1.7029078734134162 7.078366629604324 8.995172650387142 1.5877631599855495 0.780548096108662 0.536586915767521
Ni 9.507232593083488 1.7693916883892993 11.135816925228536 -1.273672312706858 0.8438525125942627 0.924297445414892
Ni 5.040621232557238 2.270085862971298 6.251287268630175 0.08668448597243782 -0.6270617220203264 -2.9283803141440727
Ni 1.3746952055112425 5.4719332177808235 7.508522088166829 -1.6355522544443701 -1.951480669152433 0.5494642859508214
Ni 2.1202173226590664 4.436940664331068 12.469518953839858 -0.7589081492413834 0.4742860008457703 1.213530095999323
Ni 5.001709615441134 5.284771633059615 6.019310040534423 -0.7734233121384229 -0.07733441221610553 0.9766003685836663
Ni 8.068584945027858 2.627244633473021 2.236380027376023 0.016619353724235897 1.1290822126668876 -1.482604526468324
Ni 2.8642808423091886 4.708747955451155 1.055830736023371 -0.9449382615936951 1.464313184358304 -0.3448322422266061
Ni 7.39190862977155 4.970194499184342 12.48265856471754 0.2201756478857692 1.0391774199849393 -0.9030519057725546
Ni 4.026020813155995 -0.001865122735770709 12.942660692205594 0.5168616694244518 -1.0473252459030544 -0.777026713218965
P 0.2625484906169342 1.211285234236478 1.967394887156328 1.453454130156613 1.004094203128561 -1.4677402077619819
P 1.5624966910701528 8.509881265380871 12.300924844749067 -0.7462822329472567 0.9365448953236775 0.04394349546048561
P 0.17427040593345783 3.4855680938785816 12.361966679512559 -1.7477626526020544 0.7568816057296578 -0.46934048391503685
P 6.030594880013416 -0.056177647366316745 10.941605138924889 0.0015076948937780487 -0.09184726112029988 0.60560226659497
P 1.7788960978904518 7.138714924783423 2.089740163202252 0.23955353819174874 -0.279841439177518 -0.027421329435746326
P 3.5960168605271225 1.9095676130716428 13.566754097154437 -0.5896413723903393 0.9307498859084552 0.7481295705686406
P 8.889530668266511 6.891835535414379 6.953968024693894 -0.0744807448173943 0.235911056343155 0.8873152117635879
P 7.915291053172637 3.3251317794378408 7.522046580577776 -0.028901256415382482 0.4515371371850288 1.1451801466700149
Ni 4.725197171102654 9.212737053144314 9.134788661836497 2.2444655876904442 -0.788527514769713 0.3182403506706906
Ni 2.71653903125167 0.35894861078599943 9.993420780293183 -1.088989972631692 -0.9917238544886663 1.3244153475876803
Ni 2.1549695843301118 1.6672804532437495 11.890959198646685 1.5630026652114177 -0.8783670014313646 0.8544858239383929
Ni 2.5230725412178154 5.295960487412952 5.617442904151536 1.3683997235884302 -1.3648325750624624 -1.1190461685871245
Ni 6.54695721481266 8.996092978356659 13.165507099965733 -0.660465751402069 -0.49743184283461434 0.6115371440221662
Ni 6.863896335603566 1.6757967805690395 9.790270143905232 -1.2769412132661169 -0.6486962695709666 -0.0234389477492306
Ni 3.3353701928410624 0.1502863579180249 5.118270376120366 -0.8409420238156872 2.229742679657973 0.14686398367581158
Ni 4.887016800589603 3.951180646064247 1.7808543826599466 1.3418116886872566 0.17715440712923683 0.07975716272498522
Ni 0.996589092881237 2.301506876163722 0.09401648954862765 0.348073117761407 -0.4091543013434437 1.856470694033435
Ni 9.022846479556437 5.564502402199474 5.1287656908893124 1.0287171438835638 1.613227879915557 1.791848072957043
Ni 8.373027178870714 2.3302083107959146 5.188525841916112 -0.13664487705096465 1.4260117176749443 -0.904846278668816
Ni 9.263627990354445 5.1168164837758825 0.041078810688495844 1.648336293582916 0.648888845197747 -1.0737050214481638
Ni 0.4417574253684166 4.033972522095079 1.96177505215228 1.0217355703594082 -1.1198714927018971 -0.41893760598245267
Ni 0.15398178525575018 2.1172436658250424 6.892072675136587 2.467705476323834 -0.9067787198048383 2.4678142339875566
Ni 1.9042507899348595 6.658074113218213 -0.029200180873342634 -0.0981462067551342 0.9031753187242962 -0.3270165542014239
Ni 4.803434458818082 3.6257251979480514 12.969531822235831 -0.23546702682720091 0.13552876116865045 -0.27706696175617446
Ni 1.6730019195573145 2.411353383200308 3.3884311467155164 -3.0155049729777224 -0.7251390232107382 0.6672449791074315
Ni 7.084539790626854 2.7751746506592747 12.040684702301077 -0.29599079524387084 -1.1104707682132873 0.19965130268017228
Ni 7.960093522118168 5.450628284007943 1.8578448047725 -1.6263243080881993 -0.14394089649174563 0.10853449196799371
Ni 5.33842920036216 7.390224184919365 12.151970045191847 -1.4833853704984066 -0.8276915865636841 0.10211110494015319
Ni 8.842243878421668 8.85572884754558 4.911703798495863 0.8850153599858177 -2.004263103060787 0.029426018570600936
Ni 0.29852032800218703 8.993411041022176 7.353686788117263 0.3535498246052621 0.2611001540142729 -0.1268397180350848
Ni 8.589567740287563 9.265265383674446 12.053879833986736 0.3805227536496802 -1.1958617321852822 -1.144127022815152
Ni 0.8112775744054999 8.885597160175934 3.046325102390074 2.1230246720734276 1.365815507801022 -0.48756394890159893
P 5.3217259064368685 3.909605912226533 10.042603746885037 -0.7440960239292153 -1.2021825321969877 0.4805728622957465
P 5.81766787626829 9.042194069590467 1.6377669091660618 -3.68505674584146 -0.855819712258468 -0.9103127011000257
P 6.759978321622153 8.421659642536016 4.68826548246085 0.09823516692451469 1.5699950373688512 -0.2344828085370607
P 1.7907719046136739 1.5585443623667032 8.597823402124554 -1.5727679721282979 0.8258414207288229 -0.7703547005154281
P 3.6845019719522085 7.511061929874117 9.962541800751518 0.45282140321409114 -0.3438289977730724 -0.33547419805047385
P 4.349603610291271 2.0936332069751495 3.703335759254789 -0.16959562094537242 -2.1852780215866945 1.059788925587704
P 8.150125250302596 6.52009078993564 10.570010958349137 -0.23737092871813315 -0.07337594178898976 -0.8732659327593734
P 0.9272040804308931 0.8667550949729197 4.987290202888048 1.6996452282695373 1.4517242919496998 0.8365348958869271
