# total energy = -340870.38479531626 ev
CRYSTAL
PRIMVEC
9.30395938113902 0.00000000000000 0.00000000000000

0.00000000000000 9.30395938113902 0.00000000000000

0.00000000000000 0.00000000000000 13.61728501292590

PRIMCOORD
 96 1
Ni 4.277355719937174 2.744975018478524 5.046810829978115 0.36276902921068493 -1.9325077275943559 -0.2195624397818025
Ni 2.3789851722515265 6.274152852853912 12.110763760632192 -1.226664576498752 1.6790920867085342 0.5507513801933611
Ni 7.696123469527861 2.7688489779929375 6.945932207177719 -0.41158219405864604 0.6998889903946978 0.25475261452969034
Ni 4.462271910642148 4.632041255638056 1.1822103771967176 0.3862899951507605 0.12986590645591828 0.22631312824207472
Ni 1.842537488041846 4.86734768980759 4.1018253633546236 0.4066629023801578 -0.17394387061173913 -0.8464673245092906
Ni 3.855067616102338 2.9286723905177197 10.175257389873346 -0.33087783692904305 -1.4490524015444914 0.4481592218517314
Ni 3.8848868055971524 5.575044048538818 5.456840967460559 0.9981588114807325 0.9607446324983324 -0.4626257908990226
Ni 3.491282808224879 4.323894124259503 12.371984512586408 -0.16549445429280532 -1.920725647357763 0.16942644235735982
Ni 4.259827060652235 0.280197107303242 8.992106382393343 0.9339802199202947 0.42364221054697365 -0.6215652176821295
Ni 3.0271547995044945 7.668472102545461 9.341348171519057 -0.2378776931512226 0.5423150765005498 1.4708291310999506
Ni 1.0405641099187433 1.6919249952050097 0.25870123978098924 0.6832899483854361 0.31019536887902704 -0.6333840646939285
Ni 1.1702147824960423 8.899413827266981 12.31620820709422 0.6903262864069272 0.25173593919055354 0.12656178178334976
Ni 4.912360244807876 0.8216270617077661 11.145352381803736 1.473111242265908 0.3459460441160752 -0.8473852083378697
Ni 3.528638204737104 7.92815491003057 6.816227571636593 -0.07616121784361077 0.12061404884034711 0.39088018562460425
Ni 6.327064469283556 4.564103744969994 10.742158793600789 -0.5626267914747085 0.33099842166730736 1.5787061919896037
Ni 7.486272667950468 7.642048858188122 8.018333535359274 -0.5028586702771404 -0.9957928823517173 -0.41777186780912573
Ni 2.1706043962404924 5.846561492229046 8.495074921676576 -1.2886225062587873 -1.1708387277783836 -2.1289932309520365
Ni 8.652589091507874 3.5319411102817715 13.065880308516496 -2.0901312637795164 -1.221328251887503 2.2355739416277696
Ni 8.372660868627847 7.704366777450608 12.651574071348618 -0.5738031198065021 -0.9965834965738126 0.19739464543551166
Ni 6.168701778365853 0.524669802156175 6.87213971493428 0.49895753545052135 -0.03196652560426752 0.28939488719390805
Ni 0.9958027618190387 1.113739749661869 2.623247597624715 -0.0537540537930042 0.978946757328656 0.21551063830993208
Ni 0.7587871903296295 1.925919571115958 6.805646178746592 1.1430402175088767 1.555758839164811 -0.894591176599711
Ni 3.7536916757792484 2.4979269876966783 0.6088780768144181 0.5165852758346136 -0.14792250684731298 1.7299881022274528
Ni 7.9608676308617 6.409795275208016 10.167740721170425 -0.053038258672902204 1.7685253390707025 -0.8676843249065379
P 5.613627567676104 8.254174947187451 2.4936787998890866 -1.0653034276480298 0.663076963772671 0.6104559951428454
P 6.647464915034862 9.286867907554678 9.048373006539629 -0.5349599216870593 1.1500099639584904 0.5218179849884627
P 4.194159716048677 5.902189864768671 10.94978129693044 -0.20382266044904251 0.7754521696429935 1.5919679420955164
P 8.42718207001306 1.717873737639031 1.7435163798127156 -1.7577220778076115 -0.5888417593071795 -1.294412373467687
P 6.423006897386686 9.086879302814882 12.24411740900323 0.3810976523165437 -0.5516278692610436 0.7591590889099248
P 2.3551391246149556 3.2231520057128464 8.569752220447613 2.850122361672433 -0.5336268046979327 -0.9117491764362362
P 0.606530687887884 7.189308895627381 10.957747346866622 -0.16066489411464588 0.18330011501565852 -0.21024116238087662
P 4.962973783295174 6.102513412042573 7.426376569288762 -0.12159492469637767 0.7240252213212692 -0.20612714021250303
Ni 1.4254130816078279 1.2741772234991808 9.018442169533445 1.3166192485820292 -0.929913763160405 0.8918174705093157
Ni 2.703851518457594 3.0481631395604363 2.623574166595469 0.4491524390029361 -1.0642970978707025 -0.2396982912997291
Ni 4.6201787075550955 7.882444558084229 4.383567858294398 0.34533129335021173 0.4744819189066603 1.4153444677690852
Ni 8.386979661960925 1.6795414254023269 8.934791202036118 -1.0736024344320283 -1.1407907593530675 1.4278994216159602
Ni 5.457088452777427 3.9236005801643676 6.780522697500773 0.3319029357594478 1.2025067483056255 0.23439359125736406
Ni 9.377367519478565 4.323280062946973 5.598678896299717 -0.7412966068072072 -1.4065577227153905 0.6820691886044575
Ni 8.275304238714043 -0.0935792224458179 10.85612206043481 -0.6959850273546013 -0.32232711914555456 -1.3587007511331115
Ni 8.761119776517862 6.428766048181473 4.460478107292819 -0.4870651548883096 -0.6603729345779465 -0.7817850538395568
Ni 1.7422315030360436 0.44548845669732307 5.09609204149641 0.680984183070395 1.1353703596684446 0.4605509106478649
Ni 7.073949104505318 4.906173111886175 1.552138589387258 1.9173862985718846 -2.807811259609048 0.2687831244808274
Ni 4.243907986322865 2.078485895401753 7.40339113788566 -0.8695391187270896 -0.46173953163932735 0.32239473915869643
Ni 0.19577856316525385 7.377537295836302 6.4265684529993585 0.48242842744724657 0.5947280428846273 0.7824383711528395
Ni 5.02367281364281 2.1889424999828573 2.6824821847815596 0.2435911985962321 2.6416966552337406 0.5477925546753534
Ni 8.22711903359902 0.780096978666267 13.16468742568217 -0.8622783233996181 0.3116935506911084 0.7965138754092992
Ni 3.9000336513062193 0.40838519748160645 2.8714493193573736 -0.9664437397656387 -1.223059632756313 0.652132034725393
Ni 6.084928929001949 0.5924417023490391 4.124158587212144 0.49639003183366126 -0.03956876343155766 1.1770582263255343
Ni 0.4566085488296795 3.299751502471289 2.148997811602799 -1.782106934409879 2.2125481701565572 0.6985764422308613
Ni 9.15638918260139 5.078166103150183 11.504971807111199 1.1141075936349265 0.06671395638778188 -0.2237646507886082
Ni 5.946774437642041 2.660048478163807 9.19550767939732 0.49433289219431636 -0.9453563229677202 -0.9559644375008699
Ni 6.183764888441392 6.714453421856287 11.792664184011016 0.8165016313851357 0.310677193611452 1.111349571273815
Ni 2.661211473073901 8.939057997762271 0.9680881279135304 -1.2887209795098644 -0.6218616658766258 -0.6278862748041508
Ni 4.5440071929235675 4.929433010088058 9.174863124149255 -1.2855150709780572 -1.9877825889072605 -1.8005929090292085
Ni 0.12808760741813235 1.9308041497383537 11.221405736152397 0.18350631748919363 0.43391813855168493 -0.30616619311497595
Ni 5.9438157785907615 6.635044129395057 1.2170853381646938 -1.604226190637579 2.243437660646562 -1.4271154922620841
P 5.363192895716064 3.364507059065333 12.945231216543325 -0.062442582705937624 -0.04799863936646572 -0.12973066642963466
P 1.9725044952346906 8.765427509664852 3.171479676659398 0.37527898875223753 -2.64684966018959 -1.1025651402129657
P 1.381944983848148 2.583542020998171 4.256681392019412 -1.3492732871716246 0.5214361761690116 1.6215266295892397
P 4.146262933671358 4.217335878617034 3.5884133519281605 1.1560584841454153 1.9284045040592594 -0.762576599231906
P 8.882061943208377 5.819905648889688 2.392284251647436 0.2398330171053805 -0.5191278397508091 0.05004935124790735
P 1.63067703125981 5.7554385150333465 6.1647215445855466 1.378318525364039 -0.2521755978311334 -0.29872439212495006
P 7.089663491730511 4.177691708121744 5.282213094928242 0.5193281286870733 -0.564487498832531 -0.48502009943382274
P 9.069425075204189 5.846682443699696 7.967350629688529 0.0027415673008791496 0.5449301455258938 0.7787799484646458
Ni 5.498612023047429 6.966953572776654 9.578098580168964 0.6072043209747672 1.921568969194665 -1.5699803820808318
Ni 1.917862342378826 4.876614433251222 1.2476646611327462 1.702849851249764 -1.798254233593703 -1.8758305866172857
Ni 0.1502459168411747 5.948263071126961 0.2512738890871638 -0.5256391585067658 0.2434233055598001 0.1707328198736092
Ni 1.6107386465211553 6.688327904195931 2.307244203029493 -1.0901824502778965 2.5734562348991035 0.8796587236595946
Ni 0.4240605080778198 8.199262979512444 8.86033161591225 0.7345099229026769 -1.1313900348644579 0.7517962207869504
Ni 2.830673787413544 3.79446162534751 6.4774973957062745 -2.0441612248073056 0.12086858805331442 1.239904986448426
Ni 8.633683446249384 0.2628424320568526 7.212054284881038 -0.5901759047375706 -0.4522359630242663 -1.6391762243502026
Ni 6.719021665863137 6.204000999877031 6.165035088013307 0.16376821563031793 -0.262442012754148 -0.21347740992998718
Ni 3.883965713628358 6.4161870952338935 2.8001363322622552 0.5167626819527423 -1.1006242144365108 0.6466211322094929
Ni 7.5369234222748895 8.998621945077655 2.3260772774055942 0.7683171012601091 0.9013521494726283 -1.1463194024807808
Ni 0.28632097330183387 8.50077638792382 1.13217647537261 -0.21665837876113012 -0.05550111839109796 -0.2983217573698927
Ni 6.1032949446221565 5.786541650908906 3.864939116899217 -0.13295508690420327 -0.6455289275865786 -0.706301578789261
Ni 6.37130479566354 2.3074935491382176 0.9562572132921243 1.341592116477283 -0.039505514293790026 -1.00621947700168
Ni 3.261316846682497 1.52064840880562 12.464500292486436 -2.3713078768286904 -1.0273351759343727 -1.501666942416414
Ni 2.2638486761522034 7.355468304422355 4.708285341151974 -0.47995425487514115 -0.653163818424017 0.3881892690560024
Ni 6.768686200503798 2.3219146860233852 11.63037336148498 0.6990266423944026 -0.26548722733837504 0.2054198297328333
Ni 4.332928268721115 7.99359895961139 12.0893162736982 -1.6461223166507326 0.5434713015921802 0.6062023620728141
Ni 4.798275096107277 0.13928027043287872 0.590760476907007 2.1739669674492497 0.04366427365716996 -0.42306191256347137
Ni 2.009357477945755 4.42239514116484 10.310844918867694 -0.23256425135810918 0.21366407201949653 1.72779469412056
Ni 0.3609182580230586 3.6300141450601933 8.545976882901577 -1.330140937217548 1.8414698497492286 -0.7544380292851717
Ni 7.104131148412082 3.100795637211658 3.321881900016489 0.37631488621591963 0.1265394131858466 -0.23616996643149651
Ni 9.105403485742862 8.774368614533655 4.01946857659325 -0.7005137684628904 -0.43580044317606237 0.8277322099936325
Ni 7.101498127935629 4.997110009896259 8.42230400416216 -0.5022079240670189 0.28187003957177265 -1.1466266493085544
Ni 8.275118159528427 1.7964828896021168 4.958516256403765 0.8594315979794426 -0.49290130195411236 -0.5507526657449419
P 7.443753574037424 8.233492245706337 5.691439370328829 0.49202558421737846 0.6826713409648307 -0.6465236873996801
P 7.891953204469159 3.5571083201362095 9.77226755837865 0.17418246898510648 -0.6841350699945508 1.6412032820825606
P 7.422735930022202 5.4708955283500655 13.044909184297678 0.08581545310392318 0.3989431651383968 -0.09776516926663163
P 3.4262202209745705 6.675181409732226 0.7191188295402092 -0.36601504695180836 -0.04983414991330772 -1.319588101402366
P 2.7997381228050386 0.13515861647150496 10.790309574066473 -0.025971484363097205 -0.029843565723993767 -0.6401429806843169
P 4.342492738861728 0.4793716156059708 5.673328283192914 0.025812590187729738 0.2796231525191249 -0.2382366191525381
P 1.2437532766511172 3.403332481143917 12.321995269766848 2.7383143411594904 0.5388965377373042 0.007931339031934728
P 1.6877847333250744 -0.11927861877111501 7.2275509594590615 -0.5874533636000849 -0.4473400683845457 0.6931506432295998
