# total energy = -340885.8508471134 ev
CRYSTAL
PRIMVEC
9.15592206493112 0.00000000000000 0.00000000000000

0.00000000000000 9.15592206493112 0.00000000000000

0.00000000000000 0.00000000000000 13.40061743681751

PRIMCOORD
 96 1
Ni 6.999409346407164 2.2188919066004646 11.373666626295806 -3.0570442298720897 1.0042435842222317 -0.10155677509857994
Ni 4.962509700540354 0.5347589466195937 5.800658361525509 -0.5063111476021152 -0.7927760056334218 -0.28355025548767293
Ni 3.0221684076290747 1.9902410675753832 4.546414249256393 -0.025799734671923306 -1.8588548779948955 0.21515145519830042
Ni 3.7025724359985497 4.901155867508395 4.77765529860303 -0.3196176906341915 0.06686488014334936 -1.0099640316457767
Ni 3.8261132909605253 3.2232141419546565 2.5851535058584085 -1.559063992278644 -1.5249269413856188 -0.28800006372891046
Ni 5.392197117969059 4.653817791769655 2.5324886427633753 1.913393632472724 1.532905331605405 0.15500178229159758
Ni 5.755659751884836 3.0813614430792473 0.6670949802131916 -2.5258877410915206 -1.2369430756066244 -1.9790377528350949
Ni 5.823276235535187 8.081035030841912 12.600573902378756 -0.1526988451900338 -0.36405303812943113 -0.8247453594511667
Ni 1.964439679501356 7.204666804832835 0.11103935912227525 -0.48751844037564424 -2.92804247118868 -1.0003344789758128
Ni 0.3701647687880921 0.30987668507189653 0.3281262687160239 1.3936813809733548 0.5692808064561163 -0.03391465046957385
Ni 8.014151020948098 8.997716781226414 6.971296088039065 0.38918428597942006 -0.04031206935548541 -0.20114999871288586
Ni 9.108503436902684 2.715133720732543 1.5151274589506236 -0.17511912186676293 -0.9060348996602783 -0.47542525665653607
Ni 7.175129800600467 0.9402216257352193 4.740226805236167 -0.19876967140616733 -0.29746969378224253 -0.6578134013808864
Ni 1.201495014692082 7.7724346812907825 2.255015681088494 -0.6207656045989696 0.29051151729685454 0.8260954457211579
Ni 8.234460815070612 4.4522867935803685 3.4308393217983344 -0.4013684867504378 -1.5423975873665565 0.9763170330152928
Ni 8.130257267281221 4.080281684478976 12.775947347129899 -0.33694846860315525 0.7308946947475928 -1.3479057174001368
Ni 8.666281562315232 7.089531086227124 8.9238733550533 -0.4360462406382813 0.5042833185388089 1.152628375417944
Ni 6.967153033353651 0.7596979748834224 0.2972360192184537 0.8028382749654303 1.0715198408713869 -0.3151676252826378
Ni 2.0511645722753746 6.5403405754193535 9.135870487631308 0.4153601730438395 1.3078507583607797 1.1525350443731894
Ni 0.469259312125635 5.145911973255341 1.3076680012943624 -1.4577946665134958 -0.07780261010177568 -0.91709912789424
Ni 6.579820910896715 2.1495724214661642 6.770004975005045 0.029062721693911237 0.4714796417452267 0.6331680920283805
Ni 3.543524915688427 4.379369031117078 0.26661220704982397 1.1659975976359984 0.9752153153106817 -0.6774124065587366
Ni 6.401289588662701 5.957199905996078 4.51622259660412 -0.5351663812709105 0.38234900822514156 0.39494844215670694
Ni 5.348312784030517 3.033668245606711 9.376438674675253 1.5465262648229494 -0.623119963763759 0.4753733203726781
P 0.38228446268219773 5.757326129680957 12.549691697288695 -0.9932305209411797 0.5441618999013016 0.003887250869548144
P 4.01181370008665 6.362853028288405 12.537054693804034 1.0514194705770858 0.2138995850690703 -0.2655203945691556
P 2.7207371449700535 8.845893283340141 0.9365153085271405 -0.5654953712717551 2.519287976386816 2.962908172717613
P 6.642053712436518 8.003099823146343 5.427679062327923 -0.18107199701608814 0.013183588569809553 1.8632941447131717
P 4.997366295429574 1.2795950289828737 12.624306052090564 0.6718235996170494 1.004839823045334 -2.3317578824502103
P 4.408237653046605 6.519016433182161 8.11286742470883 0.0010019589019531132 -0.5734128263466188 0.44744059851815193
P 5.138120283670176 1.4666779823244624 3.283767747407597 -1.5573619219858728 -1.4482304198638285 1.1622805537957273
P 0.49527677995784064 6.018892508140435 3.466618833620791 0.7248677718272225 0.07136019691054162 0.290814393249254
Ni 1.0110701498362917 0.2497936940075314 4.579526641012858 0.12279511565206595 0.5287519931041346 1.3299563320105676
Ni 1.9191178658156094 7.160278895186673 4.719161775590351 1.12452416098256 -1.3191787817790894 -0.5283455016943353
Ni 6.265012846258932 5.91941341608071 9.162283491292046 0.018158416076581627 0.14510277801033075 -0.22522246628105727
Ni 8.918746954349734 2.404592315726589 9.990508964060513 1.2670234399317728 0.5034968180817715 0.38254106963128953
Ni 2.633169907376017 5.792155256804307 6.952869795101173 0.2319032207353425 -1.1013222689448001 -0.12456583439924356
Ni 0.5060230855584389 0.05596557296042972 9.151334839816204 0.1074047492389247 0.1717095819645817 -0.12265781874325325
Ni 1.5426171990334692 1.1774515636337441 11.327594942601806 -0.1352420831661671 -0.3960000233496728 0.37188564679997244
Ni 4.421248218147099 7.3269807662526105 1.1065572599228883 -0.39772060558520533 -0.01109688124410992 0.9273652857069383
Ni 5.9346488702166855 8.50093476769889 8.153981176663269 -0.3444038964399359 -1.522443512842133 -0.2911807754497372
Ni 5.182782870975038 2.9238246498919827 4.853663184726711 0.9548182397115684 0.9453918041913459 0.36324314063362606
Ni 0.6989850563884352 7.397710263368245 6.707464534487497 0.3709646776475998 -0.008335516448888872 1.1794976890049622
Ni 5.258218511976426 5.0552042544301505 6.608554940773479 -0.9732895590428785 -0.3628379347754074 1.3289541159982983
Ni 0.7489232859247583 7.63309986095347 11.452676739229096 -0.3508547942716022 -0.07561100176709558 -0.8660305913531988
Ni 5.116265097959493 0.4054516920092776 10.497480603133669 1.156313023358383 0.40360148984601457 0.4502328165513084
Ni 8.650020644920104 7.641395126246256 4.680232626614783 -1.0020339781654226 -0.5174450527317476 -0.5384455662428146
Ni 7.3988272858469655 6.479352979265665 7.100237105771113 -0.3406572849133101 -0.7203889101202625 -1.8814664447468241
Ni 2.438954490830146 5.607370439873854 2.2961422513336736 1.7575768104789988 0.07970522644112725 1.2116002259664618
Ni 2.251340494015068 5.510033833552001 11.629832841985214 0.6359721371360789 -0.6547908125044788 -1.2024103319370776
Ni 1.3752744134305614 3.409436438632314 3.51882773180238 -0.07645689470715865 0.2749100633141717 0.2355279619721234
Ni 1.7425092871925043 1.0499553503864667 2.558968484654395 -0.16742381010503424 1.041823856468851 -2.0664863706670666
Ni 1.4787637993073284 3.340272604171277 8.340168680837492 -1.6571834595609007 0.22780051142087862 -2.0649295677029085
Ni 3.6923269593289842 3.2377812137877924 7.786147505605356 0.17250868082710935 0.11004630062682984 -1.1652105829583288
Ni 4.25480271289595 7.19266339114758 5.8329805972171105 1.2564297235763264 0.350044639665481 -0.6585060565725368
Ni 8.285596639198873 7.555704852653346 0.009651257334574883 0.3062304706940081 -0.9261931197757082 0.2138831300088381
P 0.5672670475269156 5.477457063230004 7.937574552070904 -0.14466903290702182 0.04701133575253194 -1.697744925923031
P 8.749856817936141 1.8210304738933052 7.638565946361631 0.5140000316059405 -1.0147069456474007 0.1584771424347077
P 2.196240155679548 3.391765509255851 10.243418418309915 0.6140066886085813 -0.030239515610831796 2.0222829366769752
P 4.392077450793001 6.456106093417562 3.1933539336772165 -0.4533623633192257 0.41306777746523704 1.0961286405590025
P 7.305253763449322 4.238789005393652 10.251043470115468 -0.3813617046112077 -0.7412541836050459 0.46083630309876766
P 7.053044737229609 8.220498034086619 10.145688107343922 -1.1056178109963604 0.00404280261080594 -0.40700408776966035
P 2.790569361733931 8.793851022938163 5.959294780939776 -0.7384663364472637 0.6054973655859895 -1.5156732839978346
P 7.349815635612662 4.083843338120139 1.3268276835809873 0.903753045604637 2.7345075658188907 1.9937120670178181
Ni 2.906437554096178 1.7722568776298764 0.10243920162833142 -0.3400438196990273 0.08457952381429304 0.3736108570211953
Ni 1.6130537066464894 0.9073619374247593 7.241050607504435 -0.13601341411455287 0.8398652458117408 -0.6651217621168416
Ni 7.138057472597723 1.0546798061161324 9.076304806157498 0.3621151976767699 0.9805416126196016 0.06856643621548836
Ni 3.2162647971895084 1.4407941909528248 9.672726140378991 -0.2571617381918152 0.49332939063046655 -1.5869260087962347
Ni 6.848080268306553 2.5100136011362233 2.7486004466687337 1.210075304681503 -0.6365251814260715 0.13146976060792842
Ni 4.325751952138546 7.29820370354265 10.340961948467989 -0.4259693160182535 -0.3077103976736442 0.2524679322605717
Ni 7.4241525659792424 6.514722305784462 11.380809161014241 1.965295206438022 0.043214073493628796 -0.1507427499049275
Ni 7.893421034026834 3.6647310105514403 8.246753555889699 -0.20761452339130693 1.9166242235948796 -1.2795678522556866
Ni 3.400381231817121 8.811100779904619 12.316895972393809 0.4197971257692706 -0.3301345310051153 -1.251289574136284
Ni 0.27144744943516597 4.91043081645055 10.0156209112112 -0.05890757296948564 -0.0840259653036682 1.3069822397128974
Ni 8.75894864843916 2.897245008451635 5.528304475816629 -0.707061339773421 -1.0031395525247757 0.24849043567006238
Ni 4.047155558839576 3.1229201728407836 11.609222861660644 -0.07366827621842796 -0.5309058062223437 -0.2910625047043181
Ni 1.329595518788503 3.1991523790524052 12.351161094724624 -0.5386571680329885 1.4973657439378987 0.587693247525033
Ni 3.5557480715006435 8.542575900758036 7.972295639315164 -1.008442709905244 0.1396093589959273 0.996334356677484
Ni 6.017299377719966 8.187710677559616 3.358971743583479 -1.7917773676201076 0.6302311208872436 0.17270485599831548
Ni 3.390758357840612 8.797614106862374 3.590937026356892 1.1939948541798728 -0.30436924911555324 -0.37256364670360353
Ni 3.8594408468829737 4.883997669761509 9.75917360871772 -0.24130728765806186 0.20647372491864438 -0.41209127248458055
Ni 5.731680392280195 5.094126078668153 11.4291322859174 -1.9274328841746096 -1.2596029790979855 0.5256489286987786
Ni 8.218703473383103 -0.09013547370289578 2.4264493326216625 0.8953416816124903 0.6902290987074307 0.716275145062205
Ni 4.758964399520589 0.6970220267209152 1.200234244238642 -0.16606703896682365 -0.9128426666107312 2.2903019292982685
Ni 6.100032288520857 5.74482829621004 13.733890259812343 0.46513158804001187 -0.14148652141398216 0.13616768030423002
Ni 8.45629049223794 0.34606363542142726 11.192075394943856 -0.45666211711641996 -1.395863733336654 0.7173141278496807
Ni 0.7928085354554963 4.857637770448122 5.566254856735023 0.4248154049194684 1.3624676743747117 0.3057293626878735
Ni 7.661300100580157 6.483463988224231 2.519047749330915 0.07418043996815611 0.2503161760248915 -1.2389464791898985
P 8.854921022389464 1.7262849934852025 3.5809534090552884 0.6393562231169634 0.7148070451571109 -0.28116144354052225
P 2.031360313082997 3.4294879077175224 1.312298151027874 -0.5898696863510615 -0.18620983246328576 0.7577087296166434
P 4.761518901746512 1.3151566298627606 7.883060192740614 0.8690236125432518 0.2397412287225226 1.0055782438732552
P 8.56924710141795 1.9378325702951378 12.661198008430762 2.2217239231185544 -0.26601198949359345 0.6631882925395547
P 6.689380673030786 8.036189325097915 1.3517336224876477 -1.1235232305218714 -0.664654849782752 -1.6217845112363167
P 2.4569184097092243 3.410104820935154 5.937170411123566 -0.4161677565467994 1.102855931980507 0.6026516686070782
P 7.000471433354143 4.291673610615647 5.777514937595517 1.2342272193373582 -0.9689179123377443 -0.25633795673893917
P 2.307777596956269 8.581470257230167 10.280189516480284 1.2335533331987854 -0.4442724852028155 -0.8230214347815246
