# total energy = -340854.22148636595 ev
CRYSTAL
PRIMVEC
9.48497450364087 0.00000000000000 0.00000000000000
0.00000000000000 9.48497450364087 0.00000000000000
0.00000000000000 0.00000000000000 13.88221894198996
PRIMCOORD
 96 1
Ni 6.295319783390055 7.570697896034755 1.2124462560031974 0.2572365572938086 0.24358219973516762 0.6169868542828277
Ni 0.7455095028056845 0.889963765911195 3.9147021833818614 -0.2473943743924062 0.05881886991042129 0.5971369094364362
Ni 4.2476276302874245 3.2153209565719894 7.843647952819058 1.1688751762941094 2.20945050506784 -0.34783040562298156
Ni 1.7627730071239285 4.090433149568859 8.374601643729346 0.21532706154421624 -1.4421757290293165 1.226514938294765
Ni 2.4691380205839595 9.444985747170522 10.03964811412561 -0.4294498183676862 0.6927426091579038 1.2872875894974476
Ni 3.0254033141760526 5.789818072782681 7.689902208792055 1.7822609434892405 0.9398279369503234 -1.0934233258126975
Ni 8.331563572392804 1.2957992625262584 6.9778699231284795 -0.772357846988386 0.006728576973085186 -0.005970615761138104
Ni 1.2813157066186225 0.08515420316147627 12.392948039366557 -0.1512132617834428 -0.6794561764616428 -1.5706568393225657
Ni 8.990873627858218 4.595498551353867 2.8744243371813067 -0.6574004822131839 -1.2707746794440888 0.5231174205261766
Ni 6.415001190359636 6.892465316642863 4.519759133781074 -0.5464648370028654 0.69011159929296 -0.3635694136247932
Ni 3.712475889708034 8.19203011400562 6.814461835680972 0.34630497011739064 -0.6507081577946728 -0.7707722476688209
Ni 5.971977006120041 2.738663053112698 2.08452610268463 -0.24121549927520392 -0.7083715739444123 -0.8890118827397205
Ni 2.754389140666634 4.493497136664464 13.056948414672393 -0.06370190903433545 -0.7441335620353701 -1.861259630781646
Ni 4.4217622752830295 0.3986193280921236 8.191175517812248 -2.4786136385959057 -0.17724362440893346 1.7256424236642474
Ni 2.4225952512068996 5.9231483579127655 10.069648139652958 -1.2281789562607495 0.6663661760469041 -0.0498950850582302
Ni 6.184326612970175 1.6288072287090951 8.525084556563012 0.6659365447086532 1.4412143935573114 0.10314443130067398
Ni 9.01508876749947 6.585133176158763 5.393463756577096 -3.7308164685750778 -0.9666782243739481 1.3119897202298179
Ni 2.0388521569625406 1.273860516740822 1.885552206732301 -0.5816897216434305 0.27805297981852756 0.8816657267872944
Ni 1.1181931169005326 7.8021692112737515 4.797888935084801 2.803659956444836 2.0656199089017138 -1.0053707558481395
Ni 7.946245972398172 3.759843851857827 0.5668049971445267 2.7636137391562277 -1.704367059225239 1.235582704923988
Ni 3.8123337001832085 7.79845110130925 9.220305673601377 -1.5449866882499714 0.2866983141983514 1.2512844319299612
Ni 5.34898491762931 5.900261114687405 10.773684591897975 -1.8475656782343215 -3.378395872478253 -0.07042611513204645
Ni 6.898905614259945 4.602128548458934 4.596042040386943 1.4992932999779147 -0.7450784424471427 -1.3195029978877275
Ni 5.568524135074066 7.9232828493776175 10.789163121620092 1.647906662244665 3.728013451908644 0.0462780571309332
P 3.3179104396741446 4.600222068604688 5.703953445038702 2.1720396685195498 0.14576380863309737 -0.26947860788595523
P 3.3730276259081147 0.06653519841577267 12.02037729646706 1.834030619862364 -0.8826532875115444 -2.125479561371823
P 5.011481073581235 6.498279265584943 2.5743738115435013 -0.13798853556305268 0.798748678277089 -0.027535486416107417
P 3.9784156019138606 2.1908773266335224 3.418843846246193 0.27007099005431556 -0.305828350159583 -0.5123794652833821
P 6.114687930930971 7.851102194199418 6.466310159372313 -0.47189924578114856 0.017282441229531525 0.15254817854478242
P 1.0801393996107909 6.460794646759156 7.211465872632905 -1.4062553609836235 0.4411043718874791 0.4506940724584432
P 5.004557042269792 3.821761764736051 -0.04557530198833719 0.05721912952346919 -0.007333043326303499 1.511394454116823
P 6.058356667973899 2.819199970736625 6.546215377701251 0.5435669466297799 -1.0729529737734875 0.12418094025599903
Ni 3.3419738197250104 2.1955439340379472 9.986646077182668 -1.02182375919784 1.2913956981285502 -0.4015410077725601
Ni 7.36246476807389 4.960072512337367 10.617940363765053 1.2959655768874196 -2.855777760185998 0.24251056393754364
Ni 8.118312892974744 6.551689156427051 13.739162786317085 -0.44224645591172224 -2.6348217824907785 -0.04640661228899749
Ni 6.870820605063803 0.8651425364058298 0.08459838366168096 -2.091673925676288 0.9139325572408001 -1.100196382870473
Ni 7.4794619272884875 6.576985583149818 7.899538164466566 0.5632016901415721 0.10497942762688373 -0.5096366124309223
Ni 2.389094321628792 3.993259586848668 3.2916541335421745 -1.985847576668077 -1.236767469260709 0.5899830720004742
Ni 0.06415257284668416 8.231013358786486 13.795052049467152 1.8166358214246843 -0.7082754146861803 -0.0325985027613116
Ni 0.7772310511864952 2.3879466397264846 12.956177201162571 -0.34205879324652705 1.1001639869706408 1.0941337216161608
Ni 1.529044267977913 8.434115115597363 8.230795204375303 1.0812866904501635 -1.0811074845598219 -0.35394294627862266
Ni 4.912230301467612 0.3784087446422279 1.5931513129474808 0.7306962055835416 1.5908466840068796 0.594305353524912
Ni 4.458801100312053 6.084079918544632 13.591774820629889 0.3565585295245988 -0.034096170352760635 0.8435056707778054
Ni 7.101798701634039 2.735039792892189 12.297799518680604 0.6676782099901082 -1.108602347545981 1.0867024621490962
Ni 3.047123905550307 0.970255971195622 13.774950543222849 0.4936898592936788 0.8336745436199965 1.4088192650560576
Ni 1.0761082854911148 8.327665247914718 2.1909892493314334 0.1788071122413114 0.5802344772541426 0.50288592397065
Ni 1.4029699882632454 5.266522550202337 5.370044406287938 -0.16663679542736462 -0.6488986153897599 -0.20843753351323457
Ni 3.4355146372502925 8.238781552819463 1.338571754579621 -0.9034810228901731 -1.5919892822517552 -0.21703581670520686
Ni 6.0869538657876 2.197839297842563 4.406049466693252 -0.1459126755061358 -0.17254519049199962 0.14655879373056693
Ni 7.934275934706334 8.216710017392435 12.081986947677308 0.0649110988510882 1.5945192477624603 -2.0149609490942653
Ni 5.870193745841822 4.414904638792381 8.773993048737568 0.16769171905444022 1.260859991433538 1.1194382618192205
Ni 5.302129144097076 6.723537922592439 8.243997340241602 0.3804355932525125 -0.8998848208984825 -1.0407113401309627
Ni 5.035354754144117 0.7863356781123234 10.62095279163425 0.6642043925088947 -1.1916217259620059 -1.4851332064274487
Ni 4.70109477134058 3.642486263616059 11.811949726531012 0.034616561632604896 1.2719404176174158 -2.336650691766137
Ni 5.62820359399407 0.5502214679048996 6.342063634224378 1.2454953360520098 -0.3814650629582914 -0.9993029523875047
Ni 4.485852247298679 4.689855076677484 3.5473092880069084 1.9032717135473738 -1.0721513038077988 0.5631117015309269
P 7.42193555755711 1.2589785919084178 2.7328535062931647 -1.5510051265299096 1.0293810027198078 0.2092572012010525
P 7.398820674946168 2.6101985598494224 10.335339345529524 -0.41264585943647 -1.8771048253440188 -1.5781714025320561
P 9.081331828703746 9.101392549558135 5.68755866678962 -2.1894424373770294 -0.8190992169089829 -1.0855837751636206
P 8.740204724435163 7.220455731368504 1.6691838162292103 0.047096439267170505 0.33242666947340166 2.7788850634930014
P 8.090057154239414 6.772138931414133 10.174444776297815 0.4446021006280923 1.979071177176192 -1.207893466538836
P 3.7559929522517366 4.3933452919829135 9.939918350804824 0.6391114540960091 -0.9776218678696453 -0.6239290899286158
P 1.8574615065515188 7.207281101927961 13.337244584128905 1.482680374011582 -1.2337847324833011 0.09806650255713434
P 8.824289022484406 4.238389265222567 12.352412104276535 1.155181223746785 0.1005761563528655 0.44505718588764
Ni 5.106122148136828 9.355428618892919 4.035478156397115 -0.42751840567292826 -0.21807454238236634 0.07488029424865814
Ni 5.10324820089386 1.640008983474595 12.568711254466512 -0.885657621555507 -0.9107819274269605 2.6252035426747238
Ni 3.44923939520599 7.214138738418611 11.729378281898448 -0.8562490864864027 1.091318877875185 0.355425187251104
Ni 1.1242635005160446 1.625316758130176 8.520239631639882 -0.7633517868350337 -0.08721439033397883 -0.5647034714980791
Ni 9.227580648965594 5.313302443939379 8.655494418075572 0.8009965937710012 0.2020195458020327 0.48146683486492564
Ni 1.1624405224729764 0.6494428365978853 6.435879516007238 2.1146878700729577 -0.08574603331856845 -0.39246475650290474
Ni 7.914661007648711 3.2904134988907545 8.472123305009989 1.5581301676104649 -0.09936825208769338 -1.1252047319893523
Ni 5.595546827137494 4.956572556784048 6.374617963357442 -1.9900014509354502 0.6589732260169425 0.5490657649608222
Ni 2.351220818852636 5.115351028227287 1.189559012777837 -0.97095705425496 1.1485794021595508 1.4308505338244841
Ni 8.019356155067497 9.008705379728784 3.6927253275165013 0.21661698400023338 -1.5086860540467242 0.8897065948139
Ni 1.1131565954945373 4.056884795118754 11.090879208762404 0.025089338868460015 0.36926877800241564 -0.27307866653238777
Ni 6.687722659260918 4.848187754323959 2.119675520813325 -0.9325008071612907 2.494028687599395 0.25996912573362324
Ni 1.1090970264516635 6.081813009663215 3.095207034769803 0.4928956455271576 1.0894825959973946 -0.24762320257376064
Ni 8.826242927210648 8.567350550983456 7.822157846322705 -1.05875379945497 -0.3150251861675026 -0.17844330114398946
Ni 2.1829763429589573 2.6304679501405936 5.543864150133488 1.039128826135191 0.7583368501189456 -1.0582406072639776
Ni 7.8299507012891185 0.37633058675135495 9.652528368995121 -1.1417821767320595 1.0781219195689367 0.3873747435745071
Ni 6.769644383147134 4.833761108262719 12.987648346219242 -2.942752780815661 2.595443794913788 -0.7422648842577475
Ni 3.6723639329736577 6.794267376687555 4.343385086329809 -0.3999723777338595 0.6620091846297889 0.34560691560910156
Ni 8.412954137712664 0.09170832047134954 1.3227659932407314 1.6051790414691516 -1.1987611652202645 2.6266657290425472
Ni 0.23241981267892078 3.347769139082945 6.704945475775054 -1.249584932740351 0.09047352070122483 0.4401654050129774
Ni 0.7702719254697744 1.7003618755769447 10.659323307068926 -0.6964033458389426 0.32007868943101003 0.9165769368421828
Ni 4.981546494377241 8.698603626720107 13.297805112079436 -0.16814243343861363 0.38386004555302927 -0.2330584173857083
Ni 0.10971175037854264 6.369217218934517 11.837326775536171 0.7683672377717541 -0.6363392906675105 -0.17276219159881212
Ni 3.584476160190321 3.0095823768781247 1.3272827380496484 0.01762619772219545 -0.30852955114082986 -0.06514892589350715
P 3.0176351201430776 8.93147871817019 4.894856673860528 0.3497294224179074 0.0756012315750827 -0.5460061521988918
P 7.780771109029072 4.561077579259034 6.642128387323782 0.9808020653698399 1.08389893126203 -0.07839319249792305
P 8.849632874079168 0.6693214459438077 13.18963467004077 -0.3762459806511972 1.4918913510868888 -0.6374237819809409
P 0.15395820745354663 9.06921951639592 10.104881025556365 2.2459537422001965 -0.4083577735840773 -0.05147039996515007
P 0.2365666434862675 3.1768688703574797 4.561627707774189 0.15564892895729324 -0.048248550593742716 -1.0101612352582474
P 2.935058933023314 1.8669939058227527 7.48451457315096 -2.745180472151705 -3.094734802444328 -0.35449573345829916
P 0.7800642130395474 3.362176815195387 1.5449382395787157 1.0496582649116053 0.16179695083656007 -0.7121109863821865
P 6.2872291002275045 7.042840100768378 12.769003561860336 -1.4666477460287515 -0.26767986411431965 -0.18387887033726397
