# total energy = -340876.46861855994 ev
CRYSTAL
PRIMVEC
9.15342473665227 0.00000000000000 0.00000000000000
0.00000000000000 9.15342473665227 0.00000000000000
0.00000000000000 0.00000000000000 13.39696234444088
PRIMCOORD
 96 1
Ni 6.873846711456645 8.92698734752314 0.15971444743257943 -0.5781860793655461 0.1876643055216252 -0.5324932053141217
Ni 0.87037536242453 2.5290454966807956 2.3309644693269815 0.4384216828489933 -0.4524064271638596 -0.8028704137549463
Ni 0.8784843814278036 3.0462323030054064 8.563217432389713 0.7811451062627127 0.5381434616213635 1.6713456099938957
Ni 4.873887473300771 0.8769365372992862 12.408038448722602 -0.6748009370778185 0.5558447355558686 1.6142776613363101
Ni 1.794611306877577 7.999452508783176 10.986031942565944 -1.091290852850727 0.46599907824662967 -0.45153482319218363
Ni 8.296307227481867 6.075439235939598 3.2622540429073825 0.3736717921661177 1.2028636174244123 0.6662191089460784
Ni 0.8374742924331459 1.4906260702834682 11.722181484170962 0.21450970784924348 -0.5867195707578541 1.3755461048252247
Ni 3.950975114069389 1.0855046434114826 3.9798889522311924 -0.5909971150872854 -1.9815831449647678 0.552742442481461
Ni 3.2097673899367627 7.206198411411341 6.782439696366238 0.004934461187139888 -0.14925510961580746 -0.8904195617205245
Ni 7.933447162770526 7.084659237322314 10.617709113952182 -0.23701303115808214 0.012912080075977762 0.16071940150166514
Ni 5.385481537091236 6.588644302489489 10.285731789070557 1.3303260566451605 -0.2772852484145676 -0.012080842423934032
Ni 3.3961219648184087 3.8496741621456616 9.575384836548201 -0.5066345923798048 -1.2048613645807313 0.21459583980514654
Ni 3.341768928537294 1.8237558113435703 1.8341779007860892 -1.1265681879957825 -0.6200963464460869 -0.12401793231557352
Ni 3.0719442731828486 0.97702740646849 10.861989306802469 0.18086656587350142 -0.3230092328142437 -0.8454861915429439
Ni 7.878682222374785 1.4397421819899832 3.1847931857957397 -0.6485345471821218 -1.0837048129733529 -2.458594258051185
Ni 7.814974385979272 0.16936581850950888 11.069373875091971 -1.0391378249962555 1.376840398156616 0.6768130824118408
Ni 3.702963069940592 3.0798162184845927 11.706453154389582 -1.188960891300391 -0.3429131708270224 0.9207238691310208
Ni 8.89154528681575 0.773120224248908 0.608196562780023 0.7648646239351344 1.1532022456435431 -0.5800341883178785
Ni 0.6889499067812438 5.835116068617156 9.534591683720578 -0.006296888752305284 0.19355547419507954 0.10059672517815577
Ni 6.350810866704343 6.817260239531779 12.435382474536441 0.1692140692362376 -0.8080725267811761 1.2880015848453368
Ni 5.298844371648198 8.093476488015176 7.420175276219818 -0.023186979639424583 -0.15376225345754166 -2.125966528310571
Ni 8.157916598392246 3.115395580563524 6.949982152661668 -0.5560524806913004 0.17018208957646175 1.0714429648868644
Ni 5.88290609933856 9.068590828706846 4.930403463854911 0.19125356553478032 0.2399147781859094 -0.13945046482055984
Ni 7.150463207990036 5.880407214376494 7.759306002558785 0.6986461191265323 0.12782676453870245 -0.3824369399532575
P 6.967202490680472 2.1256449136654703 0.48872240131898886 -1.0613362154701658 -1.1700221454143591 0.9072985968640505
P 3.604408145447705 8.045054870984677 4.556695675449271 -0.4000556814762852 0.2086707325699632 1.3429139206125
P 4.319025170625021 9.011409384171966 0.9302744587734665 -0.6195373886188233 -0.8569566540763887 -0.048485349194897144
P 2.0232821644684837 7.409111531700959 8.799700738021365 -0.8776175248598498 -0.406215530430094 -1.1680377679944787
P 0.04559687014663934 8.355090521351405 12.353593878193793 0.7086816489856634 -0.042188460442591856 1.1794580940162782
P 4.241642117623918 4.595229763043787 2.18637056427109 2.339109951939907 -1.1146760645438867 -0.12424341806281827
P 0.3381604633134028 1.1040860956935072 9.779983102337878 0.19482045695043224 0.43299356985488663 -1.5291877735445019
P 5.650271808822472 8.504465260164391 11.235121344790109 1.213037986854253 0.7534034173730702 -0.6495786721759199
Ni 3.539107613142304 2.8729945858184114 7.555739327740627 -0.16240373118262352 -0.44547910391640694 -1.351469266381679
Ni 7.461057217267703 4.878830322676285 10.72736348132053 -0.6392819182356022 -0.19148393637803152 1.3579502461203323
Ni 1.4431655628537647 7.104284180028059 4.429009061285067 0.40300885056733815 0.4159888077667738 0.43407549006515567
Ni 5.39143126319139 2.922230857653392 3.146812880399777 0.28848985888113543 -0.0008826597152694476 -0.11180904895420743
Ni 6.868482804541735 6.917773996925333 1.5113787149208113 0.23241127072001264 0.0018447665182226292 -0.3361519408437888
Ni 3.8389646551653813 7.669535619817159 12.053702968499067 0.30222983417504723 0.9481482838905606 0.7065527755681187
Ni 4.798655475120495 2.8758779146207947 0.5532503845738467 0.2514780575434766 0.776350770197863 0.6625650571332589
Ni 6.465851109207045 4.4907983398489 1.2345123298912126 0.9131951648541435 -0.07306483830647416 -0.8756568015890531
Ni 6.945701095896986 2.3451165793630597 5.004368628047093 -1.3701143922866919 0.1680133640599171 1.0554471036792406
Ni 8.594278664002434 3.233969045027242 13.18937661772954 0.634124799514695 0.9105088762712319 -0.8971342547365388
Ni 2.503635589520746 4.5543780282976405 1.0079220457504061 -0.3481638777030004 -0.7007076296412513 -0.9047501194105837
Ni 8.978960493364193 8.274458002557143 8.901249747756344 1.217375180777026 -0.19072443250418766 -0.496985499325815
Ni 1.9556932759707153 7.510311795952223 0.4266814035739962 -1.439704384670688 -2.9617267508150027 -1.8061958570382828
Ni 2.665852583285299 8.351127088426225 2.4144144122652884 0.9388192931801509 0.8721001945860465 1.043317667405558
Ni 2.477145578237899 5.192710411446192 7.898018832200291 0.45560462238618304 0.16954754131625638 0.1339292778920145
Ni 5.8807733513672735 3.994582029671146 6.652677085464318 -1.016878756487739 -0.6136225657962852 -0.899663963136928
Ni 1.1430430715123727 3.924649864432393 11.03213042038995 0.6348051134111712 -0.3270504927631529 -0.005144777425733075
Ni 3.035660097396668 3.1697669236941777 3.780301271160323 -0.9025754803567682 1.754093994136721 0.3549886139343177
Ni 5.966925385297527 5.26427188629391 3.4346194387138467 -0.5377657665669706 0.6209849196986272 1.0434104842296805
Ni 3.5554007092319613 0.5838347227560778 6.566762125235593 -0.7140030611985768 -0.5599559295107647 -1.0479695643552727
Ni 6.042953731432748 2.9896000639566935 12.035549896496255 2.1863697119889762 0.52911888952525 0.4317661252056887
Ni 6.402179886510609 3.332569736643976 8.77888218872568 0.2204564123509816 0.35206244142645815 0.7585782767057904
Ni 1.012936291839122 8.176836727390741 6.711810955502528 0.5204938668604003 0.7448028201882527 0.7066885298150345
Ni 5.626500364696158 1.5947188167618844 10.265248255121438 0.1998150819515462 -0.4334967347435502 0.24637467487864018
P 8.253762109153369 3.752290876023267 3.4597657272405353 -1.01232610412005 0.37623518201791983 -0.7912958215434694
P 7.193228008513001 8.323538666171041 3.2305841085474922 0.25713448449830556 0.2528271153722033 -0.020698665999932093
P 6.7299823343548795 7.790232678827393 8.813044600650297 1.9225418746308955 0.07808543144951713 1.425673617609235
P 5.453473176278861 6.057278841196968 6.160446176431192 -0.05226872749672933 0.4791129899207684 -0.19569591757685006
P 1.6610445326414662 2.39660459369133 0.15060495910200258 -0.5596463686901458 2.9149162182193673 0.6671292794651736
P 4.37379926444553 0.9996180587995427 8.723057281741635 -1.6393639148809767 0.8208285408952637 -0.6319969545384148
P 8.945449805283163 6.682659128296719 5.800670815867162 -0.37733484284000174 -0.3425874120564874 -2.012966544372056
P 1.3551279234209996 6.378719658826458 2.1578622228265747 -1.3340739537233668 0.7817228331430537 1.117097786611502
Ni 4.280855389336329 6.580891351709748 0.7836530701311374 0.25530077372367643 1.2579898689745947 1.9312733409666223
Ni 9.082531494630748 8.892561316965162 4.605192350562878 -1.8687196866041171 0.4784067078823632 1.7545845606198942
Ni 7.447217239016264 7.999040604668551 6.472313427094291 0.5115045188775965 1.1185810560252478 0.4420407676588194
Ni 4.841374508519612 5.525995760727374 8.342422181470459 -0.7056999406495201 -0.3622566083506406 -0.7913942947945467
Ni 1.066245837696517 4.779158680361523 4.099470208762029 -0.13302707779271927 -0.7885573395663839 -0.37706230590490547
Ni 3.1270021231712124 6.039182520427726 3.2360898935463283 1.3540879349514485 -0.6041611632730691 0.6373885578676313
Ni 3.967808262220445 8.128232041864853 9.199948881546083 -1.06740736136491 -0.31598832141172034 1.711637367634407
Ni 2.0857451350953493 0.67204719260194 8.566848595995761 0.11667100503219906 -0.4257690270819893 0.11880270666322122
Ni 5.06417802083329 7.569204930918995 3.0884817657138504 0.5863189928853257 0.5114512970421579 -0.552422597248197
Ni 3.153016156366047 5.934357499967753 10.402366558168103 -1.1680369966635304 0.16748963034596315 -0.7378395014965422
Ni 1.0454126429212027 1.8013848412069848 6.6817080874631705 2.0096421079845133 -1.5105567887068758 0.39483171407318457
Ni 0.21248943328343736 4.644740637621852 1.6414763411692928 -1.552279365256643 0.5905032061700024 -0.7910747066715988
Ni 3.6735531161562833 4.758417019833903 5.6595195138670675 -0.24335877087045185 0.009587129467802845 -0.26123565115087266
Ni 4.711231115147284 5.0543106289318 12.605483313054938 0.5286712604648701 -0.8511297629819664 -0.9950819723276216
Ni 7.662322721098816 4.8116075711692945 5.310489358639919 0.3907212914492368 1.0314098602243784 -0.2388714245230596
Ni 0.22018929419951577 8.50622271772013 2.329329667663154 -0.41297984573712104 -1.2406904584641987 -0.3762660352558552
Ni 2.2336919396442974 0.46915878655920007 0.18817061435590868 1.2729356916511496 -0.09222778438817018 -1.2081711456802549
Ni 8.16388463134194 2.652332974900791 10.6307042310974 -0.2983906629346151 -0.11588836122990365 -0.5514514915841794
Ni 0.3996476788598426 5.136361928565332 7.0635084187074995 -0.32448067515344764 -0.5741211652675532 -0.14664878234121193
Ni 5.792268887271264 0.8102996049775424 2.18642456947723 0.23909356783619468 -0.4726723765017472 -0.49826205204539353
Ni 5.694821527175485 1.443229636827151 7.132114252697157 1.3461519679338236 0.49197853302952693 -0.908059643399791
Ni 0.1772972610722549 2.279596364863191 4.650260152757842 1.4181806516662996 0.8852552439107658 0.7445943037218725
Ni 7.468819321472214 0.9528898253513968 8.822931214743802 -0.3366016267866977 -0.025323823476769286 -1.1984433768695295
Ni 0.5189625707298879 6.016573561247134 11.951631298209751 0.6314657646252931 0.7288691796771318 0.6078180432993661
P 8.34968084731265 4.428545897991732 8.88521386290271 0.28070455850876175 -1.3289057792588663 -0.45173254102528654
P 4.6578208816174245 2.631353325329165 5.3413821672368815 0.4114448971498333 -0.20971202935028402 0.4311174358780962
P 2.706594476934211 5.800635117510561 12.472424553893532 -0.7044737815519029 -0.22858495499538697 0.5390317777635878
P 8.105586468985184 5.761037401957832 13.3433344763246 -1.2761266877846216 -1.1674410149507441 0.8341108598264666
P 1.4707631385337177 0.8225304111545088 3.5793204388395408 1.1709863090998414 0.06439713532914716 -0.9210956506481428
P 5.285709207104009 4.27893317013474 10.456396478554854 -0.04023905002570489 0.5523323515272358 0.07787742920376911
P 8.213679262087858 1.0045426013255176 6.659094551570194 -0.9392183283907825 -1.1290562445249588 -1.062262583939177
P 1.6794978369767184 3.65909985844529 5.7898990655984495 0.6974140464916441 0.3819911106650905 1.2045299493832418
