# total energy = -381168.4862723018 ev
CRYSTAL
PRIMVEC
9.24313602820969 0.00000000000000 0.00000000000000

0.00000000000000 9.24313602820969 0.00000000000000

0.00000000000000 0.00000000000000 13.52826388779326

PRIMCOORD
 96 1
Ni 5.747021595409335 1.1876320817017385 5.952246948049455 0.7420350276351284 1.248453133128753 -0.730691320487535
Ni 5.6291346365491775 6.570252276287579 3.29874589930738 0.64278864583728 -1.9581261994934083 -0.6045049197657331
Ni 8.695859331425973 6.288697105059785 3.5807419681310355 1.5182598137780885 1.080237680360359 -1.3377295481980833
Ni 8.884437795803025 3.0505122340142643 8.658129773846289 0.429247472548893 0.3490077137605344 -1.1881502224736376
Ni 2.02371996500859 8.023559821257116 7.256032900577301 -1.1424570913118972 3.340731010937627 1.5849604004294318
Ni 6.461432834021572 1.8966730581924642 10.088459806581982 1.716482354431534 -0.37494860199601227 1.181788799031984
Ni 1.2636661199316006 6.721017070545696 -0.27022585921000275 -0.9685846973680416 0.4108152339856344 0.15667274223611727
Ni 5.3008184393786575 0.6310048749639288 8.16499736679438 -0.5305394240218605 0.7834665553070378 1.26392680328432
Ni 0.49508640604070064 3.4674793503025336 3.544973804049089 0.03803407195458611 -0.07544850804730233 0.7585422812615323
Ni 7.422450945958963 6.2241522851036555 7.251500990907462 1.2758004147934545 0.18910489462289368 0.056685368507186244
Ni 2.1601301687766794 7.73898214449794 10.072726140173659 -0.6251881591466975 0.19085453032414873 -2.3212672673315313
Ni 8.731990750759856 2.958284221194235 1.103952121222455 0.3499510515104102 0.10009536006170504 2.7898469618211434
Ni 3.0610771386698357 2.0120181546026816 6.715849233106562 1.0501300623417011 -0.2839914567901496 1.1463307153346904
Ni 0.658284142776692 1.3520674743724466 6.9914749324738565 -0.2692808900528524 0.44227833759092217 0.503479848800907
Ni 6.996212964080547 8.360185597854898 2.631828667337072 -0.1394196115826244 0.9039397076941464 -0.48290073909797476
Ni 4.189174180225873 6.6028435744639085 11.045597649950338 2.005171216697353 0.332543397556924 -0.7442952844242149
Ni 4.196855226392785 7.624672279340062 8.184883974289097 0.1807470095765016 -0.03591651139095105 0.31041416975805247
Ni 6.607603789597434 2.7977586751283443 0.1852361463337862 -0.501336320095343 1.1557808050039966 0.1691482489953087
Ni 2.1927676826339177 5.796453887708545 10.740684149278016 -1.4219663439609769 -4.591006284876784 1.87622345118033
Ni 9.042920608772782 6.240780687094358 11.572536827586458 0.7359808510212487 0.06977408337034434 -1.2362766456672194
Ni 5.422069899808919 4.572255959272388 10.343859675356693 -0.9030146247767159 -1.7748813631957172 -1.717593842328158
Ni 6.615941098433239 8.623402386898391 6.93395212307489 -0.21854788247435908 -1.751262695335513 0.5780786072534044
Ni 2.8753548033728977 0.45261234665900096 10.769553236514014 0.2625150320839285 3.639637694276713 -1.1530515789982916
Ni 5.316430096389384 6.364777358970555 6.210325477689596 -0.6366794476157487 0.15768318577850265 -0.49591849151388134
P 7.377048661034932 4.066970676768906 11.513797621465992 0.5703401009585661 -0.3006581188125531 -0.060867267799017764
Ni 5.228407710531983 -0.14878861174249133 10.692171549028876 0.434634190782103 0.6286087547924722 0.14315208204186314
P 1.5147466711686501 7.790725220842551 5.081581416600846 0.0033326639176587767 -0.2970657734756045 -0.4655784457694433
Ni 3.879538361278372 8.665338495754321 5.784550576933878 0.5228474546942415 0.4965543253256674 0.6469934279472469
P 7.8045899251149535 1.9981349640579147 6.665971421643399 -0.9574258525377446 -0.24944380072226716 1.2504377676589498
P 2.9462404147496066 8.156697954816918 12.064586863391503 -0.3567454487244243 -2.150822668122302 1.5319082577994585
P 2.17374530837218 1.9338766813234143 0.8155514833385673 -1.0030624194299371 1.0956974665588548 1.525958725084243
Ni 4.07275688001859 8.072160231299982 1.7762876796224192 1.361804586869416 -0.8179707597314946 -0.6335707267834378
Ni 5.415313167260168 3.884843921446611 2.4533779072742 -0.26715613040036573 -0.19267178603854557 0.15786881942674746
Ni 7.779393135883907 5.335600360830028 1.4452650921779262 -1.2461941618912473 0.65534128569131 -0.2847872132185676
Ni 4.034102084507128 3.2825149521724866 0.6325475543926382 -0.038796918262539636 -0.013471037903241315 -0.4841058151496695
Ni 2.137244163591032 4.264182230339577 13.025310119284699 0.05767807143775873 -0.43482188131287697 -1.2286903486795293
Ni 7.9578133935973785 0.5394053954042481 8.424374557068036 -1.103287620201287 0.6207728036878212 -0.07679139522844194
Ni 4.934318846641938 2.111991915542894 11.99398316766833 0.7971756773630141 1.7520342833942146 -0.9564141234437786
Ni 8.00529538416227 5.13730736032611 9.545746292738338 -0.25785979270010434 -0.39122445633790043 -0.31851211627483855
Ni 0.11169960350019324 9.148967110184307 12.359638862071671 0.8608932701266335 -0.385215274029343 -0.49508751097215375
Ni 5.606683058764065 0.7758762455926569 0.5699160636260998 0.3584135804554666 -1.1999374449165527 0.298288333028796
Ni 0.40945984108157163 1.3494609099692345 2.4157555700742233 0.9175822381782456 1.8045032998272084 -0.7721953532685927
Ni 4.98180083720683 8.038330352875318 12.778460151477969 0.6354751428950024 0.022676615661909334 1.0492126927337544
Ni 3.3173708187133095 5.418964206051901 2.169135756358415 1.4390634086525795 0.22468793393382597 -0.28282751838903547
Ni -0.3347124474081888 4.590973310040133 13.174338128254295 -0.22771720767845297 0.2727595926300722 -2.0706852392397628
Ni 6.402045684054777 7.680371417970398 9.318471438737005 0.6187976822393214 1.0497644514721662 -0.6420162864476298
Ni 4.5454970800266485 4.239244248921613 6.975578586868737 0.618958890407534 -1.061458857090959 -0.6546735702003241
Ni 8.918739074172953 1.530515461494464 10.348972978292357 -0.20797576338546758 0.38511242990289163 1.766710397349151
Ni 2.691231530635376 6.187013363925977 6.5907406119477185 1.017494278584551 -2.796620018878919 -2.093969149468368
Ni 8.001884666911259 4.121006050886555 5.996835836989506 -1.2727264038538209 -3.5667824008778832 1.407764341428982
Ni 6.729493026424225 1.6922333721277807 2.493299936756159 0.44375466502613253 -0.008411363992146806 0.7004260938450906
Ni 0.9293973430601287 0.20741412728792316 9.121270052616135 0.8367279857343397 -0.715135117920491 -0.6371764418568252
Ni 3.987248627202585 1.5238234308989838 4.479709058254093 -0.28342324299150545 0.9179493917096772 0.5425019957003753
Ni 4.104525539074758 1.4640573123487421 2.2690013726053024 1.1410319288295963 0.2601478174033326 -1.3977689207791668
Ni 5.567205624132441 4.820628271608228 12.664646642733045 -0.3827061344542441 -0.11282206359975408 1.5836008010777436
Ni 5.720105582848509 3.402232051996602 4.7333092884142465 0.46250109239570025 -0.20647886712496696 0.7001664124258006
P 1.8867459299334233 3.8012767272287435 7.239731705607427 -0.32991521590545764 0.42402710469021815 4.071225642033324
Ni 2.3792294688253848 0.056546734218189454 2.571587451587096 -1.1928172889320037 1.1721109096225877 2.087368613432715
P 8.592003453289488 7.362426019595637 1.4096041484756856 0.9857542671687926 0.5027267726849665 -0.08848785772976374
Ni 3.352439277386309 5.156542326720024 8.606871037837594 0.5505050685105101 0.11676433607695375 1.9391388597576282
P 5.276259426544139 5.653832296426419 1.2065888296965872 0.059035871017233815 0.407885204823033 -0.5054665402136327
P 3.151012853716828 0.6091097339769488 8.459034469121809 -0.5384041714819179 -0.8066437647544494 0.007534103593516057
P 9.549546146022596 7.369238210961478 8.64734765549045 -0.9267803597377458 -0.2578456516327172 0.414017542973016
Ni 6.760069320912967 6.193594476887277 11.188347720825387 -0.6874636201471515 2.0290472519840024 0.4008612080967161
Ni 2.0081175511340454 8.941088977460067 0.3332048918969694 -3.0349872500720507 -2.2137697012684843 1.4745104366062798
Ni 3.6019669817448494 7.14828104054027 4.055867821587566 -1.0521550631915297 1.4635881332668212 0.06506639348202987
Ni 1.6778695385015705 1.4281662145555798 4.969499147262735 -0.5027283153468632 -0.8285811882574892 -2.3685323709660824
Ni 1.8219607884365716 5.7026822711461875 3.829986832522419 -1.7171842655945653 -0.9857511818449991 1.830765833068163
Ni 2.5460865631756726 3.217202951913283 2.812810198086466 1.2384448569631317 -0.22171471023811495 -0.3835245165904814
Ni 1.134215997708258 4.9632313766179905 1.441923698448277 -0.6261667210098828 -0.17494531529306 1.431735507532599
Ni -0.06723179964412192 8.885389838829731 3.574532429244235 0.5851357712105019 -3.3988099173582307 1.3597464187888066
Ni 8.584396352212028 2.1258104041343895 12.616837445147322 -1.7472219496072359 0.11805400142265474 -1.190419992344421
Ni 2.0564591533638263 3.833331923506541 5.329865919142962 -0.3630425945870457 -0.8113625103863574 -2.770066436760107
Ni 7.432895689844174 7.6566535305284065 12.832059249567846 0.46759033399314953 0.5557727446673525 0.8058598354005735
Ni 3.876793149832436 4.9196962052026425 4.707430355732996 1.8043400347764669 -0.22494427291900615 -0.9639317719770626
Ni 8.430609052422525 1.4086909266209435 4.759040330916592 -0.4115590541301944 1.2494954583503384 -0.25552368836775996
Ni 0.29554835509312094 5.538672062739834 5.955533807275633 2.1623466096015016 2.3647335660452824 -0.11726158742834643
Ni 0.9921582377332095 5.254343950657561 8.62947697599694 -0.6164883173798543 0.3433965382213441 -0.3488753019477282
Ni 8.29726756986673 8.287164822020237 10.51593914164959 0.35545835448188456 -0.15038948033056682 -0.9370948542898764
Ni 8.145088575772826 0.2994489585617572 0.8163214365824949 -0.13876089495270297 0.18490396916766866 0.3545471555215249
Ni 4.3028092964424935 2.3558166048773854 9.504890706502039 -0.5161235057068466 0.4578900759862501 0.11811725056042238
Ni 3.465824828926027 6.178121466919275 13.359850644359911 1.305957397992809 0.13838062879514876 0.24685829938327808
Ni 1.4914354817186486 2.0576700042036165 12.119579826417564 1.9937676028461018 -0.885249844594127 0.2601357332184746
Ni 0.606475440165192 3.8228317208042406 11.001536544086255 -0.9470113420726399 0.8295417523985456 -1.0630696532215047
Ni 3.4767224864841357 0.9229724391002968 13.078882412279649 2.231662779498821 0.6360857798958077 -0.7535281158763926
Ni 6.9437489231137715 7.733463992197524 4.955038260706618 0.7547727869167711 -0.1757701251872005 -0.8228106043222991
Ni 1.9015441909601687 2.385866040603775 9.247799343806092 0.20174726597725254 1.0380857295826573 -0.12864771777810102
Ni 7.673152528612567 3.9107339458912804 3.280374241832827 -1.5020808900253808 -0.6088575403074741 0.07559557514812787
P 7.259882666796939 5.466390737799703 4.709891802898158 -3.0183807518636208 1.2555486065229537 0.7433730297202616
Ni 8.932418915721724 8.309634886077713 6.751212547823755 0.2398384164220192 -0.5698119963692381 -0.9447868236174953
P 3.0725756000797495 3.5682295346820005 10.95088600643831 -0.2906632123833704 0.30393139024718624 -0.10635985291417811
Ni 6.622670101573446 3.151641386977177 8.219935795316971 -1.0792187521775414 0.5460812284112015 -1.203705139489101
P 5.7671901185575924 5.909959600018624 8.565150294054694 -1.7033219057901763 -2.025161800886667 -0.6250436631490333
P 5.093226843876048 9.067562809832934 3.6066218251259046 -0.21168175148214513 -0.5142843956155788 0.1232460871465555
P 6.8362604924579164 0.6579458439924454 12.318553121744447 0.0884274368054735 -0.49568786356031413 -0.7960382213244612
Ni 1.5336766140685718 7.234094316850268 2.2384269267437977 -0.9541847198926277 0.37710935709275695 -1.5495216000058476
