# total energy = -340855.65920908435 ev
CRYSTAL
PRIMVEC
9.42996198228162 0.00000000000000 0.00000000000000
0.00000000000000 9.42996198228162 0.00000000000000
0.00000000000000 0.00000000000000 13.80170255623286
PRIMCOORD
 96 1
Ni 4.363422676913615 6.19437242658367 13.672822805262083 -0.6383992585203329 -0.2724040090628663 -1.149755424745523
Ni 6.31872533804929 6.297894551560509 0.9338510421644468 2.0715185337743356 -0.0015825139957714683 0.5756738544666538
Ni 8.225275094636753 7.151655038810282 4.03915079492887 -0.2521195477822174 0.4341335969966007 1.2411080056175916
Ni 7.078780290967232 6.965535874967336 9.493059958050953 -0.5874443647390205 -1.5006544419914996 1.7757650513522514
Ni 4.421086895736111 1.6977798235521 10.853189612252246 -0.2933091346466497 0.4801044072997602 0.8342342727782084
Ni 7.367610603038245 2.396096813979301 11.521606078551503 -1.443490848296314 0.9012464771326995 -2.607914416576973
Ni 5.484022804395634 4.18176388518891 4.576382342152223 0.6510056344304337 0.4387636395694444 -1.1242544522609412
Ni 2.3688065033869368 4.09344285927043 5.3810768501089115 0.7463382829961727 -0.6023014843565111 -0.45479960998638447
Ni 9.276951628435432 6.414326294782318 9.004327649392767 0.4380041356956005 0.17868961282684065 0.21899062643873252
Ni 3.371824432259356 4.423095477683649 10.504793057984003 0.40250285746519715 0.5956006752975678 -3.40845438242653
Ni 2.4634738938626595 1.201018845081079 4.3549064780553 -1.5422896010337825 1.574987862597752 0.68462923602215
Ni 2.2459529559103246 1.2206991761820687 9.795813609302902 0.6679551178005787 -0.48948970516940216 0.6373091107799476
Ni 0.47510978527127407 0.1394587679058084 8.427126264409637 1.4543756135296178 -1.418567602692073 0.3836998658260811
Ni 6.352984390703767 5.796503461651737 7.527766251969664 -1.0812522376678022 0.7482005330158921 0.5352422288141685
Ni 4.776040102718547 6.031960187698983 5.7632043791487115 -0.40418975824931674 0.7768151114287911 -0.5248827399567154
Ni 0.062005773417079885 7.202784293831636 6.153061648199763 0.0017588916726356807 0.23989369513998685 0.2497423057992925
Ni 2.79862418023557 1.4871804778509037 7.378196678598365 -0.7705058813813117 -0.036598110839007936 -0.379232831193663
Ni 3.773936880179044 8.16584747288379 4.042477685591271 2.0289935159279313 0.07671400502328725 1.5437492162984445
Ni 7.921856631050057 2.5961911817952537 2.4267668230223567 0.5305813330033895 -0.8625354337157468 -0.13510041538198023
Ni 5.3719194138213355 8.201624749451664 11.839611750657664 0.017190138626041365 -1.812278572897253 -0.15582144997941552
Ni 5.619587940911123 9.026256083481046 2.7694497631966426 3.730878432161265 -3.5612591570668086 -1.533180696753979
Ni 1.8594376654611855 5.15842506972627 2.420722217255354 -1.3374217871496774 -0.5393305399509292 -0.3740075782389817
Ni 8.626378536601576 2.552351287550645 4.954659617627799 0.7227566390214907 -0.09303433944986558 0.2967713821636373
Ni 8.805962736643378 4.322232602045804 12.565512323501492 -1.4373839640676278 0.007748019376535043 1.0314497123233786
P 7.844568660899741 4.393174207638877 1.2140925446682433 -0.6336154639784443 0.731520758367366 -1.642495518531423
P 4.517281940087425 0.7587922809800303 4.9753621566307284 0.5727880482784264 -2.0644202321666576 -0.3985603278776813
P 4.305739598166729 7.051952048522424 1.9486347348675814 1.7349004519274056 2.6470985429756024 -2.5734492929205683
P 6.2639938374694415 0.8581331607196006 13.074105075538595 -0.2997410063149225 -0.2830946560074931 -3.4553083666655913
P 2.037447061816421 6.263729798527981 8.852108256644668 1.4117536650940332 0.9971529959240374 1.409130111428257
P 4.029007927591915 9.121027203540914 10.241664107875494 -0.8737068769515339 -0.46690693477287976 -0.8409363673887323
P 0.21910988658219416 1.1684477556595088 6.645754540979856 1.2885420307298387 2.338809647090669 0.08288156728657985
P 7.0213423912374155 5.480392268950555 5.452790769605755 -0.32339078452337855 0.4770111130864172 -0.8372864293409709
Ni 6.740612416691917 3.3732955063617776 7.028627980029281 -3.577108465394239 -0.027801595593300508 -4.327258923047651
Ni 7.661344495450664 9.052707127438055 11.718156666574572 -0.051170095115911876 0.7076244113657426 2.7343597273871167
Ni 2.4577687667346773 7.678044958498029 13.926883903723867 -0.35383855949027443 -1.845219546599648 0.29325796969374013
Ni 6.0482928822207445 1.4158899636566156 1.147005907620491 -0.229938640809804 0.7036440865617558 2.5443498044514503
Ni 8.373155761778927 1.5771988969644857 13.181619846508802 0.8722919988818784 -0.21616704094700837 2.7722904409946185
Ni 3.615711544508943 4.067038965124397 0.8323271261767314 -0.28565727452834677 -0.3018567671063446 0.8606919527491048
Ni 0.46662376229198305 9.220579314433651 13.462222516564667 0.16209288481042408 -1.51020917555947 0.7653045396860303
Ni 7.848708414303351 4.804641178056016 3.294853308838792 1.037763313246232 -0.19083164750601325 0.7783552022224014
Ni 7.767742758896981 0.9917585540115746 8.6932511135075 0.20394350229762298 2.0509499655943646 -0.33632574741749177
Ni 3.3270415417952455 5.093160301374595 7.483021081354334 2.047263003661081 -0.0738629087277373 0.43931359853564345
Ni 6.172542064102219 6.250508991530574 3.4832733834573206 -1.5927724402746828 1.7246762030962361 -0.3013489742319907
Ni 3.2103834794807553 9.03360202403096 12.211001381746003 -1.3529257963225472 0.881362850834895 -0.05546717982936898
Ni 8.427887262358773 5.078779609027202 7.011278735582899 0.33802627504836624 -0.43764572391491724 0.5779626505008304
Ni 1.927606862168925 8.24350321155971 10.07391828237331 1.507643728825139 -2.199928681620334 -0.10494806016831602
Ni 4.942196036594653 8.68975731251425 0.20462829363931473 -1.5243695262202521 0.22211400255906263 1.6046465660044493
Ni 3.997841902537402 0.75049391424842 2.8519836213160437 -1.3598945143308965 2.4597216867874088 -1.499873855071733
Ni 2.995257751925954 8.454432605937733 8.15469465659575 1.590721471282925 -0.18346132318387115 -1.6971445733348707
Ni 1.6580042430135407 8.99352468470216 5.864578358737527 -0.32727289318660413 -0.34004433391965955 0.004627728579998482
Ni 0.9116274502594628 2.614230699474311 8.6043680618422 -1.833482460668378 -0.8920203305487411 0.3525974879943218
Ni 6.315519150902985 2.0274701618140987 4.130394166131584 0.4820520179444343 -2.2657268110620654 0.8657685959410638
Ni 3.563431834099798 3.3757095766837004 3.2734331497128233 0.5928323685238113 0.438828945589741 1.1648172041746518
Ni 5.75844413423267 2.0987889658949723 9.092272419819665 1.1051601546336514 -0.15379130692326415 -0.2428095832352012
Ni 3.9718434967657545 1.9398658130224402 13.246060436164635 0.11384690531984265 -0.7690321250492627 1.0482181900309688
Ni 1.2708194252485556 1.9693721647306317 12.699278223230172 0.40592550999350085 -0.09205500625573178 0.09112658090419144
P 2.7626488744616 3.4349863190415437 12.227550022402031 0.7959590313470938 0.3809246170737891 1.166226940037985
P 5.139800894391123 5.947458296469484 11.406086212673952 -0.24721876804649037 0.7405417309190536 -0.6226800480128631
P 7.814901999834234 3.3889020937945213 8.556931580016412 3.006608184708725 -0.21473622203775275 3.839983451920748
P 8.599861482909203 6.979727968070828 -0.0057645358898106465 0.9091073679380149 0.5390250928953684 0.5122388259404598
P 0.7260137323901698 5.2371086742814486 5.871382076461227 0.7053554128259079 0.1640590073978594 -1.4702750583686937
P 5.626132334674461 3.1121138434465383 2.5150293831752273 -0.8943042414869115 1.2000557156619718 -1.2571455186964287
P 7.641975353102111 9.327684825044594 3.383625086950193 0.47643312909576013 0.6669809268127675 -0.29609286803937396
P 0.18754686011927055 2.496280732339105 10.829712778371546 -0.16056924907704603 -0.7155711770166451 0.08637338248992221
Ni 4.742186538438455 6.667171871117167 9.167546150045126 -1.2691116899193693 0.29733933885196534 0.4437847469331196
Ni 2.247867238235912 7.882297939641983 2.5486773742794684 0.36283330678971704 0.11632390610542548 -1.8753451623404347
Ni 7.285815110958713 8.721677734544363 0.489575347278422 1.0657502853774614 -0.35260751529665085 0.5128808303998329
Ni 8.450207982874367 9.400163514475455 5.5329784531310375 -0.4115037754122268 -0.8620950037442185 -1.336353493786163
Ni 5.736161133565857 3.87150869901083 0.22368719023165284 2.357706483995172 -0.307269967702116 1.8039620826117577
Ni 7.64157929468992 8.286475549282379 7.665893509213538 -0.11739914144747522 -0.28681787049535123 -1.3949846731658104
Ni 5.950136405732867 4.480986015598826 9.703880907863732 0.012936762666326108 0.11096187046256374 -0.15172825374664836
Ni 0.44744416218354877 3.619417519651583 1.1734343196682309 -0.38009775029711956 -0.8310777294270978 -0.22697493019578974
Ni 3.8614563593109477 5.6724900288251385 3.211559395766473 -0.3246609094850538 -1.3893462439331103 2.9301497473396694
Ni 1.8335901390846585 4.9803590935978646 13.642886447277798 -0.7205406052067784 0.5068256253446886 -0.32352499610839763
Ni 6.298139730577579 8.3805771420264 4.970559476884809 -0.8953270263244709 -0.08916405786118194 0.8076652640404284
Ni 6.1959095104214565 9.179200640321941 9.935252574288102 -1.150448851268122 0.8564797144399702 -0.8922807832989793
Ni 0.41032877398020223 7.10609889144618 11.399861494629025 -0.6987548767902546 -1.0122284021999213 1.0915978425681845
Ni 0.12416336922549945 7.045982882452981 2.1757421723873653 -0.6548712880334271 -0.9786119996970564 -2.620630835702377
Ni 1.1673915998936675 4.540460787162765 11.220618659218681 -1.0560423140610782 -0.276828106272491 -1.0598763430951876
Ni 2.672988793911429 6.246746436614766 11.865089622516145 1.0730730442911198 1.5373690238037137 -0.6772036329820402
Ni 1.1411763049915349 4.645491706090804 7.8414379134509975 -0.5366522217878178 0.10420424002375603 0.4418191385663165
Ni 0.5094339046648971 9.391393649634093 11.15663447973309 -0.644088081374994 3.066320255857377 0.551078938736109
Ni 6.399191205459324 1.0061392463589676 6.506826679945626 -0.1233784989593617 -0.3728271847776353 -0.10113459995949681
Ni 4.583819753335428 2.5714469609955435 5.851742294197676 -1.1560183749360995 1.117801497546746 1.5504456544820135
Ni 7.513444968384101 6.681326244371879 12.003824169325378 -1.2386204633090476 -1.0917562225229198 -0.0309005462335984
Ni 4.999237877912278 3.888869259411847 11.96246058315318 0.781481406556209 -0.7139467540393446 0.2560615631491009
Ni 9.108890842195935 0.579534357630175 1.8120115565938133 0.19875424478719964 -0.3502099615987517 0.7929852934307504
Ni 2.5887509416233896 2.123363447375173 1.819492345603116 -2.736856011446409 -0.9938193035651143 -2.0709338649154594
P 2.450451116071348 0.23193652115984909 0.6469397274001186 -0.20883579739291774 1.5818444805082694 -0.12964067781898964
P 7.989648629269996 4.894480427887894 10.512177661378916 0.5152377606677837 1.0275051258533336 0.013976773895066252
P 0.7129004269617863 8.23431842838177 3.8569544953590493 -0.7835969102373149 0.8413467154532734 1.9683543049793197
P 8.358841079166899 8.659081645493876 9.837343162809734 1.779267150968239 -1.083576514925605 -1.574797600963817
P 0.8814732601484739 2.8473110750484154 3.200517853032334 0.13356366702247965 0.07729481722742172 0.4563656689219237
P 5.542431990231537 8.997400399164311 7.894367348255378 -0.6181484786910968 -0.5920615517960578 -0.5496712597553051
P 3.037541702408386 7.30311909158656 5.770685168158014 -0.427072062164129 -0.9733191267292334 2.093951665966871
P 4.240286230571152 2.9893357356674866 8.056233592328974 -1.2446643555102823 1.2253664265126187 -0.8951753312379551
