# total energy = -381169.68992759427 ev
CRYSTAL
PRIMVEC
9.23293182329273 0.00000000000000 0.00000000000000

0.00000000000000 9.23293182329273 0.00000000000000

0.00000000000000 0.00000000000000 13.51332900243829

PRIMCOORD
 96 1
Ni 1.3638332477737558 1.431824555548279 10.966822518331572 1.4165168908106316 -1.3228076367809283 -0.21672779854648483
Ni 2.9090843671474036 2.0782682565033643 8.761785188651269 0.28145814884533465 -0.9476551463042261 -1.4448406774559892
Ni 4.3277335294047745 3.021098292448941 12.960025006785099 0.16577161921359193 0.47727182294697157 1.0858488558995494
Ni 8.613060204299991 0.8327023985552744 6.701286632167302 -0.40808317976645203 -2.7743020721080094 1.5679394403914029
Ni 5.299241050677302 0.9222812235361547 0.6301143382541048 1.8988365605941555 0.20059592598162873 0.92499755680571
Ni 7.22106651536487 9.029363853980259 10.580868437878037 0.10608628753781728 -1.1248679174752239 0.45962145685506
Ni 3.124239370551765 5.637286372723557 1.9892701829156152 2.1455110261014014 1.1891056444083714 -0.18149622903770032
Ni 0.6448187050061017 3.5382163214868956 11.048227429030435 -1.1353539046082124 0.15811050312390834 -1.141837198339711
Ni 0.4714445633536787 6.776676287975465 4.9144327770264296 0.7720076627378188 2.5805514511829877 -0.2478540876376441
Ni 4.8017430011370195 8.471713255532993 11.7199342772333 1.0774500903128927 0.30860771267693304 -2.2217779162849416
Ni 0.6845618587697405 2.3323308333680517 8.792352655062066 -0.9305948483878296 0.4988140678941216 -0.269168275734388
Ni 1.3586351073233134 9.271802170050796 8.686449083845968 1.0563030239216324 -0.18385470196754786 -0.7199289397647085
Ni 1.7009091120095374 6.3893732762256406 0.10935022455561744 0.7179898137604667 0.894265674939492 -0.5357821604780385
Ni 4.469006614719547 8.554154101149331 2.469452792667693 0.7344975816075028 0.3998944733080726 0.6662934138274396
Ni 6.688944972593402 3.689331711810853 8.435384439848526 1.2193366753787709 2.074777149920949 0.39652915638026554
Ni 5.428594421389018 4.029620636218489 10.891688614726743 1.0366315136346342 1.3099042984556988 0.2817533114882503
Ni 6.368682276670684 6.820181861336893 10.108820964095557 -0.2016937870314978 -0.14720465484468195 2.7482280007287767
Ni 7.960365808700236 1.5510401674419028 4.6534094930825445 -1.699774811868866 1.047788558692718 -1.4014186017166124
Ni 1.9117154046640614 8.407018104314078 11.847337652806234 0.16599993317431413 -0.374480147000026 -0.03726891165378743
Ni 1.4531341615156337 6.16610252600789 11.111685367424554 -0.8390064973558712 -1.1451762900152729 0.10278576240967459
Ni 5.671503616967498 6.937006143964683 8.116821526620171 -1.7175444771474613 0.18366881120898693 -2.702168744476869
Ni 9.132320273452516 5.400895626804068 6.452249539933477 -1.6430009974129318 -0.8103950042667657 2.743010718193895
Ni 8.651746187403639 2.9773249640731914 6.685814085512149 -0.32957840139132916 2.2420742046401325 -0.238560321040544
Ni 0.7540950661094926 4.513814031426468 4.52192423848094 0.5405189038320756 -1.9030287442986322 -0.005102097113255729
P 3.392991541478004 0.415855852501143 10.244670625430597 -0.7244103725748299 0.024558148955338352 0.45865883583147454
Ni 8.954844863615214 4.926876922140295 12.608016722388568 -0.14533109197105293 0.10732067416555066 1.526000634065772
P 3.059119504482548 6.076884708649766 4.156321385702119 0.24882673596355856 0.11728704134964317 0.6834210746466618
Ni 7.773011162127636 5.986097292931829 3.421912776197303 0.40344028167780194 -0.40098822059288364 0.5156673920060345
P 0.09246503937663207 8.044450116128615 3.067457764945771 -1.8541111926623228 0.42315395805664546 0.676237412414029
P 8.3803533980603 5.782871237062053 1.0481426995438607 -0.13222669337861098 -0.3355413038429834 0.5609591739642985
P 6.889585807635249 8.879762664426945 12.762068184938531 0.15318118414309104 0.3300075185089478 0.13528476347864443
Ni 6.815380736942169 3.207788167951502 0.04319904003468763 -0.18824717460828871 0.332939090333446 -0.8271940781019753
Ni 5.2777190872847966 4.453042876107087 3.9567164855777484 0.14425174286394513 0.17610925369417413 -0.7029190354702733
Ni 0.5234887517924935 0.14056030300078598 4.847568810191513 3.0334142491579756 -0.38689369017303044 -0.8549594211407018
Ni 5.696718752971331 1.547374693625161 11.730488441263317 0.817915738123843 -0.08654693195330901 -0.43781695938545895
Ni 7.844040104374975 0.8627952922855167 0.9393510673457064 -1.062966294874421 -0.8875355553045101 -0.8923355477963147
Ni 8.421052160237119 5.781541694921976 10.21654896258165 0.3462067539766296 -1.9727089824035895 -0.9932197223079025
Ni 7.141395549207027 8.066507589549763 2.6087749595505314 -0.6901097995207469 0.5967602428233078 -2.6305447523819794
Ni 6.523610867715837 5.781486297332806 12.324371832907154 1.1588597010396364 0.07099458604100677 0.03530664572109403
Ni 9.182002678006388 2.617452991893996 0.1463788964499311 0.5929215858035078 0.003649423827129199 -0.1310334444014582
Ni 2.064409626279361 8.523251479324056 2.84679901105738 1.137450382125925 -0.4749709427279368 -0.9679594050792169
Ni 4.659149606613699 2.0400900846337753 2.8901633205664248 2.4459693701983234 0.4842811643852692 0.43839262938327084
Ni 2.4305507589662834 4.370943648957296 12.260277745530734 0.2791726952452676 1.7960456559781584 0.5177924087688374
Ni 8.98432561398513 0.5107149910230676 12.28810210798447 -1.023454609933044 -0.9293216381023608 -0.1817811072679708
Ni 0.984212035055491 6.055325813531147 2.722084265145491 -0.513369082890161 0.43965272704261704 -0.585195935024476
Ni 3.5847502963896116 8.280933191363388 5.247995510815686 -0.5592586463334238 0.2716452765199709 -0.5993881673644581
Ni 0.20933364007575772 8.042021855136667 10.098443149057731 -0.7239876832151144 0.30365705353987704 0.18246759181203412
Ni 2.999474766809623 1.0292687409136758 4.0788229283328885 -0.6105974058167161 1.0381286670054508 0.7115728544905294
Ni 1.6883984897886684 3.821962773215121 6.823501100221322 0.004577849178669535 -1.1358742958880568 1.037736830883671
Ni 6.754664979211959 6.0329267216434515 5.9424052143535295 0.8276306514187618 0.1813818149470231 0.18670142738772363
Ni 6.095775286556702 5.607251646461943 1.6385582021056628 1.2999019358273483 1.0549346828191961 0.6257735993365223
Ni 4.4076076200562415 6.380195742286495 6.199942143352323 1.9236042544571388 -1.3684498601000754 -0.4350234558007217
Ni 5.896731748669253 8.908430916822368 6.475992023358543 -0.12162963458905504 -2.018563321733543 -1.6208239470952603
Ni 7.900896496726348 7.035013712137763 8.08397075624242 1.2807353902012264 0.4197598447734319 -0.0040613145535672
Ni 3.041789292003898 3.8118988778492557 3.488195068345935 -1.5383966937372797 -0.3144595434720197 -1.463562936455841
Ni 1.3959361506977124 4.315776883075605 1.1911848145394583 0.27589453871462805 -1.442557280738451 -1.0579133058315457
P 7.663259305050536 3.5009614427701385 11.526490512317775 -0.7237143749490698 -0.2922071598317225 -0.1673837008957182
Ni 1.5362490111335396 1.3515534488410945 6.67797624993776 2.1767643276887285 0.3035436678904644 -0.6036860234088636
P 2.1096786895626973 2.5344766362490154 13.099307472062366 -0.6349943466038419 -1.549706462323144 0.44867241404272407
Ni 3.6806065915165944 3.519251880127733 5.568815875802715 -0.8163653629175875 0.5372497461625005 1.6568643856585852
P 4.46422395618788 5.790100622448724 9.490829464938134 -0.3565680426062956 -0.7954615228853849 0.48433798576513365
P 8.808198212150963 4.182167130929336 8.607746652205446 0.7984655998190313 0.9122888509897902 -0.301405538501539
P 7.250584197460899 9.179943734275573 8.084632757433 0.6326546427270717 -0.7889345204001446 1.6953555997552479
Ni 7.720401918279288 8.41271482306705 4.7443806441378955 -1.0269407687094314 -1.0196172384648245 1.465818822369553
Ni 1.2052853475695031 6.618987050403346 8.456857468703932 -1.7062280236933778 -0.2524540483035007 -0.18069275929979847
Ni 4.164698424477761 0.996048653274793 7.0310250857175305 -1.5857672126014433 1.0459936715758242 0.25420162712222677
Ni 8.741831900325424 3.9511130194332136 2.5113841512035426 0.15458732046199827 -0.20141327967660153 -0.6009958781712101
Ni 2.850113633476046 7.29697967839069 9.828378978561318 1.0518005080655886 1.3118351969298248 0.11417317831100983
Ni 4.5292699588048695 5.441160441199057 13.402613889233328 -0.5824708227838291 -2.3489997002497933 2.261762427097679
Ni 5.623907854939027 6.908393289158429 4.106876267488525 -1.0887390329631508 0.5287003139305927 -0.23360889057253964
Ni 5.873695584506103 3.908549205087674 6.2953330987302785 -0.20825035720309296 0.5662582175797086 -0.14146903791248538
Ni 5.3785057678479005 7.617343936560218 0.28966660742418177 0.4910377663828124 0.011754569432766853 0.6168850385976408
Ni 3.8322667248007223 6.446460491865222 11.748150115983835 -0.6050600209382547 -0.2195848083793057 -2.0116411406924133
Ni 3.464962242741232 8.026842915704115 7.7847046699082485 -0.12709502857900046 0.39025823576988916 -1.1847769351260307
Ni 5.310939174923679 2.261375754572939 9.328223691327185 -1.310400264255511 0.3812164372825951 0.20306007125140513
Ni 2.0589991284037676 4.443985370277809 9.362385537981956 0.1866554046411366 0.4563103902039561 -0.7115350592740585
Ni 6.523509305469024 1.7984181018800889 7.1081459161872536 -0.15259060174694367 0.28326486303677023 0.3192335678218954
Ni 9.168485666248932 7.9113758740109885 0.8862727905757201 -0.9264564007394237 -0.4189080382960979 0.19931037440098578
Ni 1.4570858562097533 0.3710392028626943 0.4573477234962449 0.2817437984065535 0.4755301576655165 0.07691403684923527
Ni 3.4084751676509915 2.977269566484022 10.669299609469947 0.10970485812701107 -0.5707501919127912 1.4077638272083497
Ni 4.168271568979219 4.02939904586181 7.974850431681858 -0.23571745227511015 0.7492498002160127 0.5088233725010076
Ni 2.3180382553622176 5.992089465493707 6.57503183327649 -0.4597950063184468 -0.10393041753707907 -1.4018793434031147
Ni 7.442204458399582 3.8258036727309004 4.574491010844258 0.963080736830677 0.7287005153097514 0.2408766278785464
Ni 5.304670014415953 0.12318761903710551 9.087375286065825 -0.4241803424386308 -2.179173194240537 0.01837027497707159
Ni 0.3454842949786197 1.2082675844531496 2.4070344823636614 0.4067166384362286 0.5313745183286461 1.3281899841387643
Ni 6.922704333027321 2.5595717441429797 2.2940224771639137 -0.1388657959616834 -0.43831446784716765 1.1494399503876334
Ni 7.7094701273497614 1.7714948735435179 9.649083757919783 0.29799779837157064 1.2024910645763418 -0.09619679633824722
Ni 5.1225966046775495 1.9090101557262649 5.1578756360472475 1.7438571469000614 -1.2801093265814534 -0.6954630934128604
P 1.3677849424678752 7.99599569146801 6.716624378022142 0.10090937132256816 0.9473738676183814 -0.2518169289401341
Ni 3.5468768112604567 0.7049537113431805 12.841027292075543 -1.6555986315722842 0.7662699889230932 -0.796905454420763
P 6.0724344356531175 0.3997923982281778 3.7739487593884165 -0.08308108489189563 0.1901428489691048 0.10092274105900682
Ni 8.763058409909023 7.119651995457842 12.022078268324849 -1.0457098217868184 1.9691739726671378 2.087434947894276
P 3.2431872274310676 8.071087123587809 0.7024488170195483 -1.124646031272405 0.13771085642163378 -0.2613649776398853
P 5.132106524151716 3.76810708361045 1.4893715711779705 -0.9656022177009499 -1.1912525155480451 0.3219964752790132
P 1.324297834969504 2.4111800686198754 4.047255535437574 -0.547377835735438 -0.13641887708308764 0.19598336691028181
Ni 3.0674106769949763 1.8924001119068234 1.5046142178380684 -1.779902984780025 0.1110307760272862 -1.0348859916984372
