# total energy = -340897.39146209054 ev
CRYSTAL
PRIMVEC
9.01824787641174 0.00000000000000 0.00000000000000
0.00000000000000 9.01824787641174 0.00000000000000
0.00000000000000 0.00000000000000 13.19911734559783
PRIMCOORD
 96 1
Ni 6.497196799789775 1.7679102908465374 11.357193795812133 0.19221644366868185 0.9155307549658555 0.3187903096368897
Ni 4.7134594836345665 0.43920310870239665 5.875164944940527 -0.6138855896496848 -0.8821192693849453 0.456500137617259
Ni 2.7102991744393363 1.4672779742141664 4.820238245892254 -0.46186114481885615 0.7866166709002452 0.24591804695719585
Ni 3.549762793161567 4.167846459019283 4.815420697789753 -0.4117683419275231 1.038940364273469 0.013505747795918675
Ni 5.05275302961068 4.7015553962229175 2.57678491404485 -0.31489688811975447 -0.9051422126426799 0.22819671841803282
Ni 7.1108344693642005 6.187311760669258 2.659357796740714 0.6984309177919327 -0.8897893843356934 -0.217332007789387
Ni 4.923467425721741 4.767442716396787 11.311749040293357 0.15110296145782362 -0.8871941128046914 0.32202398608283894
Ni 5.558559507381253 7.945536453121772 12.371216427229331 0.21934569578530608 0.2274996923510082 0.3089044179817454
Ni 1.865938647031859 6.452926220165694 0.2829376121547983 0.5294292216768172 0.9550288130604778 0.7302915139459552
Ni 2.643627266686063 1.6221573660381507 0.3336760792725403 0.5089902370961751 -0.8100512477741018 0.6372247785962574
Ni 0.4297032862179792 -0.03682331039336749 4.811275910990969 0.5041766177576157 -0.011185584303174284 -0.4978509326499039
Ni 8.682083825221474 2.4605117402515684 1.2667509162905275 0.04451170925912979 0.7243761769027847 1.0720070649204507
Ni 6.982432653783096 0.6000940646692637 4.916539607578083 -0.5288694925186053 0.0391707566621906 -1.1364535654302945
Ni 0.8711113565659426 7.583435757854703 2.3861102921039588 -0.7621708791530551 -1.0403236177742408 0.6282585705419051
Ni 7.775046473942056 4.095069197343521 3.809041031585713 -0.757325892355928 -0.5074205786162099 -0.690957749343339
Ni 7.527297163811132 4.028397289590247 12.64381732348168 0.4634937953262728 -1.2113099484195524 0.09517092617689417
Ni 7.838381629920852 8.547540582725723 6.86645798399991 -0.6346130520050232 0.6671873863966188 0.6910068574137196
Ni 6.875530341527273 0.6446387990337328 0.6135528980428585 0.34655873799940956 0.3144515730522197 -1.1411651119733508
Ni 1.9578616492946908 6.462395380606779 9.085269854905201 0.13087737843956815 0.16338769236244763 0.4019937790392626
Ni 0.1233083090886051 5.072782558505583 1.361317167053628 -0.5968587160743849 -0.9349117305956285 0.283966259979169
Ni 6.408529385069067 1.8859591576787231 6.988364857343234 0.6716562208012498 0.41153205754700095 0.019342923302986044
Ni 3.545722618040038 4.382002795204456 0.3457415933240896 -0.34520093841993454 0.5161232485965306 0.3220640952921551
Ni 5.890945075359393 5.421662502147289 4.840340822596274 0.11418423405460335 0.938463709612945 -0.2792804244677255
Ni 5.14407180925489 2.8072543591080015 9.321336024701436 0.39272726613567205 -0.31780557712611723 -0.12467253518043689
P 0.17513618056947375 5.560633704430252 12.3513645578208 0.30511795435611966 0.331735556943648 -0.1058111794995597
P 3.9952552280464513 6.317219623672897 12.56441164949716 -0.642350529858597 -0.15538461955231306 0.7588562129575253
P 2.3994131097864764 8.529044155997472 1.3726945887797914 1.3654095306118548 0.46780296422458795 -1.1640196479740212
P 6.075936397386026 7.654652862619698 5.785648011254535 1.2957292925068975 -0.5008028161893762 0.20776981802224861
P 4.724777384923672 1.0970788922079613 12.577280689448996 -0.06791774688789594 0.04893349247590927 -0.27896957809552597
P 4.04190662515286 6.009147252408245 8.27584692222611 -0.7963927764504026 -0.25441297180208444 0.06397007509405757
P 4.61424973695612 1.0543594512466121 3.76350428993694 0.8820740179693066 -0.3360951194639244 -0.503671653096739
P 0.192921969352242 5.813911200609162 3.482217918998106 0.2467027476420203 -0.9006461245445392 0.09226789359748626
Ni 1.5689587208553344 1.1859627448816072 2.6020874125682316 -0.5830809455640021 0.11437192458537723 -0.2541736020977687
Ni 1.8445473626830473 6.5483483026677085 4.734536932951617 0.5119038111985442 0.06381555179406428 0.39280388500987834
Ni 6.01911241649148 5.532523825292291 9.233931164706206 -0.10047151245420116 -0.1779715037138935 0.24974693378498275
Ni 8.536484210629752 2.400035368901176 9.926884325784764 0.2653676710413752 -0.9238027651666605 1.1025530560281078
Ni 2.4169175292304237 5.087788923242692 6.968962096687051 -0.30394373154236043 0.5517330273803401 0.08469933722160897
Ni 0.6592781210756492 9.074521906892167 9.087895968734195 -0.554272248862426 0.13568585557180504 -0.13371999009468583
Ni 1.2785440792512954 0.9549242483671866 11.325542450669206 -0.4367052143785189 1.2045952554035384 0.40913013297372763
Ni 4.03209477128629 6.776392740833138 1.6670745540466356 -0.0649290965732172 0.9970144134636441 -0.6336653433797732
Ni 5.574323404953648 7.537659130808089 8.086874945515005 -0.1990401514587346 1.6938553610606375 -0.5093370789126325
Ni 5.452387673216599 2.88442350757882 4.819684525462652 0.303858885138038 -0.6901249690293986 0.021416260892246984
Ni 0.7818252900297519 7.3907518702506945 6.879036636364885 0.9100941573313166 -0.2471066679486583 0.14514417277122746
Ni 5.056847314220444 4.5119737859443685 6.988985312808326 0.130463173720285 -0.5235529654016984 0.48602771476273066
Ni 8.35881570601089 7.223138712195461 9.038412841743499 -1.0336629179246133 -1.0126991711887527 0.34882130878134116
Ni 4.828920113279523 0.32413116554792715 10.342273848715038 -1.146100087381123 0.19223084184638506 -0.3560839038810254
Ni 8.108000191546664 6.986553993136977 4.938701050309436 -0.738303071396522 0.36123228085118436 -0.21203193573271226
Ni 7.161733461297039 5.913355421736627 7.040580513489785 0.7970070129956339 0.33477562932155247 -0.29135818156786597
Ni 2.3203140562352846 5.1572745243841736 2.6719761293970614 -0.016963624437532077 0.22858829742949663 -0.5084140528777308
Ni 2.338639136250793 5.31327217896501 11.43425021618246 -0.40746097280142085 -0.7147209132012078 -0.6181065697095677
Ni 1.0691493780307821 3.328283639568622 3.7316410159650926 0.5406508014242496 0.3435351206817374 -1.0563423618
Ni 3.5737513329456476 2.7228525757098025 2.8649215461942052 0.25722550155021506 0.3907979103234431 -1.005321647777759
Ni 1.0969616549834527 3.3230260009618107 8.046380306344908 -0.677883175547568 0.43592617012064927 0.41810354011693157
Ni 3.4925239728572213 2.722690247245098 7.108027990574423 0.5684395415017437 -0.3947370974768492 0.1689135072766833
Ni 4.078169000518194 6.653474020059823 6.065654692796617 -0.0073237873549228715 1.1994857020911147 -0.13212127814899827
Ni 0.8851302231427671 7.371416746454805 11.256854062654382 -0.03222183614818321 -0.07245857218104294 -0.11742151004497842
P 0.32386873452998854 5.505442026430789 7.896332891820289 -0.5941480020114412 -0.23350270401197848 0.42639431937081407
P 8.543238878411058 1.5456375314261495 7.863519094505118 -0.8455705237266341 0.3199107963945781 -0.41663055511583086
P 1.6144648004607742 3.1282679163088023 10.447470810266664 0.361145634674649 0.12996180860383424 -0.41423994339646725
P 3.959164199393861 6.149597447369624 3.841537386569907 -0.944644127392044 -0.05337687295924356 0.02771289253423614
P 6.786917036294801 3.894566488689587 10.510285613333602 0.3701565799240077 -0.33476200247479765 -0.5538567585915624
P 6.38740864816143 7.72184782875924 10.221488845427782 0.16370059561717612 -0.5399884852499023 -0.4497425071784512
P 2.4213635255137143 8.564963837937318 5.798293398655 -0.38861195841571783 -0.9590980980338449 -0.05832598943440277
P 6.8400886267334995 3.9055867877934016 1.6098041698741532 0.9976304497810883 0.5407212496508688 0.3067158949708589
Ni 5.206631395902321 2.7855654725738987 0.7085051298220333 -0.09940656152479654 -0.2926871847919346 -0.5285378202107995
Ni 1.4707319632131524 1.158619416826971 7.022854245144075 0.009776876881105743 -0.2578327961169108 -0.9046416188571775
Ni 6.954088300196117 0.5032714482467737 9.043071668680513 -0.22096137701185817 0.31809096957701993 0.16575387860177906
Ni 2.6640445802466486 1.6104787348274798 9.205024974266388 0.7628488790566863 -0.28334842388951204 0.35832847694082803
Ni 6.4617821397401185 1.927785792084199 2.6754346275200676 0.1603995562684012 0.22821240214731664 0.380784491951499
Ni 4.141973105395024 6.9376029427805905 10.500861544132713 -0.1498469775635355 0.4271815911587998 -1.3925714357386276
Ni 8.138662234879698 7.301561397143718 0.32431243233351364 -0.20161742526760762 -0.8750325377414929 -0.2132025590020457
Ni 7.495354529256541 3.7924528661425407 8.260746767709392 0.28846929005584515 -0.19819580118056834 -0.5281285005875227
Ni 3.0164236041275365 8.548541608258066 12.317601138987108 0.685805258608122 -0.8114087902432606 0.10758961155622117
Ni -0.009149914460499278 4.801207037055282 10.084085916478823 0.4966391717299899 0.2861290719584427 0.25463280112237435
Ni 8.807401399973196 2.30785083744521 5.419425976633586 -0.6614422563827254 0.02898198905464686 1.6067682403331425
Ni 3.5308334905274372 2.7909313301571794 11.656404836553538 0.07919254847076684 -0.1849564196721589 -1.0408638065484268
Ni 1.105231388435333 3.39004962038861 12.595667093551171 -0.645969614668423 0.13570205352172113 -0.3970647171687613
Ni 3.085602584835687 8.397233442657576 7.923575215496887 0.5939924502701834 -0.22950592414775955 -0.22149436669719275
Ni 5.473941286030114 7.741895394150221 3.529312112083236 -0.1208315641677919 1.0535460300017854 0.8552725815057464
Ni 2.9419328753243392 8.394879679919363 3.569028476447556 1.2460306397301895 -0.3865843864627278 -0.13959804614201765
Ni 3.2188652361098824 4.234843023701965 9.40715637851619 0.20023417176683578 0.14018991408974565 -0.5574424190602916
Ni 7.250418912513824 6.050468864923529 11.365390481454895 -0.037480770554277384 0.5586441526778766 0.11344838432984333
Ni 0.4450803009494964 9.18526599281266 0.5350364233149943 0.6024806902468527 0.07673817339300333 -0.39255783043734327
Ni 4.720547826593322 0.37765176218574015 1.5918659726995237 -1.2783514633500823 -0.4464746350604569 0.13662636510820342
Ni 5.940437220598128 5.643394166685329 0.4298078978952331 -0.13701665856808662 0.35636055458117977 -0.4401636052407645
Ni 7.975973040253829 8.722747105629901 11.35464614074108 0.03335029332567159 0.3524226529793544 0.14863367398172467
Ni 0.18584805559035003 4.89399579112987 5.674445798333655 -0.18272598767974338 -0.526967390399886 0.6951617601223576
Ni 7.802110236307479 8.575010166252907 2.72972267706601 -0.1812198354478621 0.3537331442606617 0.20246254687672227
P 8.516914612384845 1.5387926811644514 3.3581989719640175 0.08809139362229344 0.08114427288049895 0.7405892963275374
P 1.9481219414124324 3.3297085227588044 1.4466234807301512 -0.7202829806700176 0.18681609858871698 1.1144801464829965
P 4.670343239759497 0.9715358612552605 8.066086080135207 0.546130336481582 0.627122914275565 0.8129905329080837
P 8.419562624802458 1.6290563257880835 12.48591681856459 -0.030984364196656313 0.0771966010866606 -1.0673338278144975
P 6.243116679535381 7.697985544447708 1.3558268576474066 -0.20143487694315632 -0.12538267387358407 0.3129276802085256
P 1.8592200522427087 3.303889278622781 5.793000588880836 -0.8584764331550248 -0.5902000731072867 0.40624252701328745
P 7.019443543735678 3.8821032698995124 6.019074539849717 0.35746330072705534 -0.022764804500341438 -0.28446736798530364
P 2.481740696135676 8.537422108425822 10.062096722285018 0.34621472439642953 -0.41939089146978736 1.070238145945486
