# total energy = -381170.68102782837 ev
CRYSTAL
PRIMVEC
9.23310167798717 0.00000000000000 0.00000000000000

0.00000000000000 9.23310167798717 0.00000000000000

0.00000000000000 0.00000000000000 13.51357760195171

PRIMCOORD
 96 1
Ni 6.978110273796278 4.016149812739559 7.3523721921899154 0.14721133971290132 0.3651390721047582 1.0938768684103484
Ni 1.176943434718733 8.08853844607119 12.366923111368274 -0.37811594398040044 -0.333343010640084 0.45119183803046814
Ni 4.3152099668977115 7.162993896113749 0.2242554132826197 -1.6140999981078652 2.124786906180173 -0.4011131762065221
Ni 8.478600047570584 1.895269490086135 3.655341446387411 -2.5056482741161945 0.922805691360714 1.6445616570318322
Ni 2.1644974936396264 3.1851706872615164 12.324531172937082 -0.2430512669323621 0.11041345415826147 -0.6185189746566381
Ni 2.05312782462278 3.218271355759725 9.627112916476296 -0.7074205228850526 0.4280830199271466 -0.05169100061638839
Ni 8.219768516186964 6.4118164659857815 3.918437747305014 -0.3872150780681912 0.39861869191944255 -0.38734954676352645
Ni 1.3291788105063105 6.117049703975932 7.470251197689674 0.3743775599838907 1.2890454527288187 0.29599850855335474
Ni 8.605712154464543 2.008578110395763 6.593287534027955 -0.2037164738884814 0.9633401611396506 0.40581212434408814
Ni 1.0706150390631206 3.7601528434839566 7.229020727493816 0.15176862006628056 -0.7077781633347875 -0.3988140957597003
Ni 5.429894598915351 1.9834917739077202 6.8172484113761 1.284823187117355 -2.092839149628983 0.8883305404019799
Ni 2.8040467279117096 2.863831059439158 1.0578992118230277 0.38055180711540265 -2.77034514434279 0.35248924455123165
Ni 3.4910910357555607 4.959735842821269 0.8280291495825947 1.0069874655159559 -1.075752905116128 2.449641419733272
Ni 1.1864442960533654 5.76092898320162 3.3246643831250973 0.683007641258327 2.904207316442295 1.2553781423833605
Ni 8.267946839261901 8.965886206750909 3.194906992681701 1.3144788052002585 -2.019081399020542 -0.29390665902133256
Ni 2.165743962327843 0.3753098754018787 10.860023718606113 0.8616329765061354 -0.1599645256135116 -0.6377883644092114
Ni 3.7660712614776384 8.711902053599243 3.028879210031467 1.235006520705544 0.9514310684068905 -0.4477655859577385
Ni 3.397513553125339 6.911234920398084 9.355990280516714 -0.3515124824602591 0.21707464036294227 -3.851955793791276
Ni 0.5725141482197699 7.341497445367826 10.03342569973962 0.6076892310309856 -0.2417888552801707 0.12500549303982345
Ni 8.25587917573968 6.7049582021502525 8.120821985096013 -0.9131735675875887 -0.09588852106920905 0.3587077146571177
Ni 6.456467744328135 5.753117779422126 5.512579791830834 0.2350523078872855 -0.7903144314668067 1.6970581842686516
Ni 8.25629466530242 9.247505032375416 9.71305924080421 0.2559913720327978 0.10262995355810067 0.4168241591838757
Ni 4.110198183540884 6.555077267218196 6.672287796177013 0.01184275827119896 -1.3748701618041224 0.27194995224458324
Ni 5.28162945672728 6.1292189316134875 10.698090816424207 -1.6016751420809512 -0.7613252433233081 0.29779236722898395
P 4.630889703565425 5.258555936343172 12.685100401963119 2.198624875207246 -0.31247876559656507 -1.2669810167296116
Ni 4.80919012458883 0.7807916795397257 1.1990068538103145 -0.31617986859723607 -0.6427418517597446 -1.5170778776548453
P 6.648543952631687 2.257557922591773 13.538036765866709 0.42048258187206944 -1.525820913954798 0.6226491947749276
Ni 8.098879519632696 2.6397344555005184 9.12515074262989 1.057172056790147 0.6400100546508785 0.002718170262111448
P 8.080256354120595 7.846585024036169 12.278720217059616 1.329519501583465 -1.5117071002612354 0.3204813241860674
P 8.35657537954483 5.399610026342374 1.8017113969688412 -0.29358758511901695 0.05257443166260623 -0.1478911393887453
P 4.358411648321176 3.065980581363783 8.375025886060861 0.18598511804698936 -0.9957651144375754 0.5909693471731435
Ni 8.87365675692424 5.656502606433213 12.998614976353894 0.6240211354217898 -0.3020452289680669 0.057022183021314704
Ni 0.9222224800758096 7.0665726182541135 5.340795170461316 -0.26034502101580326 0.5846290067774126 -0.7763481990947017
Ni 2.653399445563935 3.9449718340916666 3.123339377154974 1.535170216380182 -0.6822946743517023 1.5907721220152022
Ni 3.9755149335036823 2.3531574544273246 10.452076676396016 -1.4876189489637799 -1.3495617649463207 0.8615234475114646
Ni 8.710563253897082 0.4626448581794815 12.712506093521386 0.5704234047009918 2.6647483948468813 -0.43642007903793223
Ni 8.847443982066105 7.637095186503154 0.9602924037443769 0.5398355046118057 -0.317669308658569 0.5710728653595326
Ni 4.864681063967975 8.756257872696981 6.93077585618877 0.022942724839102424 -0.536097120615296 1.6974163389390187
Ni 6.92711585479611 4.335402759646828 3.1560956509711797 -0.29571337321276814 0.33598584757956973 -0.1091178752752895
Ni 5.611555868846245 7.510998720762559 4.4965887039259425 -0.13718866536957663 1.1957156935257214 -0.919598754387642
Ni 3.4230984770886685 6.4544549282242 2.90313544876413 -1.2059337717093037 -0.0581400986758418 -0.7090703997836498
Ni 8.640733308052745 5.331912926920096 6.075852528865149 0.6925893714094911 -0.8705428774012555 0.017062097688609328
Ni 2.4049828525529713 9.223609765967225 0.994145570006213 0.1871328584981874 0.3868173284091403 -0.9367495551353158
Ni 7.262757556678085 6.978913553617574 10.615050149105047 1.3439804142038017 0.8234451525825045 -2.0113302943202136
Ni 6.179751695543947 0.5817767955384318 3.2192315983047224 -1.5439636463020958 0.3839605756866355 -2.40640163520803
Ni 1.3838110714557945 8.299090090264539 3.060419484394056 -0.31276338671651943 0.022492010454929007 0.35372003163453924
Ni 6.524681897428488 4.301526510631506 0.4338578946526433 0.044691172259787554 0.6861775543458762 0.7224221385002074
Ni 6.873249941262344 1.8270738031885705 11.359890901746176 0.7137894025258739 -0.6805969749343053 0.39707500158140646
Ni 7.27903551443606 0.7003436670920571 5.1082401223354506 -0.955841024549128 0.3513952401561045 2.2968199329224444
Ni 4.754262404394732 2.886128999306152 4.433480455896583 -0.11519030672161452 -1.124277849299709 -2.0563045450380586
Ni 0.9240857199371593 1.5491482181217422 2.4066328077721155 1.9617943923736147 -0.672454548332829 -1.6069852414399552
Ni 6.052270264594221 8.842393475603476 12.412247482802265 0.6580460862169828 0.32253717827383166 0.6530033815867528
Ni 0.08091705399849403 3.8848920433196046 3.448732336489387 0.30985906858553086 0.11216668940394232 1.9644711678748294
Ni 4.708577018696228 2.4714704156926093 12.61261316953753 -0.33685719444092954 0.16662471124250658 1.1351415314870903
Ni 3.201513276729252 7.539464372360879 4.969361351024722 -0.17716931952757228 -0.03783172613579291 -0.9945191578456164
Ni 1.212906364649144 4.527709795485235 1.5216151097642365 -1.358485549798512 0.03118285336070759 -3.242910820063344
P 0.7820704640828224 4.639642683687127 11.257917760018207 0.48270816347119444 -0.5301912966538224 0.9447652263509405
Ni 6.292358600147616 1.336851517764891 9.039218267954066 -2.3565733988319932 0.6002068066110114 0.862977663459488
P 1.8251902505041535 8.38666605698853 8.578959243174847 0.38004709956484223 0.6688074384985448 -0.059526694610723296
Ni 8.644408082407637 2.998191150927563 12.819425407666225 0.2427501907521755 0.8760401530704008 -1.2103087608485479
P 3.970741420082881 0.25595726691960696 12.381504025089995 -1.5211849578446832 0.1611734583199482 1.274692012220624
P 7.926432884893214 8.015670809868162 5.550377339008272 0.1025960149963717 -2.0172188918905065 -0.5572012495837629
P 5.713166149689421 7.977242641865499 1.7166837662296492 0.833063649508875 2.265477414055421 0.8330070852393268
Ni 7.350832110877364 0.368551245181324 1.0267171817945338 -1.2787782664748557 0.041868358099011765 0.7860566846317172
Ni 2.1915412476232397 5.9983027869451195 12.92565593244706 -2.7302940419581754 0.7281176462230879 0.7625133500941385
Ni 7.230949522375065 9.345006583098172 7.5057109235940995 -0.05134981522688575 -0.9101998296712452 -1.3642283658195602
Ni 3.2078656504884613 4.804435077370817 8.208998103410629 -0.07433084950309134 0.46773714398365895 -0.05600993970671644
Ni 2.8827312179930864 2.0826552828814333 6.4330572157431405 0.23688781843412748 0.39996337887279504 0.2332975299797079
Ni 2.685087449548831 4.882796408903396 5.5364990643026495 -1.551079688521587 0.35383084618079064 -0.45863723856491984
Ni 5.449164081525047 5.941546912674969 1.9053335706058134 1.078582404145123 -1.3082065990383016 0.9857537529481605
Ni 3.1313047737277513 5.1864361813530735 11.141241827630115 -0.042983445540061456 -2.668316057593482 -2.6561069171217997
Ni 0.4862225058997118 1.9922355209280282 10.960213948454863 -0.8285914726701342 -0.09842260034497244 -0.8195306480194466
Ni 1.0645027259401598 1.4745447588566025 8.282363403778806 -0.08062413871097082 -0.9724259254910027 0.5991585678521553
Ni 2.8763788442338765 1.609938957701158 3.9608296857362064 -0.47514989150796233 -0.8140462278661077 -0.3849360522260274
Ni 4.571354665775621 3.8958148022689434 6.315719269985083 0.273223162530052 3.6539880494611134 1.4125535352875094
Ni 5.2604948876359545 2.9135513104469273 2.0223742104989775 -0.4301108489904528 0.5748629285295842 0.22213020050897872
Ni 6.572001542073765 6.650722964560718 13.312995615655442 0.3657193700882605 0.09476134944330132 0.26220161460856783
Ni 3.316456155985653 7.389371076096756 11.362715307462661 -0.15348431720580663 2.741088818580834 3.073972630196313
Ni 4.729259165819236 5.2040991043201785 4.14214102112426 0.4172689600307781 -0.7409613349549755 0.3894491096050325
Ni 4.804730536615431 -0.04140953644284966 10.437738593240962 0.31841749967850325 -0.4584904285744104 -0.8367177013216944
Ni 0.1251648458099209 8.623513573952561 7.043249804132363 0.663312991042877 0.08172482797431732 1.2050719379296408
Ni 5.737772364904965 6.227532995258935 8.258024948503692 -0.2033171815675337 -0.5391788448644135 -0.4327742547552288
Ni 4.882971837829886 0.5880654608980217 5.044807792447153 -1.5117420672642288 0.25008709073322094 -0.7144005537473116
Ni 0.6291592252731898 0.6440540644423138 5.078983193947647 0.46207711748440417 0.1428453494347217 -1.186763626538756
Ni 6.803807785676563 3.2397660158054236 5.302754792717211 1.3178937444190786 -0.41972410643949004 -1.3550361577973309
Ni 2.346749682059749 9.017056054677568 6.386908328354647 0.7998956473973385 -0.007450542740774266 1.6806221501998153
Ni 8.375152379549963 2.9003110430476435 1.5721968091320848 -1.021121333814177 0.003626026788361497 -0.636570175731394
Ni 0.18821677192077646 4.79186882637331 9.230935308613384 -0.6914483158265123 0.4835653692651672 -0.08018165185691353
P 1.0918511722697817 1.72360766896516 0.09583589923124312 0.333167147183852 0.09583967010914461 0.6645352934857524
Ni 3.614039013920734 0.9577496076204142 8.70859475667984 -0.9861147358320049 -0.8181836470732491 -1.9412314806205988
P 1.3915668766269227 2.8667394863783313 5.017752958741866 -0.5341855054148801 0.35855833356344696 0.23607355006294828
Ni 7.02636246168237 4.853804470525607 11.730041320088976 0.6331030431183999 -0.7502484166838563 -0.8566488930279829
P 7.052963026799062 4.894513214572637 9.328989922109654 1.7219521192968537 0.023712256015275292 0.9452465368627333
P 1.9871665482626122 7.038023868743246 1.3495091764662004 -0.4848401222125327 0.014914969438619474 -0.31525118613537967
P 6.06527970445865 8.161932369053691 8.951447482790657 0.46120294240956694 1.3116346508832442 0.17699268474039195
Ni 5.7252338132116405 3.5371365124084386 10.367886487953276 0.6394210149166278 1.164110922136247 -1.2613585283365116
