# total energy = -381166.79721190844 ev
CRYSTAL
PRIMVEC
9.23675006094303 0.00000000000000 0.00000000000000

0.00000000000000 9.23675006094303 0.00000000000000

0.00000000000000 0.00000000000000 13.51891737919283

PRIMCOORD
 96 1
Ni 0.34748191929794303 3.239411380668597 4.005303299385084 0.3444524902896842 -1.6745139804195481 0.6806275710619246
Ni 5.6473120464409465 5.817850163002779 6.414699394993937 -0.1702049723945972 0.24596946902042155 -0.8657796516846572
Ni 6.9709198581225635 3.756004338642397 9.12174052489237 0.20480302208444084 -0.25129062412301884 2.155260649288998
Ni 1.2184751223729038 5.240368548560606 13.389392465520526 2.568352338013635 0.16645990352986814 -0.3827102482193022
Ni 6.924071061762188 1.672710780617031 0.8516902427764761 1.7172773395290035 1.0885685688235576 -0.6030694728707872
Ni 0.7451988275323098 8.680309773271743 0.9628794691067795 0.6825047334799793 -0.02824896754336425 0.2582613990138971
Ni 2.1933679086220934 1.3868426026680407 11.204248959161696 -0.8973129464062483 -0.35439417488342834 1.6524436308830703
Ni 1.1788309910679482 3.6422907085176752 9.093229448448053 -0.8336868849151705 0.3820134792625937 0.17935964231067172
Ni 0.6982179456459177 5.973711083701713 11.358351202647102 0.5412472973576679 0.4620588626519591 -1.189718595402022
Ni 9.210416096599491 0.5492310143498621 10.578728854949995 -0.5515836462866694 -0.12117223533666228 -0.5343461993624604
Ni 5.221220765663315 8.211406155914785 7.841107616591329 -1.9788202375076498 0.16679954625747404 -0.08277692338791551
Ni 0.12171450303626721 5.3734793538345365 3.4031309283279807 0.07473117026530356 0.2402909305784055 -0.41042211231227377
Ni 5.741259031413616 1.8933213193140381 2.6739070600435557 -0.9584118706000976 1.0496772910749987 2.261252834451112
Ni 7.263152156870509 8.570928178930345 7.057578123614167 0.4903798210838394 -1.1602558100562146 0.5064425309736569
Ni 4.551685700013034 1.1568567626489152 11.668677371109231 0.20572836211218762 -0.25003309756683395 0.23476203034037635
Ni 5.64393139591494 4.202638151578048 4.21692925128798 0.19307776322771264 -0.7746702971716466 0.07428019877081402
Ni 3.2689043236454665 2.271852573975823 2.0262150609612997 1.5582610367613745 1.1354819455456446 -0.2603113395643904
Ni 3.855234744655709 1.2384911597768735 7.491008002323249 -0.04772815931389845 0.6654562626381249 0.9973448002198695
Ni 5.758319308794849 3.13486984336443 11.286403385318655 -0.45161941248619 1.3270317021646048 -0.3330982416191296
Ni 3.3112086389708852 3.234054065627387 10.687366890910674 -0.5176006044730054 0.535231173070575 -1.1409846205314285
Ni -0.0718739233278774 1.4365086078000875 2.130134964985685 2.8689261246424977 -0.18283808777757543 -3.0109847165098658
Ni 2.719936556672629 3.7301968589438776 7.514044457000454 1.574114201743547 -0.8352907390671808 -0.42747598247076696
Ni 1.3942320027248822 6.593820299721792 2.024849869300798 0.6159941513522552 -1.694141781952805 -2.2407601138143987
Ni 0.17006242393317503 3.9179153306378685 6.38517412339182 0.9737173906089165 0.011682321433934719 0.09338786613454239
P 5.904343090668111 5.518339305198846 11.633068775910319 -0.07724930870146696 -0.05003572440115254 0.06408037541967675
Ni 4.727775103367571 4.789698275843904 9.837553555748634 1.2080042810850873 -0.2664555047889153 -0.32089192936092475
P 2.540521923292514 5.4589192919917675 9.527970945667226 -0.01917425893560569 -1.317704768336724 0.860760344093195
Ni 1.2733598912950952 3.5829353525610945 1.539980529446027 -0.615230019492721 2.2582485004071495 3.1097631575323605
P 3.7890441936465504 0.0021706362666972343 9.670649176664753 0.1815787614491776 0.13407865898568522 -0.06098168188969497
P 0.3207433751922615 2.8081659933513183 10.820392718083951 -0.6156786769943654 -0.9457070214389196 1.273001769002395
P 2.4219959463807736 7.224034520319604 12.770469248209569 -0.77992794602616 -1.5294546540526432 0.0897142739376971
Ni 7.2787345542403745 4.370673108870627 7.057442343388123 0.23321422623728222 0.7749867999708008 -0.341642788755031
Ni 3.179409452207043 5.033428399968754 1.2012790647656262 0.5616423160742521 0.562211815424477 0.6419255265060363
Ni 0.1097353618691198 8.992511925673302 7.757804138725532 0.3876071713002873 0.7477575319412024 2.6248590148511117
Ni 0.7801820947514123 0.6908821187394881 4.2694632673170885 0.2964931888015862 -0.3870482134730237 -0.3369551534713745
Ni 4.574084818935336 7.9761461316050895 11.968960421219105 0.014619806795703854 0.005503189206416329 1.6775818207115947
Ni 4.328839867798833 0.04319289068225365 3.3765798902487414 0.1474872190821073 -0.2585179951093935 0.7629715206774795
Ni 5.7286416308165595 6.11548596054229 0.34755211859848295 -1.1229575878263887 1.602076748394744 0.2859526942815785
Ni 3.9039031807800826 5.995916230872521 8.009052977408219 0.3584588318711053 -0.18823380487185 -1.0904452170209802
Ni 6.9750117384040395 9.156094769431634 2.629889327579957 0.1188477009685437 -0.9911641253304543 0.4704959376757188
Ni 2.104454952438146 0.4869513033207865 2.5373657257932356 0.34622757991223596 -0.2652861670711625 -0.4127679868366311
Ni 4.204005190588564 5.755012552269413 3.536954810707397 -0.18018573775639288 1.9606970455443782 -1.4861202529310664
Ni 7.89695947324596 3.6733723725067655 2.3865489943081046 0.01818001334313643 -1.4803982628456247 -0.3336782824923157
Ni 6.687231553190342 8.398736684105792 10.829247990377068 1.0935752780095294 -1.0006736074827862 1.024389205932171
Ni 8.56202395186185 5.389080224704544 0.7759451974938208 -0.46620939448522286 -1.315763071229321 1.49732049252226
Ni 5.351652913416641 3.1560774215275655 6.471871183233721 -0.9870634728985194 0.523272458046802 -0.5842094027414906
Ni 1.1249622646535726 7.044472098938352 9.23447505950956 -2.30290162034015 -0.11445522832780287 -1.559081732890457
Ni 4.122924998464869 2.2150373242887813 4.582926236103347 0.017022245589609394 -0.27081738130203686 0.04909470064412191
Ni 2.8151674499051764 9.191748624705895 13.122475327692314 0.09651381335803377 0.9421822961151128 0.4117984238345101
Ni 7.160430259330339 1.836663094378205 7.601051871644742 1.2097246062103038 0.5167467411131423 0.5594131696334173
Ni 6.78677600870607 5.5531249059664285 2.4833713795778936 -0.5127967553264587 2.1335379128999254 0.6601330506529987
Ni 2.588987150915324 3.976744191840399 3.9770896462930567 -1.1878653442433673 -0.9720574864079904 -2.905211589337094
Ni 2.490172398655209 8.419999682769355 7.786517499996404 0.18044747605821182 -0.11911149615289164 0.547731876640747
Ni 5.9544709333037105 7.662419915441806 4.793226714371046 -1.1929993230358227 -0.09918827486640337 -0.5268959137320023
Ni 1.9767476459557805 2.049579420266026 5.806591488341175 -0.21680261764847825 -0.10200131883516625 0.48519596289005473
Ni 5.396266416259822 3.9794875066115014 1.6021808044244916 -1.9043312651601396 -0.29613966211690934 1.1091371370035286
P 1.4033948587953657 5.522902259733946 5.169661226766701 0.38629256625392183 0.27391350372885725 0.0965714060688466
Ni 4.962139162920375 0.020379965356769267 0.9124782186690767 -0.4834416992031093 0.7732132530101458 0.21880139324606188
P 5.227834278714187 2.8148626371528316 8.54330660151787 -1.3908804211894499 -0.7479742759376989 0.7125516734640309
Ni 4.6423998224608365 7.1241852520515305 9.894631129137693 -0.22954243381264983 0.713877591364306 0.21686201013150394
P 8.875510012523286 1.0165320555694923 13.542170159045742 -0.4718935893541938 -1.299151430814569 -1.8706043052213397
P 4.9614002229146905 2.210261924502048 0.31844619544959085 -0.5185915076313649 -0.41330560450765597 -0.17009055830391998
P 5.520011156961706 7.415087458789245 2.518560626323581 -0.5763053174030656 0.02948001173698794 -0.4711258579502338
Ni 7.358687862855401 2.911719198397883 5.221695534616966 -1.2049433827715763 2.726882702283781 -1.1381890600641624
Ni 8.346604466704774 1.1580483034080813 5.6732673141406025 1.3298169782192257 -3.1696809169339155 1.5165484875139363
Ni 1.839314041648597 1.1306521026973406 8.991648289541658 -0.22358107402289235 0.5641545409731445 -0.8541196988482258
Ni 3.62433446637955 4.809307896244747 5.593803553279341 0.7311777732056505 0.9807850960889753 2.4720768659186523
Ni 1.7748045791523694 2.0887247670671445 13.67506112966798 0.30561057772182204 -2.314950323974568 -1.530609593592693
Ni 0.6582311309133262 8.07650342112707 5.868656906768601 1.5481244625480048 -1.1061436015928432 -1.567333688486604
Ni 9.194020865223374 7.796943943476608 3.144283939036846 -0.6404929078245679 1.7162830939365346 2.8693269596253423
Ni 8.936860506495213 3.133632118854909 13.408508843467574 -0.5709959893750102 0.4629440934703898 -1.4063754315012553
Ni 3.6058332559872324 3.5328075099254947 12.92446342171914 -0.2605568799162932 -2.0313388762316564 1.301853146016448
Ni 9.179380616360756 8.066943384803531 12.417152473891742 0.6890772444911746 1.183524036555536 -0.6963087292426073
Ni 1.561491073011493 5.885555541023591 7.392752073442433 1.0655181147619972 -0.6440292031126005 -1.8298001267207844
Ni 8.634707938170958 6.406951609034338 7.130188215922708 -1.091642836873507 0.69584233112915 -1.1841174471651608
Ni 3.6826553063281726 7.389769526844491 6.18851447762905 -0.11874279995956323 -1.0242634789875842 -2.3062473968839314
Ni 7.591638699647334 5.720614895004815 4.761227841099901 -0.32987073582076737 0.15103842676847537 1.2416664492242229
Ni 3.2500983005008046 7.905180180809197 1.7151989072688631 1.1081482907276978 -1.4445252030980993 -1.2451960596440361
Ni 2.250247815559632 7.666825845225697 3.792934712776477 0.5547409609687285 -0.04295464918465506 2.336463001235363
Ni 3.6980344951964743 5.520999489219308 12.066877361372313 -0.3634228607445999 1.7699132205571648 -0.8592264239471719
Ni 7.9921811297284355 7.377068995496794 1.4235420580503448 -1.4940976147095881 0.5462969439664334 -1.913544042007659
Ni 7.719318295879486 6.429914169710974 12.491371608062659 -1.3890929902717237 0.9160205501180804 -0.30141248048007446
Ni 6.596415826491759 6.427660402693637 8.452392041593527 -0.4104077141345706 -0.1434287327420175 0.6487232661541602
Ni 1.999737916882629 8.157324984248774 10.710132708810796 2.0099048747275967 1.9839015086852994 2.6845507742847894
Ni 8.580617529754878 5.35858047596993 9.150076103085336 0.9948228051289641 0.13199786519725654 0.4950857111999409
Ni 7.236578026916092 1.5445970571315388 11.741058392016008 1.1258760470247644 -0.6560573379217282 0.25638886458153265
Ni 8.0442025061286 4.571036691411889 11.273844176247046 -0.11311388380856004 -2.3784943672748007 -0.0013518860422041233
Ni 6.718839711933483 4.110778672121436 13.367356350876015 0.6359477116560467 -0.9273220911738289 -1.3492288070869345
P 8.199527695323413 7.615155465328232 9.465526820486884 0.22407678271238826 0.2359884465483097 -0.6026074456327041
Ni 6.841476042626841 8.926709318167127 13.272764640748386 1.2104905378420507 -1.805116507931175 -1.1799188357027808
P 7.9572662144598585 8.138565144854468 5.0551966488612035 0.5726029288508138 -0.37918269468201793 -0.7337437341606137
Ni 6.05525311332896 0.6157125229862593 9.32661995454337 -1.1177181938043204 1.698863098687874 -0.14130602997205988
P 0.3256970442553667 1.9453242222140612 7.488952825432441 0.49116092222423796 0.4281074454071788 -0.011962571678514881
P 7.918324076160303 1.7081429538895867 3.525206588292026 -3.1257006546982233 0.9238084215936154 3.0961355394465966
P 3.72960570693933 0.16181400611972552 5.580527572402218 -0.597600479336416 0.8044143612032985 -0.793590274004601
Ni 5.776663494435958 0.7151803134763977 6.13804856994085 -0.7556230507322084 0.4757106491074387 -1.8630180082336496
