# total energy = -340897.55851522513 ev
CRYSTAL
PRIMVEC
9.01108450133012 0.00000000000000 0.00000000000000
0.00000000000000 9.01108450133012 0.00000000000000
0.00000000000000 0.00000000000000 13.18863302208075
PRIMCOORD
 96 1
Ni 6.430508191056165 1.8893090457942592 11.304597525727106 -0.08246736256729668 0.26859080596436324 1.0969141125747752
Ni 4.665876511334495 0.34830635288670064 5.931943805227342 -1.0237155769039143 -0.5387129609715883 0.47854863277686616
Ni 2.705893529279227 1.5526459152769136 4.697461263851193 0.37089037276623865 -0.10453925476567157 0.3594867589149874
Ni 3.425572809327897 4.298575693288471 4.8345045412754315 -0.9334971096362891 0.15023624258215418 0.0039314738439222615
Ni 5.220220411743106 4.4033655957211195 2.7718150195394635 -0.014231055997717425 0.7113046884308072 -0.04970019543860473
Ni 7.237865323944261 6.115597818684182 2.5795779480323104 0.5250051244671925 -1.3941588348304055 -0.2363556000797413
Ni 4.919142054181863 4.53461204244324 11.375328231820887 1.2728171637954142 -0.002235059978105828 -0.3946311680266042
Ni 5.6808400215676595 7.904271072031298 12.453855031483037 -0.044611725172103815 -0.34226422438911375 0.18432495673574706
Ni 1.7324801299856918 6.590229665010822 0.33628015942323736 1.2271482010033898 0.2566570306412547 -0.22178747245757935
Ni 2.7606629012790247 1.510591183601518 0.6033651015629533 -0.14067148171185453 0.3489285237831668 -0.7486185943899172
Ni 0.33879785645132937 0.17461319231050884 4.750189625196507 0.7436663925909645 -0.4335725822868081 0.06741226800638712
Ni 8.693975490252134 2.3512713072193354 1.393062310916135 -0.06434468482465693 0.20091782809742173 0.4174257973236166
Ni 6.823562688795416 0.7838922686749539 4.8548677901805215 -1.0119149847245605 -0.5606367576278732 -0.8247870113223795
Ni 0.8462336550366186 7.398523950693913 2.600099792025785 -0.38589995880119343 -0.2624276145764448 0.0907501714013792
Ni 7.603012492778711 3.910261026031599 3.8632276701327926 -0.5436276246643863 -0.28915551748959234 -0.08685777832550846
Ni 7.545909249875994 3.99036055674996 12.41074149737099 1.0729354902719908 -0.717800580567796 -0.02370839936053336
Ni 7.924690189660706 8.720098624412616 6.790220774788102 -0.9391800189536793 0.5786812738344098 0.3797933316828233
Ni 6.9903308308816685 0.7375203263833848 0.47971950467331537 -0.7549622772197578 -0.30728102344570946 -0.15323543441979418
Ni 1.9566128364271134 6.581191547189863 9.28714545073569 -0.48913592137440925 -1.0697262393060738 -1.0552355018890667
Ni 0.15064280625314444 4.854000923845152 1.1857659148801796 -0.7522505347155497 -0.2253656767271409 0.7041832468946775
Ni 6.3735401144219574 1.8379458637608859 7.079011617433431 0.12792986577546997 0.34490603288733507 0.14019994139207467
Ni 3.338066167095249 4.452791394572532 0.44732015011173737 -0.28491962503137386 -0.3322343509569375 0.2527268423489131
Ni 5.959012202158931 5.662916974363382 4.799567665299713 -0.23408608731927427 -0.3476470859675819 0.2536133587189245
Ni 5.254696821297436 2.8074935077750673 9.280841295972436 0.07923034368723773 -0.2081076609776416 -0.011339336272219181
P 0.3541085902395584 5.519199186600176 12.220403061382157 -0.00678616968389799 0.03665750332203364 -0.12149413745245527
P 4.119741708966657 6.178468155709945 12.568279585535 -0.6370283463147353 0.6808232320124985 -0.3481034567787102
P 2.383233624179401 8.459380914628126 1.4254274233563575 0.15895742450523592 -0.05084767877948662 -0.6329166381392067
P 6.156147699236845 7.749667894110843 5.702263875126317 1.058577678888422 -0.7912544267825729 0.5074244352709519
P 4.9352809066418235 1.0493137646035537 12.710888108787978 -0.9295674355645798 0.11836047691948004 -0.382085984371742
P 4.118516201465511 6.1627798574783474 8.172652709240243 -0.649718540187894 0.09135026687922332 0.2548343756102192
P 4.765755372677989 1.0138461357468243 3.792087860799657 -0.12735470999829035 0.5702547403336113 -0.46039484468597486
P 0.13583579209222524 5.498897213070143 3.6575505659935734 0.5419355816739441 0.3896026044637613 -1.0203620870506491
Ni 1.3526268711374758 0.8803631378351102 2.6684560773360952 -0.29183100743922646 1.2175636426387484 -0.4248701694168037
Ni 1.7815004300315782 6.474464261575253 4.778703400092683 0.07142730270305118 0.10823907221476199 -0.013918924073937317
Ni 6.111227442669061 5.608922555636369 9.193571645263908 -0.7542004593530688 0.2271176264212411 0.6330536779377033
Ni 8.474429425855446 2.2350102941325654 10.15923010517886 1.6806499181139571 1.1031611219257518 0.06762207002434806
Ni 2.4389761933124623 5.207010161767505 7.0792359934391555 -1.1251134578271267 -0.56468547377595 -0.2602604317217969
Ni 0.5109023628183135 9.061546640835177 9.012320888061156 0.025003464022873068 -0.47018586263446766 0.6548990559475689
Ni 1.6463071282689987 1.1369555731047103 11.550737102898687 -0.6262343410230247 0.028996901452982317 -1.4177443354598294
Ni 3.997407224881556 6.707635085837635 1.6281371773475786 0.8212882541405017 0.8644323936281436 -0.8584226970989539
Ni 5.692446298490289 7.74454959807664 7.947034976062137 -0.6154981855524432 0.8434555342661603 -0.11707621089041773
Ni 5.15440345006385 2.8455653400717345 5.08291220843259 0.5944629621486989 -0.569758003202851 -0.4379681402513425
Ni 0.8093071315884499 7.504025728807376 7.010035369504893 0.7552008755931252 -1.471579379002414 -0.07658750674775196
Ni 4.97785828122212 4.337548634041863 7.219826934857523 0.03914041764488743 0.3749601719602381 -0.32542144180016214
Ni 8.137054419657288 7.158351513722772 8.961610108550452 -0.01845872092581982 -0.028505563638860587 0.2321392480055486
Ni 4.54556051019246 0.5174804545524122 10.484606852275716 -0.2332481647990112 -0.6795029705391781 -0.3647456933210815
Ni 8.072679231508793 7.1978921528039015 4.651156003585422 -0.04106617391269057 -0.16715178739057018 0.4930869356023572
Ni 7.212102633166469 5.973249715775198 6.936825714046657 0.27978513201828586 0.5149084023528229 -0.40917924104410824
Ni 2.232757522990751 5.436468419188175 2.4967273331955657 -0.556107759409268 -1.7544642329919462 0.8823954058644674
Ni 2.5276272432851514 5.174552235156239 11.280726261599982 -1.4794078739078973 0.030633922835773052 0.6866305827228949
Ni 1.0605595981434925 3.233880007328606 3.7637065488466197 -0.06516332407121037 0.3281308703115252 -0.31351054929518907
Ni 3.7201091194933094 2.6469970805476253 2.5371105086837344 -0.7164211837217661 -0.18739433968969016 0.5684688520777823
Ni 0.9921924995317021 3.339796295332163 8.241115325348446 0.38592592694312244 0.18649136825944657 -0.5896755680623845
Ni 3.5295787474031948 2.395524743529142 7.121941325420306 0.31936083742837906 0.8119788038141178 -0.8019797836198769
Ni 3.907233301617 6.751248735143165 5.901544010331239 1.0851176341604796 0.8207169550180641 0.2648125698688536
Ni 0.7982009698593038 7.559714231433033 11.28832260589018 0.06207080118881568 -0.8593997163002426 0.45557942557520253
P 0.22177090117634293 5.5108999777137315 7.902206632556939 0.7037898681110007 0.5444385506014559 -0.10122253168761276
P 8.527576802633138 1.6616439942024728 7.9744935529554875 -0.723294770913148 -0.1472434785024174 -0.5562846513067646
P 1.8790273983030172 3.2241300138268323 10.310701931212193 -0.6625324041231105 -0.3347275496924364 0.5209044720352577
P 3.9882249297075196 6.0747685945099335 3.7348494516284303 -0.23403029438067438 -0.11458995413345427 0.0130419207856227
P 6.868564045124304 3.85506813305714 10.345810017794689 -0.26039361486555157 0.7595684085332015 -0.21244639756231154
P 6.342019340605687 7.762797044325339 10.1504731331964 -0.5165755056426007 -0.2697709423153935 0.4043154851939037
P 2.3592371059767916 8.408621475260759 5.6617221045497645 -0.10543374155548295 0.39951523559178287 0.28872331504818016
P 6.970353256396057 3.934672054124302 1.464202120249271 0.3472215683943891 0.029865162990548567 0.6618801152510922
Ni 5.194124310836325 3.0213806110635155 0.4301837705901818 0.3418132528946242 -0.629202165402097 -0.4572642694767931
Ni 1.3569071363069236 0.9494439143446276 6.847115861637316 0.21204376280725415 0.8812332672355663 0.3188417317001154
Ni 7.0075960689125365 0.6370079857948129 9.16213016899183 -1.4359937685883204 -0.6160468589670617 -0.0648301091015077
Ni 2.504036223888069 1.4808906488678337 9.03129913326826 0.44182813742738103 0.2534830037886473 1.5163988493099496
Ni 6.217053619826946 2.088535114491778 2.5145314340835547 1.090118944029813 -0.31469917028665156 0.47704582297909454
Ni 4.107198279249033 6.98329317383464 10.432024470500393 0.7761080580594375 0.17338311301226267 -0.3987691014543777
Ni 8.315870381809965 7.0699437630333986 0.3492678356100271 -1.140925742269035 0.09885917366175877 0.44282264013016637
Ni 7.557488493544921 3.90302512512409 8.165570897878833 0.5081692838567765 -0.9835585450690545 0.47933204791011
Ni 3.219056773215466 8.414289447453564 12.432212208569398 -0.025747798388065336 -0.48400297102321804 0.10265360770718449
Ni -0.02474804265551882 4.969108518107312 10.051109705890154 0.30508427290470685 -0.746118967896515 0.49668056649088654
Ni 8.513465444200811 2.2854994009629155 5.7745111467527686 0.27699162843354874 1.0288657536462862 0.47203834246217413
Ni 3.5829874456333357 2.5925611186768167 11.530426118284087 0.3887160880937499 0.14901702546307238 0.35376271194701653
Ni 1.1144098395174296 3.2716724960036885 12.631611290090605 0.0781139706946074 0.5906831833912924 -0.5887661688742376
Ni 3.0846023803874014 8.362142301062839 7.959261215602993 0.6934224088337476 -0.46622919197956475 -0.5163057969209818
Ni 5.546971349236467 7.769924812218041 3.4584948067943757 0.08560770796849128 0.40941038321830786 0.9806933077061174
Ni 3.182093304320571 8.459353881374424 3.5626980876216967 -0.15107982152937208 -1.1698848485055464 0.2413671943617198
Ni 3.4373412857727366 4.283959714120377 9.19777892064836 -0.07395315444869843 0.26379492723761666 -0.2079179135643387
Ni 7.401407497755435 6.286529081840509 11.398961603315438 -0.35854162139289864 -0.4107098187560217 -0.3095006568048476
Ni 0.5006603640991675 9.064249966205354 0.20359193917035556 0.5102102255462051 -0.04402937030607256 0.9499753097969704
Ni 4.587633264036989 0.20299450426354632 1.580051326771317 0.508698159777053 -0.07478619187295507 -0.08835441747569299
Ni 6.0064465513209795 5.452904637438856 0.3152212547895542 -0.39891771121710007 1.8521188448226422 0.37924311560630813
Ni 7.878751680536822 8.795251069703552 11.381856762589868 -0.14015468997643604 0.5045072616241569 0.08213594736980692
Ni 0.19240828211393102 4.745399332640552 5.687347826842133 -0.17025947978161646 -0.19573114169015968 1.35018345769072
Ni 8.005429507383342 8.764297994215019 2.5923448526472024 -0.8591847720759589 0.6949990092922482 -0.08865497943524732
P 8.267480857683788 1.7528271589385618 3.5780232391452333 0.6533311972398167 -0.4250303491437518 -0.7145424786418145
P 1.7787610603231316 3.2680860843459194 1.6178627387239903 0.40327264575168614 -0.09296311989229797 0.06314757919276222
P 4.694018128438044 0.9571123473113646 8.285375970525907 0.35096535170753745 -0.5396912657244577 -0.4791142754723491
P 8.516096680894451 1.708672844558995 12.353120117105655 0.029830195987555076 -0.11349055042168842 0.1447219976321443
P 6.359338645143958 7.691185955269336 1.46210524087047 0.37925828511495974 0.3464898324346871 -1.4760528413927354
P 1.754728497782253 3.0469000025579915 5.999575599338445 0.023330704306140464 0.839360024040548 -0.3312485900049005
P 6.809135942403234 3.9090625517841535 6.143964712901911 0.18004561263410282 0.07420075168313027 -1.8538743940611684
P 2.3157676340243367 8.507437028625315 10.133973837353748 1.2432420212414588 0.8012495903220717 0.7579573552923398
