# total energy = -340890.0649885529 ev
CRYSTAL
PRIMVEC
9.08436293993950 0.00000000000000 0.00000000000000

0.00000000000000 9.08436293993950 0.00000000000000

0.00000000000000 0.00000000000000 13.29588342408048

PRIMCOORD
 96 1
Ni 6.567176791530151 2.261107012752135 11.076282081354766 0.6910665070070614 -0.8189580633454283 1.0858056613664397
Ni 4.876013623411247 0.17540178750957008 5.8502016247564095 -2.2008275392855197 1.3732321119800674 -1.1420860811257234
Ni 2.762345820694296 1.6204868246762825 4.845099536427283 0.7157388129427609 0.35719282067448804 -0.7806082599226362
Ni 3.2085606424883912 4.580708238284094 4.534109090299099 0.2981510361199833 -0.5127005960682267 0.3204615266917255
Ni 3.649951667577084 2.8668159941634648 2.7210028850892365 -0.685611140319445 -0.05490616511957641 -0.363601038193677
Ni 5.131747523700863 4.592536078793386 2.306290816995696 0.8971044299398679 0.8062257033804243 0.8809329623863281
Ni 5.103413395783441 4.655236351600708 11.211154892176046 0.5067083830405338 0.27454033867957883 0.8157925211332531
Ni 5.938720565391273 7.8604266954493545 12.287750008173433 -0.861980332543225 1.153896186386774 -0.7600677167671233
Ni 1.5638276532043514 6.970722360734273 0.2514242785249386 2.498507035085723 -0.33434676931425 0.8231489614983243
Ni 3.0884653648133993 1.7921721993192232 0.22985800097573805 -0.5531502194428409 -0.10404251763491114 1.7192691731480516
Ni 8.09661104675587 9.131964972012792 6.690635100354559 0.1668093164494869 -0.15519230103584883 0.06227623233140243
Ni 8.545887298850756 2.398417158142264 1.0706257811289883 0.26646964585630234 0.4544183153875657 0.9482421291559474
Ni 6.810456030269657 1.0392329482196485 4.740048872168143 0.003470217936787572 -0.23993920366594165 -0.6507307835024921
Ni 0.9537581775960479 7.518409516237118 2.559563763372893 -0.835925287327386 1.4220511903652993 -0.6240980114063124
Ni 7.783663828856792 4.026334991679223 3.615961615311672 -0.18602008504998285 -0.12200758675376407 -0.34696240119573146
Ni 8.077406703563364 3.8675584967319074 12.291844330537133 -0.9744223870957411 0.3868211850638822 0.10665527266740986
Ni 8.702011159828245 7.329173152451356 9.099170421906384 -1.886848277884028 -0.5090156910174717 0.22105599360819347
Ni 7.115699708420747 0.7837488679100689 0.2158053999896983 -1.3413131517842833 -0.6256622705696386 -0.3875092122698423
Ni 2.0525209559673017 6.427186759081464 9.16624844920021 -0.1865589882725884 1.30589157775188 -0.10130866364351584
Ni 0.11383433475717034 4.710805399523395 1.3135897924755062 -0.2017050998854075 0.4301589286195688 -0.3026214131865111
Ni 6.6072842537794 2.288441860749416 7.058186606835243 0.2762668344523823 0.04071136167643311 -0.9771102183405495
Ni 3.778795186734755 4.4679440414777645 0.33534471465457627 -1.9355506281857378 0.8914528880810454 -0.5201387975138267
Ni 5.951711204353091 5.788401612313505 4.874988907274958 1.267791942666681 -0.6169264333585375 -1.2341580566623196
Ni 5.447429134835959 3.2229230202496746 9.181830856900355 -0.8164129283260715 -1.1257680606919902 -0.8011266915909623
P 0.11364901375379893 5.801637529073902 12.581402947687192 -0.5437433243066442 -0.7440947383776346 -0.959463966013696
P 4.00620404346986 6.285861325284954 12.459053839574139 0.6355376207018216 0.15914177260190013 0.8276342509631875
P 2.5067027640337853 8.710877498028761 1.5147339391641703 0.8349960906448974 -0.11219702842124549 -0.8881487634084769
P 6.511898443220595 7.939615086938984 5.620196457101524 0.74490926385913 -0.5926693605833857 -0.9649306455552221
P 5.1285225748676835 1.1761161285529906 12.502305399826666 0.3553943340131686 -0.8488702775238283 0.2949032186066469
P 4.021801894586952 6.43360031929618 8.142571564028266 0.8875322128704005 0.04293588013157767 -0.02441056763388054
P 4.699822404764767 1.2548230488083711 3.644733609521372 0.84734998422456 -1.1141798416337585 0.47244483387197345
P 0.32730051129745025 5.680488465301308 3.4884544059381146 0.6710383847115927 -1.9030873654507092 -0.5394637230946838
Ni 0.7058522728262926 0.054650618832449725 4.686426603217146 -0.5643800267203893 -0.2354261462869365 -0.2631624358599403
Ni 2.146907486605968 6.783529978603343 4.43840532703843 -0.5824613097021324 -0.5917928715157034 1.5291864879929211
Ni 6.051557437100886 5.629870395164768 8.910515457346886 -0.09432451901619884 1.7133060135860816 1.1331345283593905
Ni 9.074597220233853 2.4678398595032545 9.862275075102653 -0.6937180856972955 -0.18235883414831175 1.7789982135775686
Ni 2.5738543746671847 5.382512277478509 6.992291363592346 -1.515597693564893 -0.7099438035275386 -0.9676675848704109
Ni 0.9334273734026565 0.02927163416977003 9.068204554053832 0.681842160195316 1.1005362827083949 -0.5623395992515928
Ni 1.669424287674405 1.0505157269543188 11.191783396705988 -1.0376237023445742 1.3390757778133326 0.7437232139708289
Ni 4.058784335995038 6.91299123443892 1.4717476423086262 -0.0035262679857036043 0.6622030458081498 -0.6891996290016518
Ni 5.8433165861066465 8.258821430883302 7.629137907315235 -0.060380557970586335 -1.0642567315510703 2.669626291764473
Ni 5.013941505479281 3.040191060307733 4.8148249885922105 1.0593731782065239 0.3887292007198725 0.8145802459927068
Ni 0.7213783574763932 7.440892647522994 6.771792981723156 0.9561464716046888 2.103473489414377 -1.473020482324315
Ni 5.070146458805694 4.597523394031175 7.141085960573756 0.26354578734128803 -0.06610126250444745 -1.7570679891633805
Ni 0.8894154519745323 7.515166398678118 11.177357428404333 -0.4935438206341177 0.08283220210588314 0.42134930074773885
Ni 4.7649572868320655 0.5413544461180307 10.353916253630018 0.6269056560584365 -1.1898546067592541 -0.026640999626296055
Ni 8.2968667427519 7.093470272379091 4.455357656665457 -0.7953026287100174 1.8021867358788897 1.8394654177246899
Ni 7.389148116385569 6.330138510110062 6.922262735225235 -0.8223532050699063 0.21037794506905702 -0.7208141705831392
Ni 2.1310098515128337 5.387172555651524 2.310398765903762 1.6563136553614377 -0.5514262947731986 0.19561827026137923
Ni 2.119518132431225 5.515979737357554 11.623314254291774 0.9731183235723369 -1.270297225587038 -0.4872412754548576
Ni 1.06483268290105 3.040327325751388 3.5603980180067305 0.9534990066795127 2.154182842843787 -0.11615549884836125
Ni 1.0886791355407517 1.0331918468842576 2.447851535791584 1.4245269055993015 -0.6188365058970567 -0.8734237984934764
Ni 1.2753537089857903 3.6089630221255287 8.134607303064751 0.6952887726185251 -0.31520053540310233 -0.7952303807111852
Ni 3.717711930525478 2.6407970449536458 7.185042467388127 -0.5330611620024497 0.10345939143793151 -0.6016566516836607
Ni 4.196294337369195 6.753833196249369 5.907892779854958 -0.6112658926386506 1.649559881577372 0.4725960147378571
Ni 0.9568741140743021 0.2622919018746052 0.022116789941568526 0.17273365235372187 0.08733626062382378 0.8670109529885971
P 0.17692523516963787 5.837239147319614 7.760102625212476 1.9721032304987909 -3.1114153484238027 1.6511141134383693
P 8.753792028417312 1.7403731620043361 7.917392918387656 0.002987878983730338 0.19238048005037192 -0.9929854948099093
P 1.9975333072708776 3.4136583039156454 10.383034362066603 -0.657766350193035 -0.10786806202858844 0.8633551014035648
P 4.2523176034374 6.1779845157244 3.5215478315842743 -0.8238940671944649 1.030039205129097 0.22835844080687764
P 7.149738816245876 4.110665132576118 10.036370531225716 1.0363157821664282 0.05273204028639306 1.832016931866445
P 6.584664190132598 7.580110509124299 9.856797204267705 -0.5139560657418827 1.136866484597997 -0.1784132192370024
P 2.4133427664039893 8.529317420902256 5.826522324394259 1.2622722984000325 -0.16588397642174013 -1.4042565853860396
P 7.0373743314076025 4.170749108865255 1.198957850654806 0.5801843407424975 -0.1335022176569249 0.859856601332003
Ni 5.389688924177695 2.9858665701037648 0.49074455190811017 0.6421808370499521 -1.419409124756762 -1.6527971575677471
Ni 1.5675976638121518 1.2084110386993292 6.787721503650184 -1.1550547254712495 0.7900922881536715 1.5822815680456879
Ni 7.117271303204241 0.7863578969379251 9.062021736657039 -0.24766665421718634 -0.12256088815407279 -0.26076333950014446
Ni 2.989700171251938 1.7526188832075047 9.347657725902403 -0.31425256966753623 0.19252729004088134 -1.1563839858056342
Ni 6.311197613441956 2.227385857628869 2.476052123574222 0.7903977352092323 -0.3012587285110295 0.650120660722319
Ni 4.2904719276609224 7.051409672104112 10.433332662628697 0.6960930136873753 -0.23382897700314567 -0.7726406683361274
Ni 8.439981796041751 7.67083604151009 0.17405275961738123 -2.0355899381985263 -0.5591056656953274 -0.013729947991582805
Ni 7.994557313820857 4.139916781147485 8.028586428846783 -0.7219482841875825 -0.7949455024809148 -0.5829045678871381
Ni 3.2628851326923587 8.769135517372915 12.495232314864658 1.1535136062363747 -1.448819459598079 0.18025052955605733
Ni 0.33290283790427083 4.934344317658685 10.095870382979715 -0.8955088033179739 0.13362640193961503 0.0989080246218232
Ni 8.894726834608676 2.3337183254946625 5.513124522094828 -0.5629610348856756 0.4286959709207972 0.7543657812863396
Ni 3.854059133447109 2.536672077275071 11.497335943196033 -0.3273304858974169 1.749514859406471 -1.0327100670930407
Ni 1.2052496804065231 3.224894327001223 12.731274041673478 1.1437341582521074 -0.10197637913450179 -1.3796472714777916
Ni 3.225175942251444 8.91060630097599 7.746713182718892 0.9459407347162807 -0.9722523760276159 1.2959725188659552
Ni 5.861903192621248 7.961508401552958 3.342358773177374 -0.8136065692255278 -0.12269509973909191 1.0907995150366052
Ni 3.4279752598623765 8.561130859814345 3.566420950616301 0.015801228698314723 0.050111314834094346 -0.2009880192137248
Ni 3.4934553477202694 4.548576846670143 9.417022287340766 0.3817026328903943 -0.04960326484942425 -0.6161723288013323
Ni 7.378710183401563 6.019698576374244 11.188605686559944 0.2607052325686994 0.24242905996733086 0.4098240737169587
Ni 7.938897422269066 8.894863100052332 2.5766623512427773 0.19820917091700702 -0.19132221398918664 -0.5419967739291827
Ni 4.832217909820391 0.36937110437163 1.3288197268947288 -0.9005412235355587 0.13916661503155386 0.5948080041929434
Ni 6.146743391675664 5.922141603079861 0.2824401103734982 -0.3453701170079471 -0.5903553677382284 -0.3506272516418284
Ni 8.007956749113642 -0.28485382559878153 10.964836025606731 0.1732090493282436 0.8262134593562609 1.4285285705595268
Ni 0.023824650168716675 4.871716719754645 5.62221772784908 0.36532007776731273 0.22238653949415893 0.23635997095511552
Ni 7.5110057604651725 6.249723729627533 2.40566375443586 -0.637011891254503 -0.21015040243928323 -0.9777324253055806
P 8.397285290363047 1.7449425965482486 3.3674479666632133 -0.9713118664912176 0.35222159271214176 0.5775492171124957
P 2.0308365817002665 3.3209432960524854 1.4046968681035314 -0.7730183633905203 0.2474949045260125 0.5660342744943607
P 5.080230101636196 1.2664146958819937 8.196153861782458 -0.7227327277620907 -0.8718572253373048 -0.025655752894891297
P 8.726211902621452 1.5731572939132936 12.293812911979808 -0.633828865540831 0.8211442723634698 -1.583227476898725
P 6.336443057969853 7.936844356251323 1.2186345807186512 1.7224660828187948 -0.9272372447695063 -0.17274187988383796
P 1.8649561149570475 3.508726161772589 5.849656562981789 -0.10821593228631039 -1.277199094913194 0.3009059731573011
P 6.976836136972947 4.054369335620601 5.721883181774958 -0.3249115920432792 -0.3249941244547564 0.7962320825028222
P 2.6488367061293165 8.450419729025757 10.388393227747425 0.13281341912001643 0.26472798057484725 -1.4430146799908439
