# total energy = -340858.91190974566 ev
CRYSTAL
PRIMVEC
9.38278230149096 0.00000000000000 0.00000000000000
0.00000000000000 9.38278230149096 0.00000000000000
0.00000000000000 0.00000000000000 13.73265032440214
PRIMCOORD
 96 1
Ni 2.416263491660673 6.281782161184184 13.160081277749759 -1.6704094713328717 2.482803765417853 -0.47197457910377427
Ni 9.144393991666895 4.595264566222844 2.193886858748779 0.026991440987179323 0.01051015550270448 0.1015320925082316
Ni 3.7977374498802328 4.272750188759055 8.53508924223071 -1.5736850846259287 2.2779390368575414 -1.2000803982523203
Ni 8.501936119101202 6.557767321010788 10.401411910058886 0.7334521710621239 -0.977909060092761 -1.4064708194285391
Ni 2.491888717342404 2.413251618528683 8.885643126447263 -0.9465909667057697 -0.18185618348028035 1.6426757528630291
Ni 3.6999031783934573 8.824807042294012 10.610669536699293 0.9393764512352015 -1.7279021662327017 2.3704563274616723
Ni 4.4839566192920275 1.5702461561712648 7.9132753673753085 2.2393213244853434 1.8178005311567467 -0.8084525358284141
Ni 0.707035810317191 7.687088386554066 7.0439024100785845 -0.13966258083136593 0.5950165206593236 -0.1172757284957335
Ni 3.597987396587631 8.500406725579351 13.108418739892915 -0.7555279199152407 -0.1919343936518888 -1.9691937701614795
Ni 6.454293997336083 0.7159447621515339 12.309494527259481 -0.3220679519468969 0.3274826952045651 -1.061866891162655
Ni 2.43621128692114 1.549932432399435 0.491904561930289 -0.7566530346586194 0.5658743518777287 0.9202276462208926
Ni 4.3638007086120965 1.9370378835100022 13.3675270891198 2.3712824229073934 -0.6055156204184345 -0.019320040484850597
Ni 2.356326278055847 4.088331601814337 13.4841578884736 -0.8682700222066789 -0.6427058563154866 1.5417710095261512
Ni 1.3485497749792128 2.3656339981397525 6.906369586500071 -1.1718681974841625 0.40474871607658036 -1.890030018046119
Ni 8.731908114319468 8.615139388065232 2.567209002597999 0.7681283822880707 -0.2718131695564029 0.7567612781017097
Ni 7.020141452074067 2.8581362433052684 11.413892001923891 -0.3803047241016031 0.7257211209664534 -1.2934155567720562
Ni 8.771597283628864 3.2531701454953716 7.8561886430461785 0.40089514665844506 0.8472486827600053 -0.6975847677415534
Ni 0.12861542724006136 3.1812698844036715 -0.06285056752221767 0.49933163096048844 -0.5298156584819586 0.594217421796796
Ni 5.384675575839065 6.096800607298908 9.883320002610272 -1.1259680925179383 -0.3413206295289219 -0.0352343977222619
Ni 7.85397993608272 1.7469145649009559 9.300204475248883 -0.49722435480949856 -0.2640965176384355 0.8940440458469894
Ni 1.7509116301789234 8.403679622409008 3.0588658590744418 -0.8400539647837789 0.8563640147977123 -0.5547535593742188
Ni 6.516755179391081 2.677273730868414 7.057387344861437 0.491858719622211 -0.7221742841554595 0.5843163606330002
Ni 2.5623440299533367 1.217584899040553 3.1228733236595083 -0.11456038644709947 -1.0444263270887044 -1.0343206061132704
Ni 7.461451236778103 0.43622806978725887 4.264578723616844 -0.059059010945685386 -0.1059819007494691 0.7932246631350661
P 4.12099306714909 0.13215742757441043 1.045845265875454 0.525659984442372 1.2717547839691712 2.275052973558998
P 3.429801023095692 6.939627796791816 8.789995043246325 0.5376390111811192 0.1480492622331644 0.028622805943015223
P 6.503760025846515 4.076574975539002 8.848963015435155 1.521703806462631 0.543414994432948 -0.5045622832318084
P 0.9718122983572701 8.47523272055403 12.5232981119449 0.38174171365844584 -0.7556359062480147 -0.17833222948742192
P 0.8358548439340878 2.161286381499254 1.8181064259257866 -0.6975480009663471 1.0016894503418101 1.218850736881288
P 1.9387924638080773 5.627079757661338 1.5190368067015685 -0.37614082253190056 -0.41863498714036934 -0.7686053219244892
P 4.741908071456066 7.158612553886843 5.447302833141529 -0.12175921818838385 -0.42939351120845404 0.25160301315711514
P 5.833688624846414 2.53069590511159 1.4215356239879573 1.3736401460517633 -0.5577406670270008 0.36111478143671355
Ni 1.2623501535973194 6.141190550561969 3.5086783211373844 -0.21650874055714328 -0.25696299191744776 0.7256424452097181
Ni 4.509543466740426 5.877037079269441 -0.1923714332583444 1.5365928077593214 -2.481392229782307 3.731294436652761
Ni 6.126206247160762 8.050980834148925 13.282109991785283 -0.5440282025369146 -0.6663998574983169 1.3583389969183186
Ni 0.815360032463045 5.494228942471806 11.660201297757173 -0.6047211495415973 0.006561455267601604 0.4853188616211642
Ni 7.8428801045713685 2.4471234627856373 2.6264931745517766 1.3822299446033033 0.6914061497346673 0.06792957396243784
Ni 0.2943256844717757 5.248381279529783 6.039660401110425 1.0623253188563124 -0.4537567705441669 -0.8168343321342062
Ni 1.1378312491280576 2.7604520963359755 4.205569467185706 0.2895152148218562 0.3476028629932078 -0.4366522496533964
Ni 8.940365389626047 8.802701207094737 10.686157773758822 0.2769409777012714 1.3268571242599534 0.3194837361594885
Ni 3.158319598793558 0.09944904832794467 8.682001095038931 -3.2602935343161663 -0.9975075510499788 0.4934535749131566
Ni 6.33051633267189 8.8335611782197 2.373427337153555 -0.8661190373019471 0.23998342664031572 -1.0896386619592848
Ni 0.5829550817833308 0.2944026232869854 0.7171879808119345 -1.3920479591349895 0.21061371522894695 -0.3331267808642198
Ni 6.706315531059569 7.083606591839727 4.241383547387588 -1.4791980718899362 0.1202957462689799 -0.8118487059941567
Ni 7.929060960388576 9.196477816450926 7.835753881382129 -0.06713330331338761 0.22632238421345535 2.2344007472552745
Ni 9.008925380203763 0.7937786947967237 6.1855973828332464 0.3257387159302648 0.8992047641123222 2.022952194829858
Ni 3.3173577595014163 5.376700210847815 10.961497398160253 -0.5605688805044153 1.2735399008940518 -0.5858081146871781
Ni 8.399363542531392 7.278149200932161 12.57732229611739 0.010821001874903945 -0.18030940781845076 0.9625179223486715
Ni 7.708753230983237 1.3807702495438612 0.5670963030677896 -0.815672450615621 0.26496889294105974 0.0003347576315994235
Ni 6.241182861987553 8.064989328186497 10.714969483498388 1.5595854119997528 1.0386241185846306 1.4782128251585318
Ni 5.248634614653034 8.538641563625635 8.722155650352521 0.8043750233249308 -0.4191188687553234 -0.9708043307271796
Ni 4.304276337430347 3.882135577052338 1.2606274747592097 -0.9140438860076839 1.1949438483567032 -0.1897276158085571
Ni 1.889213841909533 3.383459461105361 11.151557852127603 -0.4576867017261924 -0.8708123290125582 -0.3819962528714131
Ni 6.203023086200009 4.875331236368499 2.7272764545288455 -0.27157354274177103 -0.5002855102333256 0.7975063212295556
Ni 5.887761599487087 3.790981846593527 13.125310562944382 0.6183341123393415 0.29767692469704216 1.0111189711858264
Ni 1.3412499703166338 7.717779467596863 9.33752918340793 0.7557300086237179 -0.8234675211800075 0.47014138254977744
P 3.1931860179788325 3.3241508939174924 6.764030901805656 0.3807356409914346 -0.2014968405293433 0.23087812190493787
P 8.477625330051406 5.886513689435514 4.346109472505037 0.6098340452881303 -0.9093855613000661 -0.8912482282694071
P 5.345568139034915 6.927195610187811 1.726468543898095 1.961120763345358 -1.476855796910005 0.9089564441824475
P 2.092876515439018 0.3474688253822913 6.869318855585429 -1.4463262608625802 -1.0743444548043757 -0.807836242400654
P 8.191685038159253 4.667671497561047 13.011260967013044 -0.09309707436700096 0.7052641386636821 -0.7378256175394712
P 3.898245814334662 3.7331651417981395 12.16063293228046 1.1371855585003126 -0.6365943441011102 -0.34448437196888415
P 6.52313547138408 3.88756820802873 5.34875734675318 3.2817241933861157 0.3598307725179674 -1.2319991013377878
P 5.874475579689898 0.9945936938852158 9.94557007206256 -0.3297853751958127 -0.30624126932728546 0.690282063432553
Ni 2.8404496985893792 5.536854922654449 6.4411900035163425 0.3874999562984617 0.32543455442628466 -0.2369541528956887
Ni 4.560248022520087 3.8703883335593448 5.178980591654163 -0.8183407414764035 1.029341407731124 1.4727515449336441
Ni 6.778319002757037 5.490757313005028 11.55509161684191 0.24036137880502476 -0.2216712585946892 1.2729691159922463
Ni 3.9914074602147998 6.216825159026042 3.5440401512303503 0.6157702082669072 0.2781753643290048 0.39712899474779345
Ni 6.687859598191582 7.96707999444098 6.605679560765279 -1.8406326985599137 -1.3954862953925775 -1.4074393539893955
Ni 3.4704753845510647 1.4912806599755517 5.397563765664924 0.33085546833153984 0.44388476284609363 0.08426610633893229
Ni 5.4345356812078895 5.747404558423437 7.708836737746086 0.07900254394714781 0.634120942859953 -2.3491020301556125
Ni 8.487055026305764 2.8770050185963303 5.269945728187887 -1.2569593708275513 0.7780232728042794 0.4284355181705589
Ni 4.461484855581389 8.939586618691607 4.01695114686442 0.03308058460405271 -0.16676123682037086 -0.012160803732250024
Ni 8.766840212981142 7.965034547890283 4.989016780344942 1.0959206383132545 -0.952126037591386 0.7502774701495788
Ni 7.921601648426172 5.534987748968263 7.411937356077723 -0.939141195295944 0.42968790252042127 0.949856524830919
Ni 0.568675425336057 0.7079600143779416 8.612294528458943 0.8104248290634365 -0.8786313108363448 -1.3037809591667804
Ni 4.913612988326498 3.469058584417325 10.107065583465959 2.2061060140756394 0.6726208987073642 1.5403486752573279
Ni 8.962546287084061 3.9734394320286315 10.212011065690223 -0.06411637086393475 0.03418950139751531 -0.3621843603518085
Ni 3.791225798934436 3.079888921191376 3.2932684041149054 -0.5757327327290471 -0.5091884691499101 -1.220720443100175
Ni 7.221814975746911 5.84430993445829 0.8727798455653389 0.025302740430846744 0.4406587997096281 -0.9186060514570695
Ni 5.851891222591149 1.9536641738211717 3.6090093510055374 -1.2480512697046442 0.04131659936059981 0.633162949822058
Ni 0.7145251471830916 7.381556845130468 0.7261438465579907 -0.42690519756896156 -0.9432158795859497 0.575042391530242
Ni 2.317894401580367 7.832380771129947 5.154550641268614 0.334670728312572 -0.23168236297378808 1.016203070576953
Ni 3.342963372514499 7.44495630541973 1.6214142213986533 -1.3523244152931226 0.3461669018776296 -0.6905751691929397
Ni 4.017866906421062 8.830633750128795 6.65545991248419 1.6877644176715514 -0.578467872272023 -1.1601269977878341
Ni 8.71709270100043 1.606501227143251 12.138797321212651 0.9279589534268793 -0.8486568759614417 0.03504902118433319
Ni 2.1381859713716582 0.8356953366342629 11.881406959432704 -1.7762430194299343 -0.4524496216969692 0.2821875708121914
Ni 3.9983038052366444 1.7834135882138509 11.03907330429102 0.1376864309416016 -1.5851655744617024 -0.46583118521019773
P 0.3501485480193512 0.4446584997221267 4.387059687761283 1.4488300011210404 -0.08921470859345926 -3.4165248181394907
P 5.863188092531695 0.8915294595206494 5.783491677591489 -0.7397428891668422 -0.5541395799393037 0.09525525836058434
P 0.5510095227413222 1.6227240578136866 10.424276812349682 0.7402370551944412 1.4557547532653314 0.37343165113085364
P 7.407368879355088 7.296436243717978 8.77288366308804 -1.103781014897938 -0.06120305387188169 -0.9820562494919152
P 2.7206409508561262 4.621010920971066 4.245792516810397 -2.05533883869068 0.1215645856790745 0.6319918123320922
P 4.829364985671874 6.931389713894973 11.989139128012736 -0.11088113782329936 1.84367199960687 -4.982818495397353
P 1.381276919790364 4.9994466811970275 8.862819508398776 -0.7079087753753808 -0.4141970059736738 0.7644864146601091
P 7.857085637038135 8.591616752732218 0.6688807259208189 0.8469746031630122 -0.04868075303515487 -0.47589422587315455
