# total energy = -340892.2393764948 ev
CRYSTAL
PRIMVEC
9.05368493146867 0.00000000000000 0.00000000000000

0.00000000000000 9.05368493146867 0.00000000000000

0.00000000000000 0.00000000000000 13.25098305770502

PRIMCOORD
 96 1
Ni 6.260668390647898 1.9531605014900277 11.237641957534876 0.6050710766818482 -0.1264417112657177 0.40906791227722455
Ni 4.6867667504592925 0.4203118902029548 5.958383958536847 -0.35059562707294456 -0.6661424900718721 0.6313451798870289
Ni 2.7848863203564997 1.577405416252669 4.608373608841946 -0.6994084512138535 0.26500283150278875 1.9147419189705024
Ni 3.5965039050155125 4.589602603897181 4.998310386138091 -0.5938266141162806 -1.2951183983957761 0.2351628653232208
Ni 4.9407950419464095 4.265046106882776 2.7449016262755355 0.22773057741489167 0.44968311469542555 0.1445967849081897
Ni 7.123973462515548 6.089934000425356 2.735612545547551 0.30358634820294167 -0.13896041255801875 -0.03750622447557412
Ni 5.3689890702407705 4.421032044370535 11.565007812979978 -0.5283179908905095 1.1996368829569983 0.1862910793231824
Ni 5.74480753127257 7.709076904159515 12.320724325468554 -0.4225554052406981 0.9905750855962037 -0.3890567592626203
Ni 1.645968972152303 6.342323574941942 0.6821734298829097 -0.07976976113047553 -0.06014993001701899 -0.42078134405941087
Ni 2.5051998858059252 1.3844623369212146 0.2428352208204434 0.8066044268760817 0.5775888121011794 -0.06118479903943657
Ni 0.5679295067190996 -0.0638692202685817 4.723803564730284 0.9134939270414848 0.11613724401591612 1.0299582153795164
Ni 8.501174744130871 2.401680052429929 1.2762735182319422 0.6111185684275088 -1.2106615162022765 -0.006032579347325095
Ni 6.869094124645946 1.0238721739249608 4.875142245748575 -0.8092966289962643 -1.4958899307233207 -0.7426862880658821
Ni 0.8358542991900206 7.665773129186855 2.8072208556858023 1.9019568513906921 -1.139972120106514 -0.9943075560554424
Ni 7.713694283468746 3.8499255996129853 3.798023540071742 -1.505716429895439 -0.4428210974682696 -0.5718521667277183
Ni 7.449462489076719 3.745409860895782 12.657709721141222 0.9642405614667329 0.6225463506484762 -0.08248870272353535
Ni 7.983512201456453 8.936711310895404 6.789750346111992 -0.2656584628089167 -0.31867666687716084 0.5027583972538503
Ni 6.563459829114471 0.5997016032090754 0.4452837639494715 1.4461668524665803 -0.06374767467060635 -0.9370593730662508
Ni 1.8062554099770916 6.504945863476107 9.454231710716579 0.8756904830404661 1.2872099421819765 -0.9472309142826139
Ni -0.12432248521682378 4.664476578186099 1.5318798670006262 0.20852623657229893 1.0951004564048044 -0.18182661579392553
Ni 6.641040855194488 1.9070681915619887 7.023816167718864 -0.8966097496916364 0.07413981653820781 1.2127896182888727
Ni 3.37198157268288 4.061139015113126 0.5038583892768006 -0.08715911161601118 0.7112985177832202 -0.5224720736326938
Ni 5.925808800194461 5.600011948346009 4.839100431450298 0.9059361692988849 -0.01910638181214774 0.3883293941782925
Ni 5.222590985083358 3.164489221684885 9.263550241878157 0.3279470364354933 -1.2783136681336114 -0.32876104769635633
P 0.04665997597252669 5.465311224105316 12.601843958341977 0.27729476149626436 0.7995349216238101 -0.31905050527681184
P 4.180801568701593 6.160914890198647 12.727012963098824 -0.2672090951254882 -1.7653160881047856 -0.7648070312243216
P 2.4155321903576255 8.247264150547716 1.3286626660218845 -0.6941544019037659 2.1303093786602987 0.5604053583433575
P 6.269015888144195 7.757450742687409 5.8444650626616665 0.3718031143884952 -0.03497523052360428 0.3262364815022898
P 4.5969360886824315 1.0159683069897463 12.400892894698726 -0.30928854079404156 0.1233137071596973 0.9580776271891306
P 3.9487375168305485 6.371965339370227 8.251996511655433 -0.1876085125830253 0.11949639029613614 -0.3165166831113646
P 4.850285353800544 1.1299632538182547 3.797758267103584 0.17369833025983633 -0.25241985263145555 -0.11880784886954378
P 0.18273142811011572 5.719348569277354 3.4420625261751168 0.3401880585863754 -0.8786832471202028 0.7108778853060338
Ni 1.3396013281423045 1.1577761738926868 2.5596125321755014 0.2062659797832125 -0.28217265841385597 -0.2512021781742706
Ni 1.8168572750184848 6.4605375389432 4.862872691944906 0.016297965829075157 0.21371549408272228 -0.500680431678899
Ni 6.167786637052975 5.375308542314975 9.218032840942543 -0.002571360271602023 1.6513313716554978 -0.0006818565583730193
Ni 8.590299218483969 2.3400787802338234 10.043317868356882 1.1093271415271475 -0.09770089168759948 0.812955051684458
Ni 2.463199841461755 5.312159089997538 7.123026447072909 -1.1382350828107495 -0.23080664523705408 -0.2319965517800972
Ni 0.7377793519249504 0.13285377251699879 8.904819705764483 -0.5564111495822998 -1.0980551681577542 1.2289739413582188
Ni 1.2179016954468227 0.8704520507435479 11.483765476718286 -0.5613630942709364 1.4624589047583847 0.3994291036358798
Ni 4.066562172380244 6.821643761979897 1.6269426532927918 0.2323598486567869 -0.00635782389722776 -0.07490291995647745
Ni 5.663722729128489 7.766124172840829 8.127424144734816 0.0010806346586884614 0.3497114246957784 -0.42710985738059987
Ni 5.2459404384922 2.8221693948573177 5.13120490023723 -0.4567706176698263 0.7969548196014598 -0.07665564098152605
Ni 0.7875728082483107 7.559754478772922 6.935074664237885 -0.11853042683844102 -1.0858167171100332 0.6711371150729861
Ni 5.100574473415675 4.837818429665617 7.204453478506968 -0.3648557365363845 -0.9349289569868091 -0.8046010232928079
Ni 8.316370927542554 7.263363995544832 9.069144992432113 -0.1741757841168871 0.07778949747565311 0.20646061229252188
Ni 4.644277807129439 0.09742127121384174 10.462075240859063 0.24094990431864308 0.2511540985451546 -0.9036957100041404
Ni 8.214046180576005 7.123919140406028 4.8553454583023665 -0.8428801213786644 0.24023359497790886 -0.05451484321842869
Ni 7.268723777017509 5.998573265897005 6.976125882402433 0.3215455037845237 1.0056610333950486 0.33038161401891486
Ni 2.4313399242280544 4.938957143907636 2.656040614153613 0.07941212068074066 0.770540334163673 0.0002805073548962911
Ni 2.3575886068692244 5.518374871421804 11.669849484354302 0.48016765643752785 -1.260629877700603 0.11389935582433287
Ni 0.9819626664299911 3.404828341572867 3.713839661579524 0.5243047559660584 -0.6287131415808205 0.38066030766880893
Ni 3.5453143704774783 2.2927823302114163 2.5539150482553064 -0.3352001184534808 1.633708259257096 -1.150265274502406
Ni 1.1001223083217282 3.4183454931585207 7.965814963543205 0.44539014374702646 0.4232074370024002 0.7374224685637816
Ni 3.581103586966486 2.793713663153561 7.383367873054786 0.15022004463223806 0.24634690696449832 -0.4938320412984979
Ni 4.011307533313102 6.840484480298547 5.91023012455251 0.5504662448527745 1.7481891986165117 0.7636716320682977
Ni 1.0044248587166664 7.396697613362594 11.560501793995261 -1.5574079447324596 0.2550272083473156 0.6757661292045652
P 9.376539324312047 5.686845840414329 8.048792891204071 -0.2787538625402941 -1.2802535654688016 -0.8785174109663
P 8.748602899311264 1.710856731974392 7.952100441626295 -1.6182569576990322 -0.16184065959030192 -0.6056315771710086
P 1.750502818239346 3.245501594349605 10.31697726485617 -1.1105923813928165 0.29166054329963315 -1.6458279253387655
P 4.157705618470514 6.204417846239548 3.7656774399578348 -1.047578242454125 0.1032292777049964 -1.1223076129472156
P 7.118043298892907 3.8645835154985666 10.3352765728166 -0.7746299308520143 0.3662492744498015 0.24845341178453986
P 6.572314332966292 7.81830961272007 10.215315247625771 -1.633270400388729 -1.2491316472530165 -0.01337744974817051
P 2.372020180631804 8.46905227003449 5.870317859950905 1.5979251881202157 0.45515827887738386 -1.0776632347649635
P 6.7384041828248415 3.871790248694936 1.6160900011791124 0.5187113210386809 0.801792093089103 -0.04273687674689414
Ni 5.370482928252581 2.749803291291257 0.1944731520829449 -0.7400969300721512 0.21772924322780565 0.7282785972809845
Ni 1.5997861253750638 1.14377012332135 6.99723454879356 0.7770855914813585 0.6593252100397226 -1.1550105024968753
Ni 7.0176469868143325 0.6050966940529408 9.280060541698383 -0.7511400752601902 0.9152957561369139 -2.0142958047064408
Ni 2.852444917230007 1.4211388145323882 9.458299531351164 -0.3055627552030221 2.2562533243539917 -0.12200038766491245
Ni 6.5208712952504975 1.8865797025878872 2.480066856467831 -1.0347345537222372 -0.148612333825486 1.1101871755345978
Ni 4.409615347686335 6.7848133717250825 10.275010719146204 -0.09150813261332627 -0.2547927237390063 1.1359655700502822
Ni 7.895718618786605 7.475564262701259 0.09181704024832299 1.1070617425317386 -1.058407471859145 0.29870099508618236
Ni 7.755440824635155 3.839477647215233 8.083020347044368 0.41928290513701344 0.17504738808856304 0.5923238043185088
Ni 3.337740536315203 8.170398365576384 12.450146751400851 -1.1719196195473882 0.17976767638236782 0.14845292542948627
Ni 0.05604955260312362 4.97849458595355 10.26743187949962 0.8276625330979618 -1.064746269592979 -0.11732560789706245
Ni 8.86222664505805 2.189588429492543 5.660249735593153 0.40003254154783363 1.471655226545672 0.8891607496127589
Ni 3.51806277886809 3.1390574207444293 11.289903448367447 0.7986484052537988 -1.9244732873256536 1.8815317507671208
Ni 0.8801159540272226 3.2354248430335755 12.254827079777879 -0.13763937975375004 0.43936219238539176 1.3883501985684283
Ni 3.205556736482289 8.655186978306057 8.013134047777912 0.11852708440433136 -1.6344739337785272 -0.08563187633820736
Ni 5.549655352820619 8.026019252156146 3.643742411454431 1.5699482432913157 -0.31008121189866594 0.5177235032041148
Ni 3.3282522745189778 8.48488716495968 3.534487974050068 -2.12115830828865 -0.5269699615030472 0.07115836531238068
Ni 3.4082053660480502 4.600675260554418 9.470795427277835 -0.42696433294167113 0.1224683284402665 -0.5014463633106461
Ni 7.275016088036952 6.053447650197504 11.300027278845059 0.2624237579217029 0.03451397461646959 0.8537126932177942
Ni 0.40636197247812234 9.176181277031061 0.5190631477315537 -0.0665918289876208 -0.4306325258218777 -0.13961604386414664
Ni 4.481356746992913 0.4582495461234931 1.4607486860576622 -0.2969593298047273 -1.4260140316677892 0.14824877983848014
Ni 6.0996395506596635 5.7853408786596905 0.48329113324389433 -0.060620441895534304 -1.291345561616905 0.02483145722138304
Ni 8.051849415233086 8.930844523067204 11.229135115183986 0.8160192924320785 -0.49606170195996496 0.8862464041794414
Ni 8.89986281327075 4.893652504567643 5.580174419317659 1.3306500156434826 -0.40949960049800443 0.9314250575986088
Ni 7.978360654736937 8.725280606957183 2.7794731221427944 -1.9747794917793735 -0.2882065233127617 -1.1107245360953064
P 8.53964385135622 1.4490332177711012 3.6708400904201786 0.17659596352260554 2.541765845774358 -1.2184213626533533
P 1.5903340783185185 3.157870978008319 1.4194321949249564 0.6572444162512938 -0.4448628104886468 0.2078091559006163
P 4.781395865243788 1.160673353067107 8.330587928972529 1.1445155165028225 -0.09536581579651962 -0.5404775090711789
P 8.19716105820009 1.58763608021234 12.475085126513163 0.5632086321201075 0.2596464522868819 0.03846987394042407
P 6.267730264885547 7.749899969464077 1.5450910040359815 0.052382627366774306 0.5098487284417285 -0.3625746538116917
P 1.9933045404255854 3.341371063968148 5.907420766121814 -0.583834278790259 -0.4853846818620931 -0.6541441800594152
P 6.954135387100093 3.8827452074482123 6.06142394661208 -0.19568743293641783 0.3734596761553116 -1.0940529889768966
P 2.2964309652342014 8.624811865399247 10.319587442218625 1.4710877840779761 -2.0680971667976125 -0.41835627955768595
