# total energy = -340854.61227381165 ev
CRYSTAL
PRIMVEC
9.41615148921265 0.00000000000000 0.00000000000000
0.00000000000000 9.41615148921265 0.00000000000000
0.00000000000000 0.00000000000000 13.78148950363672
PRIMCOORD
 96 1
Ni 9.067706523929994 1.0256071886006208 8.944200518342763 2.7744483678778864 1.3849612274915373 0.9285731899721105
Ni 8.236401615321787 5.614850959994035 8.344402044729542 -0.02937253962484619 -1.5801400962226528 -0.739410702638404
Ni 3.1633842437747375 7.930178962177454 12.005923285696946 1.1869428324290978 1.5626393683347282 -0.7822997886924463
Ni 5.7391064912167105 1.3574700214599698 6.969326645372706 0.8864603199624603 2.4472333245124114 -0.9201528271188991
Ni 7.408448856540443 4.365939745707922 12.967375411333075 0.5239507150607493 -0.5301319041707967 0.5855723445272882
Ni 3.366547122045459 3.221086418322521 13.216668955943067 -1.07462907592433 0.6206041393204409 -0.3190232515833022
Ni 4.835758609784565 2.5892155921102122 11.58245919235811 -0.6803696894148477 0.05507817192106643 -0.2767309185729943
Ni 5.637760455861325 7.0908420765964575 7.694136767149886 0.9017930936647889 -0.4471492925299783 -1.2937441437560686
Ni 7.33031363389072 4.080159556816728 4.45058058722107 0.7141064195456606 0.5360456985520704 0.30612788367787275
Ni 5.19385483988447 4.923083996004563 12.321946269009253 -1.4510038688439075 -0.04910601349803156 -0.21751892698921246
Ni 1.8021477618351471 6.283312949765855 12.5298125148039 -0.9044454436859714 -0.4142679684209252 1.776901736059856
Ni 2.0509507249676684 7.893182904116383 1.4795664292127029 -0.09695630021209109 -0.20667015720016668 0.6018847085340667
Ni 1.0089594332806988 4.399272920952562 8.109427641247946 -1.6337452831426185 -2.544011704385741 0.31716203000484733
Ni 2.367964287386114 5.545548087169021 5.947691189347845 1.3422611175198498 -2.311381118566071 0.5861102193086293
Ni 3.848559901924873 4.288322411374145 1.6008718802647155 2.559337021888902 0.13313223591201587 1.1145634502254225
Ni 5.370153438784299 9.326989663347058 8.628700131422004 1.3426544963035265 0.1293740544211643 0.7348457089755409
Ni 8.207569360350293 7.661649162282922 7.660826190668124 -0.5896920231226166 -0.4883460784832621 -1.4303818217181818
Ni 7.080230074195128 2.2592265733394745 9.05077251761362 1.1437819807709075 0.3981229832299466 -1.6057089458306928
Ni 3.828164518427729 5.729972824553631 3.5455359153428567 -0.9413718843986756 -2.4434910838611597 0.8736639395287407
Ni 1.1878474737602676 1.997024427050704 7.129246790876906 -1.9452534572957985 0.15240548231933107 -0.4278400506784051
Ni 6.745203414532897 1.7687486735321138 4.449119200554978 -2.099140152146346 -0.17034715439941628 1.0229594154641801
Ni 4.761691164452831 3.3265002309958955 4.53897470660216 1.3643216968643148 1.2501989121752664 -0.9480832349805801
Ni 9.02619071329338 3.1727909788225888 11.54823995728564 1.1498839799035872 -1.5443883925443402 0.23901592052072385
Ni 2.2098011956956567 7.29112361260027 4.503308209090395 1.2101560373207674 1.0852798707699567 -2.4386661516686905
P 6.268247107847373 9.264080357186199 3.2840051406345787 0.678910845481134 0.0366220220984079 -0.1898723689165375
P 5.822034534826751 6.093153776301023 9.674784624035201 -0.03160014340378429 -1.295972261755639 -0.25114869922851585
P 9.192724763399791 5.647911066853902 4.415492241392927 0.337581988422096 -0.7289067177832866 -1.2163166576055247
P 9.331575328980996 2.5247149563967137 14.019909025902502 -1.4043638003878651 -2.865595774717684 0.9566380665291266
P 3.1212281348565867 9.043958990605988 3.687595505252698 -1.2496330123694672 -1.7065437551615834 1.759814698670582
P 5.280050287960582 9.051812060705997 12.371738876549832 0.8226527385881961 0.4702923063053449 1.4068140617005707
P 4.612511081006268 1.926309131545832 9.052288517956669 -0.147260704893598 -0.6635382196798056 0.3506833016907444
P 7.575792695649975 9.144250417027077 8.825665298973512 -2.5716369223021776 0.37535277941296646 1.8872324006963237
Ni 0.9455134065014942 8.851050300991032 7.579736179772138 -0.09063112932501166 0.875004512717035 0.9683283583828612
Ni 5.674652936259207 8.033408227772648 0.5138073560181292 1.3778814378266206 1.1135396369465984 -3.4427606119075675
Ni 2.8393368164106008 7.834266046063922 6.857558813870212 0.009884091882931365 -1.6351768733828227 0.3547451304649439
Ni 7.552826702875491 6.3312129109154265 5.479713182830616 -0.37826018286774854 0.563169808462372 1.5623177233292511
Ni 7.5934103145434 8.943507489614513 13.217192493949735 0.40996676994241016 -0.829320894636991 -0.9488882473803788
Ni 1.482827242372934 0.4721653689554467 5.0232699615322245 0.4570837780348708 -0.03537580839613263 0.17607377247054837
Ni 1.7145493072303768 1.1256161304857402 0.3814633509154693 -0.6272455558963584 1.1051457564559484 0.6208933884260855
Ni 6.1390010164892015 4.283868571856995 2.475307469440174 -0.04644286484357163 0.5723288492538208 0.307130099690142
Ni 1.9610076487143344 1.528730979468307 11.622287628699857 -0.9784885867453148 0.06882688896572663 -1.242828330742808
Ni 0.8391146644126989 8.603283114490406 13.252417373970264 -0.11082225956090593 -0.5763809078360074 -0.3554506411724007
Ni 3.5420924288493643 0.8177079862767767 13.028013541824723 2.287319963851809 -1.4599091417533374 0.0823632328892646
Ni 0.4541842866257392 4.2909871821634775 13.500346518271511 -0.9145912738707217 4.14219503126335 -3.5935573549788824
Ni 7.03575759208201 6.350911499223841 11.895423809760967 0.7254246727719572 1.062240729562306 -0.0939095429659673
Ni 0.6939204377686943 7.03833761751055 6.00210053582132 -2.499747335250727 -0.5592519614652045 1.1731285522538246
Ni 4.248030700393407 1.0681681920203308 5.131386209599727 0.07765117212557594 -0.6650238030863966 -2.3376608781982062
Ni 2.844242631185306 2.928987991976764 5.634148420261369 -1.826262545881171 0.31569444432038535 0.021017225681615417
Ni 0.7251622858320251 1.698438272528801 2.4276090139262623 -0.877269911712444 0.5890775294670694 0.6521477184546769
Ni 9.324569712488902 7.518542496359746 9.840369526100751 0.7453093275110261 0.23314069268686943 -0.6311582606872034
Ni 7.429437457563128 1.8446899329524589 12.946220144434168 0.5964411689209921 0.7039163663865362 0.29558584649596836
Ni 3.3507562364846506 1.1145521528268554 7.296526600158285 -1.7640133101329618 0.14508118074377596 1.301504504427778
Ni 8.12921756622299 1.509107720369485 6.7412288571117776 -0.13156977652090246 -1.7996930229227588 -1.651017182849189
Ni 3.9940959348574037 7.697986089760058 9.245160484581946 -2.942581545345119 -1.1113169182636666 0.56868816717744
Ni 3.4632039141037163 4.991059191510511 8.334258966657924 0.49423261917102623 2.22406722653975 -0.07390636037116304
Ni 6.946558391773402 6.555524464779217 3.175627123563743 -0.2217082824802117 -0.5427845599378007 -0.06297248706747866
P 1.0302022703857578 2.6438575175183043 9.949531908566467 -0.17531555414828515 0.3893375237278327 -0.0910083101587723
P 6.919242137144955 6.210827417835561 0.3619295452530383 -0.3503876248271966 -0.6045519709535846 1.0851490016190473
P 4.475101186558519 3.737731802312044 6.817881977562772 -0.2490591636893388 0.9947078768176546 -0.9523216985419599
P 0.943423020935305 5.965819163636258 1.189964224549814 0.09613560408300863 0.4584798870514491 -0.3120740739589786
P 6.784261609706561 3.0012946170342754 11.172474319460719 1.07867624941051 0.6660026220598981 -0.32810438794896396
P 1.9391715940837355 9.167461229732739 9.779028009114533 -0.08310293926876655 -0.2725431057438919 0.22395156998843369
P 4.325318469435217 1.906874195470991 0.9708381451513415 -1.584055115006343 -2.2470698580825106 1.6317099978801448
P 1.6313481952355633 6.253953390327214 8.091401361392483 0.582804551974164 3.2636012585331597 -0.26547334338130407
Ni 6.630025053066107 8.689205494181746 5.514511511201828 -1.1119445245453365 0.416105021629664 -0.35270984520246995
Ni 1.8166392185304863 3.9896609276426505 1.2503669512614857 -1.3916378681807646 -0.49766118523660097 0.8938998069596411
Ni 6.760570573289748 0.7766281434406775 10.70536448208404 -0.15602225313631196 -0.9818194508907606 1.4979249588754784
Ni 2.865353642173578 1.4797952416868396 2.8961246826769567 3.255463974138006 -2.29953450364013 -1.3096836978044606
Ni 5.72790127128984 3.211416031041096 0.540635854014465 1.8493135141633634 1.115006708410428 -1.5166999254901363
Ni 5.288129345689367 5.662666175782815 5.527506741471639 -0.8376396989153315 -0.1604916017615752 -0.37200777420013353
Ni 7.857495691071981 4.655411065869144 10.29116117344947 -1.0516858368645954 0.561638202309194 0.12933934452848692
Ni 8.66000600931349 0.7304419218093329 4.170816377330951 0.2742593171040502 -0.10010693002593082 0.8954496679452644
Ni 9.053083241117868 0.47407684764885405 11.488056626896908 0.6632885655628447 -0.38243822550483814 -0.7014776750380565
Ni 0.24643385949083998 2.7952598126478434 4.673468419023564 0.42876821891962924 0.7755267316346708 -0.09362157941190329
Ni 4.774789030770711 7.673946655748881 3.9326442489021574 1.21669152444644 0.7014036272670114 1.3838384267410038
Ni 6.591268174730813 4.129396611436565 6.908192283712868 0.8517920791563138 0.012321754790146522 -1.0120682224729731
Ni 6.486504076490173 0.8549629884958215 1.1656573718445842 -0.7846009260217971 0.5814493234978502 0.938229996335584
Ni 4.348783518223251 8.993055277223919 1.9997908922729852 -0.5488942723799644 1.8720271537107953 -0.9193131048264231
Ni 8.7660601202684 4.778122348295175 2.1211641396136307 -0.14770679129208109 0.3779570498050329 0.6917149392243378
Ni 5.504644326360343 3.7940121380287715 8.930804160031872 -0.887855143427458 2.5725141827008082 1.3462581544943848
Ni 7.803381070131035 8.30939561941683 1.811535664580601 -1.509313660328394 -0.9093930174992338 0.10603640813648835
Ni 0.944552959079191 5.198205101738432 10.751022457633118 -0.448856247918756 -0.8308632994234465 -1.3697575231679056
Ni 2.715796912679053 2.908837428410795 8.565305893474395 0.42882504029949375 -0.35049406849807374 1.1636717777162993
Ni 4.852170961324511 6.540298548290351 1.7262968974663129 -0.1550089813804492 -2.5597190878186686 1.1620041602058893
Ni 5.787929235183789 7.988474354250778 10.696502942190614 0.40005439592470454 -0.3833651081944817 -0.7857949463298982
Ni 4.248360265685374 0.530387315049418 10.681453107729173 -1.9857915266191606 -0.6509290155562274 -0.32425441807525446
Ni 9.072339270319926 8.042843211274098 3.6984005387536087 1.0938411300764064 -2.5791136902951965 0.6469386634499116
Ni 7.980866104081945 2.2323905424221793 2.5999603622434493 -1.2012823889802215 1.7118636247126 -1.6123588470470425
P 8.732924684198938 8.668442880787838 5.892991825417438 1.0162102696658046 1.4840985945153473 -1.1582279809929086
P 3.5071396755984874 6.940541471157207 0.11930169407685463 -0.02646256506690281 0.3983551538454107 0.07589870821084348
P 2.3349889258870378 3.309739481861585 3.0919599120845764 -0.44463166831444717 3.9164434319517003 3.564245493388642
P 9.187310476460338 0.2403529090464929 1.1900809848246823 0.6418622773682687 -0.23927765882254273 -0.922754012187172
P 8.895974758361703 7.519559440689243 11.918355904391134 0.5975608843477321 0.26064378320314463 0.15597803016193784
P 2.990428378550571 4.733941766869229 11.575555270298967 0.22843994477709043 -0.31011592179134334 0.5029550866456887
P 4.45335929343991 9.009072150413504 6.619469547571971 3.6846312282682674 -2.6039001532112573 -0.5122987326441176
P 8.520449232392355 3.366151643695099 7.447364867831 0.8823059314744547 1.2873559808415378 0.775337241331684
