# total energy = -340868.3165693232 ev
CRYSTAL
PRIMVEC
9.31020646812444 0.00000000000000 0.00000000000000

0.00000000000000 9.31020646812444 0.00000000000000

0.00000000000000 0.00000000000000 13.62642825619099

PRIMCOORD
 96 1
Ni 1.7670026584693452 4.316211602524809 9.514884584249772 -0.10560343436412782 -0.745009279772104 0.751791335690944
Ni 6.024252725017473 2.665186182909328 13.107411064411048 -0.6584209530578983 0.7474999074044417 0.8665568961703142
Ni 8.715796101729103 0.2523186917676997 0.5087906665291146 -0.260412383918629 1.9998063528410137 1.0979422967289736
Ni 1.1968083888726468 6.730022217556289 9.529247439381818 -0.25161329756976025 0.8578511408662001 0.2661197187160514
Ni 3.277406723372715 4.945367408098189 3.9463636605267545 0.19016110380154994 0.5001944931814161 -0.7346888716827025
Ni 2.7955011393384472 8.549134100226091 8.948121125644297 -0.9636620632554435 -0.25308679679149315 -1.1617128542177155
Ni 6.203045925222146 2.7828020180575073 10.853899855953406 1.2165686257153308 -2.1684210979303553 -1.895864622450025
Ni 1.8318016937445238 6.641742842200077 4.735483705250135 -1.1942421943039883 -0.5508886771021738 -0.9820899309433279
Ni 2.8189628590070464 3.3839247927093985 2.396029983196921 -1.3271391742767464 -1.431987989863037 -1.0559839500193169
Ni 4.7807629621692875 2.7129847816309898 3.535117886581706 -0.0726280078793717 -0.27778892752386347 -0.6114196446076954
Ni 6.675995090874988 4.239216197104446 3.656583492000903 -1.1038787168180666 0.32634318228348314 -0.9976934418085398
Ni 0.8464252950139338 8.780772030922419 4.983552287879456 -0.018620957535296963 1.2049978901585956 1.0670749177261558
Ni 7.713105512495461 0.31784206108661495 4.356805032654594 0.7579365293567334 -0.28154273813934094 -0.750339690846082
Ni 8.286902831898407 5.885754097322997 5.721995949139284 -0.9940992966993782 0.058914257837704986 0.04277981416968762
Ni 8.512377406078619 1.7005650268998524 6.105252450132068 1.979721666275997 -3.333106918733466 -0.12196079267622868
Ni 1.0771722389752272 5.103119542250864 13.424824856011648 -0.23151138461356255 -0.4400982992204679 0.06229191606068626
Ni 5.8390261723163706 1.546872142658093 1.7131691840773717 1.3276726781827133 0.3575484042416939 -0.3762002150149263
Ni 0.14581272569909956 5.051894787641089 11.193443076712853 -0.8443852451692813 1.1903978808572335 0.29538967132476224
Ni 7.608291210896616 4.3602954289656095 0.60399962837316 -1.020669590988739 1.4671159439144217 -0.2204903509127106
Ni 0.33194423044456217 1.821467364842879 8.198122567447683 0.8847924453417343 0.835313107664684 0.3329640300341104
Ni 8.464103986839854 7.7336252069992675 12.94174059987022 -1.0356346969390036 -0.9808648002869753 -1.6599340257228445
Ni 4.985689911227039 5.672243138132528 8.132988364748668 -0.24111702602412666 0.016043169505791724 -0.5953998721406714
Ni 5.262063382799405 8.503951669451602 0.8953923246159167 -0.8788938204691121 0.6576809895680802 0.6154940717873851
Ni 4.361431274124168 3.4338274980362598 9.467151156971637 -0.40211025001246875 -0.46990792638273265 -1.0501627153518494
P 2.1279034922921922 1.9241216985992173 9.631118784795246 0.4038534579558206 0.22610538310664283 0.24063288729885654
P 8.849220667034935 7.6021744054115885 10.800306584881849 -0.30912039064729346 -0.11351163346761096 -0.5747248602898231
P 2.0853651600835295 2.4904429224093536 6.423634503179309 -1.7161964477599994 0.15964982258657023 -1.813002338437155
P 3.4374864090798156 8.536947040287124 13.099084946990562 -0.4508424251108493 0.27903925499119686 0.17222405970715501
P 6.044372080653918 5.38249090022533 5.353659984630984 -0.31440246498183916 0.543444819229619 0.7947889222983926
P 7.5735548314983845 1.205625154160807 9.28096006690638 -0.24047836399886327 0.3118041081270436 1.1315167902503094
P 5.149856777463708 4.447355167307303 0.6545102901660371 0.9737760117609939 0.4207821153903592 -0.17318513806884367
P 2.5311285235806937 5.993659387386117 8.058342855377653 -0.3817203735022071 1.2912080075977763 -1.2758868038596736
Ni 6.097719562281328 5.927370719116107 2.0880595337629315 0.7302336641248263 0.4694245589884109 0.17028467659259708
Ni 6.567391535345541 8.091677117719499 9.198002405424203 -0.09684779965868483 -0.45592035385438895 0.6752573078889468
Ni 3.6273028934462426 8.199340342420959 5.01008358253803 1.474271066901964 0.23761312663592626 -1.0736116904034092
Ni 4.970998405815512 4.74564486431613 11.425923581071881 -0.46203983648856556 -0.4951214495338827 0.5486908981199067
Ni 0.6684523239770399 7.096257799541878 6.891020820617077 1.0763925955826559 0.5943236083573571 0.6439911507858135
Ni 3.8323043241537356 5.966166348425254 5.897817331519268 0.6733379793790468 0.6540122824672414 1.327535638384217
Ni 4.587929970988326 8.020128182936489 7.534556239693691 -1.1514292129035202 1.5438636303891218 0.08118901007550533
Ni 1.946736189502006 7.474335963836378 11.788863350056404 -0.8716906178524536 -0.21962748869178303 -0.21627579861073076
Ni 0.33087914285325754 1.7333648834048025 4.112156088769034 1.3661196693050022 0.4384520218662965 -1.122032504908958
Ni 4.1109122452183495 3.624277076425491 5.501220236037145 0.603227081494574 -1.2669581339114762 1.1182781800728483
Ni 1.563556032200208 0.45958995075106757 13.145278466160292 0.5222414456791263 0.6485036939441864 -1.4231415952160007
Ni 2.9715478287088994 1.1696039663045332 4.524818876100416 -0.5942320770848153 0.9440967395290063 0.24403599944313453
Ni 6.612024663953185 7.317971050410139 4.124842175761269 0.013857217598066457 -1.481373225164384 2.036947223557369
Ni 2.8321274905988716 7.959360466953574 2.253375279446865 0.7367377837919312 0.8752009449985572 -0.33235750679836307
Ni 9.121693162202085 3.517572802964454 2.2348842788778946 0.7024575224528224 -0.474203468434293 -0.15808942007798582
Ni 5.464988637520351 8.594353771825451 11.965652062862407 -0.30021948861323783 0.584533875960445 0.6520847264272253
Ni 7.641100377607784 0.49555620839065684 11.54801576336953 0.9522209112980374 -0.06838388789103707 -1.1763912821654965
Ni 1.5770558312158702 0.9599008814571027 1.9348302977908138 0.2589283431739347 -0.06107886958919157 0.49343274897755024
Ni 6.630551974326403 6.589149487276301 11.268170515898584 1.3195860445198369 -0.3937971021610831 -1.9725292622926158
Ni 5.600368346131899 0.020678899030129105 3.5012557355473164 -2.247054431463543 -0.1532801716148005 -0.002231460433680028
Ni 1.0971984925494958 7.731893508642775 0.569904722183328 0.5700829906424375 -0.7188434200100136 1.1885680267373466
Ni 7.4730604655845525 3.2133897454198235 7.05474265899654 -1.1803325262014317 2.841924142132357 1.6873805519695715
Ni 8.51597114567865 5.908415139256873 3.083565436858377 -0.3181017682102973 0.11415003838255824 0.8852673280956237
Ni 6.147212618534611 6.719436513086768 -0.21135564645107194 1.045911139164347 -1.7623053263029198 1.3504135714236547
P 2.5443117755849545 8.680268354802369 6.6809015695517155 -0.9086211723302158 0.48720322312807063 1.115576721981285
P 4.529582908622013 7.232168189907834 3.297581940246467 1.1988917772608576 -1.493007724079519 -0.36031002614723107
P 8.222047935385923 8.114170575941456 5.841567858613802 1.2414278508508556 -0.32068289867391225 0.20196580974596184
P 7.602649225928691 2.286512165416896 3.137894214221132 -0.6570181591731008 -1.003869745822581 0.28778511950462693
P 2.5726520433116273 5.003779641908027 11.744918245688247 -0.6035093886216831 -0.018068684576252752 -0.547387605927451
P 0.8630030482051668 8.21418081113197 2.9522878051063475 -1.3842456894817514 -0.24806414676592115 -0.5957788527466449
P 8.87484235454604 4.153022307940998 8.321536799028246 0.3985485008031394 1.172079285053704 0.773369576082352
P 5.949817626306976 9.315140626993413 5.71499188100171 -1.7352210684916178 -2.5122079296115833 -2.6404185598522654
Ni 3.7991413696062954 5.746222036738356 1.7899951437445725 -1.0357874204667838 -0.07434859011490422 -0.8726475824490841
Ni 3.988622686548886 2.236190500810238 11.530465093628548 0.46488939012221875 2.148873000595099 -0.05018896214956517
Ni 8.510440883185337 2.6589669651559054 12.933715202110566 0.22172756575392139 -0.4048690437045286 -0.8941877705137052
Ni 6.259018885002946 1.1185188647880242 7.279537588122859 1.201697365030453 0.4678348459037879 3.2008750831485324
Ni 8.43225377136911 3.6365851690452877 4.902951970611601 1.6874034347877067 0.7584684906008033 -0.42133875922477765
Ni 7.491196747296628 8.09368812226252 2.2191593405762027 0.9428037317491956 0.27147764059385504 -1.7873622692715476
Ni 3.0313752138638272 4.119365912464019 7.520180350272944 1.4109939041098731 -1.3330066888011174 -0.3624281009314984
Ni 1.0442141089645762 4.617527116554388 6.197885277915676 -0.011694405618792762 -0.2874819864419113 -0.09369845539642573
Ni 6.318725237477043 2.2274202865531665 5.2830746561915065 -0.6117034943967014 0.2804001398944655 -1.8055623372193421
Ni 6.66102427927693 4.445567607713505 9.039132115504781 1.0057985874141775 -0.060167156408199605 0.9653831597116083
Ni 3.933124547285188 6.406809098502685 12.790133201821227 -0.47018663396541605 0.08666031760272172 0.585107746186044
Ni 8.255965016636997 6.54430222392565 8.81959652187084 0.10965883538042405 -1.091474686726759 -0.10451225818247807
Ni 3.9632803052243117 1.42166848944249 0.04710591937906498 -0.1057049929389986 -1.6708828114248644 1.3374187018258836
Ni 1.483544119965311 2.766322953052182 11.695086297928642 1.0392136725395136 0.48561633825692496 0.3933888109790709
Ni 8.945832676955987 2.974555025317216 10.292981344811398 -1.8955635462698384 -0.9197229386703322 -0.7607418600160124
Ni 3.270358897265918 0.3369456732247096 10.915518524784618 -0.7021849855177261 -1.091179009863211 1.1354382367919027
Ni 8.414648171411443 9.107346134420613 7.9007387535038385 0.34955098785851413 -1.1710922385500862 -0.7959446331693905
Ni 5.361831552628257 0.7076594644010099 9.329020282422759 -1.374187276804485 1.2213416216239417 1.6729304379825123
Ni 0.9656545888996402 0.07510264049630473 10.293853711133998 -1.449316968059788 0.10451482928563936 0.28490985483936093
Ni 3.40761926753344 1.5033003775592664 7.683220681557272 0.7049802888746761 -0.9070628267041604 1.3002505774160187
Ni 6.526836277061248 7.337587654910829 6.901690316942559 1.3909377567899466 -1.1972056478076865 -0.8905098074414857
Ni 3.5877531374334617 6.195756033753688 9.966518963787818 -0.46766181066103335 -0.7900745475418587 1.076980606875642
Ni 3.2479864717247895 3.6334196989312706 13.529571193105106 -0.5971587638133071 1.0579202478100813 -0.410328524157203
Ni 1.2985317020072156 5.449207837981353 2.1017539160885437 1.2252386426855029 1.5059470578490064 -0.13706679507973168
P 4.5455778429040175 8.05421284789948 10.133933229953222 1.18074904491356 0.19067660998538774 -1.0475293914940604
P 1.1262835767735844 2.536314308443952 0.3102775185347353 0.3013453746875649 0.241401647144081 0.82448413536998
P 7.171009445263775 4.443258676571516 11.580052182964629 1.6776072746328914 0.5644795284127311 0.58399625828942
P 3.790389775761659 0.9959220693133765 2.4444449175701943 -0.36242887226244674 0.8577662944618775 -0.36908828656049336
P 6.6567508946230065 0.615328287298855 13.456738380884675 0.37543942558950183 -0.1072006036479186 0.6555881115947936
P 8.558732922836539 6.364652484748948 0.9990596088087407 -0.02605710209836803 -0.6099083501694914 -0.2912864477896661
P 5.245044325833454 3.019411598874085 7.329614394305992 -0.5917417065627938 1.0087833810741145 0.9272431583067773
P 1.197367001245709 4.324488375852343 3.9131969818968266 -0.6796472094265263 -0.40059689869173587 0.6021019667511953
