# total energy = -340888.8454467103 ev
CRYSTAL
PRIMVEC
9.10487846302964 0.00000000000000 0.00000000000000
0.00000000000000 9.10487846302964 0.00000000000000
0.00000000000000 0.00000000000000 13.32590996586721
PRIMCOORD
 96 1
Ni 6.659244460397904 2.1865730108743158 11.839485160105449 0.27797507539274063 -0.3448841785104641 -0.9819433780631347
Ni 4.623776014463045 0.7066451050079288 5.680715844602642 0.5229942646847509 -0.36723297851930947 0.4758366331623418
Ni 2.6815870495961973 1.613375379772637 4.395724299655167 0.8534260152153108 0.7072588004962077 1.321770967986298
Ni 3.5404229315583615 4.393040181449325 4.516231009633455 -0.5164999152096589 0.18996235752718252 0.4327318315530676
Ni 3.9696542225285216 2.857420464763152 2.4190788322842893 -0.2554493834863988 0.27874332101733285 0.6353008221006671
Ni 5.258185744268506 4.860257025861724 2.4364026847614104 0.5451959975927708 -0.36548642814184795 -0.15462254457530789
Ni 5.462790575753168 3.0983264471524667 0.3743498143441323 -0.5768483343907291 0.10703810992812533 0.1726428924121285
Ni 5.918480643881321 8.66097933118811 12.247804365949499 0.9012482769049123 -0.8403480989854302 1.1155147583950982
Ni 1.8998330697054624 6.832774341283725 0.18842182029380986 1.8586725867807603 0.11413409754295827 0.561190316138498
Ni 0.9470439456602511 0.04965800778379088 0.10037400245875826 0.005916879705067229 1.0555427487168403 -0.5032790456440106
Ni 8.33164676801475 8.804799993262323 6.862697524742 -1.5768549977134778 1.390513010547702 -0.12718501718964548
Ni 8.738279750345496 2.974800559436535 1.4471803890721147 0.19704754650873804 -1.1076847208277183 -0.15428213051675366
Ni 6.912478448386643 1.0755046775673847 4.61770761288844 0.31522573221408295 -0.5428328966772329 0.4344940656598129
Ni 0.9857760991461783 7.70473945816049 2.811580132568606 0.5172295942868318 -0.8408823742223454 -0.8419419258351112
Ni 8.164626875314738 4.0402079266569775 3.8144752244238207 -1.6085656985531975 0.3859426391136708 -0.7251518787265446
Ni 7.868918628743057 4.265899656936516 12.666343798001341 0.30148987068522914 -0.4219828205666797 -1.3958696468739251
Ni 8.442771811102606 7.382126295380316 8.950027359077387 -0.13760184164759529 0.22150696510268303 0.5940338450310801
Ni 7.325767096960503 0.9403245452670648 0.6548328829517424 -0.018456406932974668 0.8566270386511118 -2.3253990301117176
Ni 2.1275369781515248 6.539524411929062 9.220663501499047 0.1715709995041884 0.41867175391557576 -1.7677308681938653
Ni 0.46019425156244803 5.178681944494383 1.1669422416983484 -0.04047327752369804 0.1337629275174793 0.42586852877433107
Ni 6.594262941961359 2.4579166023617622 6.818135517500305 -0.969529320669498 -1.7403601894903962 0.16969435130676583
Ni 3.685572905905482 4.962377344032425 0.4042948495110024 0.5533510225997375 -0.44861739243507254 -0.866836632194262
Ni 6.135713941958597 5.661932480088899 4.703433686685195 0.40658602639563524 1.4135426386736558 -0.609243462891983
Ni 5.66083078978053 3.2903301266802596 9.004796845696863 0.5163826729055042 -1.3124646029837075 0.9179540196953675
P 0.4721070746985522 5.921385100148837 12.135199780092139 -0.7001764397281296 -1.2190440838390166 1.3726548993203587
P 4.427401993216106 6.495183653236897 12.214142719345638 -0.07668058068219052 0.4867967317182713 0.5874086264050786
P 2.619209526433977 8.626253324278066 1.3953690775037864 0.8298523416604289 -0.6897732421169346 -0.7887604567161255
P 6.57427773347485 7.958492424228376 5.620815758902462 -0.44821552901096356 1.1242847912782443 0.011978769628430983
P 4.5683819331728746 1.4910240213937256 12.441029920182936 0.6220385577741222 0.1308699222404004 0.8542845065608643
P 4.301581676097623 6.293000719454929 8.240995865393232 -0.6782261607092835 0.07699142705438998 -0.6401337247129363
P 4.9407441525226545 1.304701786100822 3.5194398283793142 -0.39634223718044 -0.4553590820342803 1.433439120487267
P 0.48810343587848287 5.782308079815612 3.8089585784912576 0.38892151923633667 0.043047980229409734 -1.4946583723090645
Ni 0.48330243340242995 0.19660255369933535 4.750966615808052 1.2368926819846633 0.8819853149102422 -0.06716775609574883
Ni 2.472620981270971 6.635362363878491 4.588910702910703 -1.6055343679260412 0.5980859036132667 2.553896310489305
Ni 6.336585773224823 5.970615178639295 9.062272302230774 -0.9146154422404378 -0.37866358895375435 0.7947634683770957
Ni 8.655998962603999 2.3248305921352 10.347022567895838 0.8985352488491235 1.3898720345295934 -0.8164756632432068
Ni 2.703147402077315 5.4976167363276085 6.921130814502692 -0.43139614346077965 -0.2924413873297157 -0.2628708727614505
Ni 0.6061846062026457 0.18536531255398245 9.116602023214758 0.28435603921841995 0.8416323650144925 -0.17459718792502188
Ni 1.6607935874253659 1.3740536462565123 11.320866723660892 1.0602622656796965 -0.5512357760289474 -0.13821530686187808
Ni 4.616137021333122 6.958922434031145 1.3596160402897435 -0.4839093828681473 1.4654539828309665 -0.17780181090524863
Ni 5.84103454666663 8.05424843227057 7.693394779447875 0.10339768496206063 1.4785501538932924 1.5498489014382792
Ni 5.548258070998207 3.349111222802767 4.635258176842242 0.6367995181333808 -1.451609106528074 0.19624613365336524
Ni 1.2632745885547552 7.872278328939649 7.046261892312551 0.2006434913901125 -1.6804979659171253 -0.343092376717364
Ni 5.419742709819585 4.740691760328769 7.066556666670833 -0.7609174663619283 -0.13878429199147066 -0.44752724469468735
Ni 1.4194050464712287 7.586667392714909 11.225506777836994 -0.5898663439169519 0.69605419002964 0.7349845485462503
Ni 5.026330011189254 0.7710867041445875 10.426845038420314 -1.365145735427507 0.9097858820622783 -1.1802487082383737
Ni 8.37075222152252 7.451059331121255 4.586098205916861 -0.7492233178534516 -0.9550838346681294 0.38060117229609935
Ni 7.394827601001583 6.3652752456352975 6.953273767359149 0.31276775759189357 -0.7061861362573193 -1.2758369244583447
Ni 2.6524332283780643 5.611509662504257 2.5541642738473613 -1.1016493132669156 -0.8862219786994092 -1.7446544459903761
Ni 2.7075450584322054 5.342879324834112 11.278264086289946 -0.3972084418354772 0.6184336140316834 0.7594845905701436
Ni 1.2228762422884039 3.2625602470065225 3.448652128871313 0.9811867024027682 0.9354652891062535 -0.2897676971522945
Ni 1.5874173709366288 1.0072089833271543 2.48360328581604 -1.426749110061601 0.5311639449797368 -0.11155476685155628
Ni 1.2986288320869261 3.4594714560897724 7.804212988127532 -0.27554281180216417 1.775809788547258 1.3012599925171395
Ni 3.640267030083673 2.9616531147647724 6.727692206110446 1.192446021635514 -0.3161212474451588 0.5860567403628746
Ni 4.57703156782535 6.980519206026589 6.0380896128314685 -0.9212465744037103 0.1454719884242914 -0.6330989293533419
Ni 8.626080331585015 7.425756873543119 0.3126642619541097 -0.41057612139163485 -0.07139490680321899 0.09324439857814264
P 0.07246208667914891 5.647929176830469 7.938404330613895 2.6354118506662934 0.8808074925520571 0.11197617065969102
P 8.777749398996528 1.8737749072050571 7.8380603742544555 -1.529635916825514 -1.0187515480304197 1.0527813839216191
P 1.825300533636868 3.3141758036853473 10.183647358092024 0.4064163335869904 -0.19908128910931522 -0.4705877260585766
P 4.351358047302974 6.443640935586726 3.6146395283401755 0.8880778009612253 0.2344522124094414 0.2304027249304161
P 7.248648775374747 4.0496314759888845 10.422434635235412 -0.8145956726116745 0.6545532425723759 -0.18642940467325958
P 6.587197556182074 8.19751369675131 10.200397603218505 0.3918232662641639 -1.1040607509218856 -0.4282889652903656
P 2.5812421827489 8.77546407447256 5.513008533569724 -0.3050441636953907 -0.10259190123131365 0.8684008913575882
P 7.068827423389073 4.40303733813187 1.2904025742884928 0.03214033217797046 0.44878837079529804 1.3516145337102916
Ni 2.7777163576602355 1.8562298061784042 0.5690512693956393 0.8174652808499856 -1.6989024365662417 -2.142420817211852
Ni 1.502487063527901 1.326626333725202 6.937881970117033 1.0887560022440153 -1.3351651299050167 -1.320183826004836
Ni 7.057318856861989 0.9950448655421993 9.294329253126676 0.1848633457377203 -0.16164602708099257 -1.9020591812965113
Ni 2.7804660309918643 1.549723173608999 8.96727108862299 0.48714665885852226 1.9052411785689185 0.6438358561548718
Ni 6.4949014020008695 2.360904121075314 2.4799522295048377 1.0630439421898918 0.741191962908543 -0.09144976857156509
Ni 4.245705036242631 7.586494400021859 10.008664338584586 1.6629630423571555 -1.1625749451076945 0.527535347088214
Ni 7.6654519070810885 6.289486236322449 11.022220332770942 0.07905679422385094 0.29698452661570784 0.9763183185668732
Ni 7.839755702646341 3.9604491902825716 8.145329085161137 0.7011912541458891 -0.02203024032716206 0.8384058876573948
Ni 3.5476157856377886 8.675319514954056 12.599967412166103 -1.1375437131706794 -0.6242790170688668 0.014487909203529888
Ni 0.4863671355329807 5.032111609088541 10.072735369162974 -0.7030419342013827 -1.0776966591060602 -0.16357409734164088
Ni 8.738316169859822 2.3150428476600307 5.664604761952584 0.47933796144738094 0.8891478940969525 -0.5298879064807906
Ni 3.5585598496928155 3.1462272133700173 11.409164925656935 0.4658173012531268 -1.1868536151494011 0.5073771269727843
Ni 1.0004167439053158 3.4270489834608613 12.659894812502026 1.8820449429581136 1.444200472768829 -0.1863468722617823
Ni 3.35499297436645 8.750607755944918 7.693594176288811 0.8651839270821874 -0.7330857888616407 0.09826447750055335
Ni 5.91560350224955 8.296811502561727 3.417749260477663 -0.10084997883954246 -1.0771765249365322 0.3524781888076381
Ni 3.410141223934917 8.545329163445222 3.47279917735745 0.7647473816309797 0.05640794647608349 -0.4798776360009348
Ni 3.705621848542062 4.334259085326818 9.193758585290556 -1.3768774220421383 0.5918910876564646 -0.4169105482500949
Ni 5.372224348502458 4.626525687794674 11.578630388743951 0.709914750061816 0.1627973670766164 -0.3927468065196978
Ni 8.15401058688865 9.04472264876483 2.4489828954975428 0.4318885097161659 -1.5574575670234725 1.0050077160817659
Ni 4.926194556549333 0.4668144087790953 1.5007644205002713 -0.6472857623766852 -0.07000214022075041 -1.2893863810080053
Ni 6.643365552151676 6.215154007582649 13.227125106181354 -2.01330233044492 -0.06889142365507489 0.3892385362561232
Ni 8.503337463427098 8.925521578375136 11.254957418096886 -0.782109269948195 0.2149838192721846 0.4483960204528858
Ni 0.20959612592306986 4.849531478892656 5.8010486514000235 1.1224348825536992 1.0087818384122174 0.8972638383358676
Ni 7.565025096326556 6.426132254074399 2.5250332148256818 0.036923098278594475 -1.1559864932568995 -0.5272247578263307
P 8.66273657275435 1.7272409913135407 3.342231576546545 -0.056776642669411896 1.5235326321412537 0.5746947783828361
P 2.2611783859715624 3.6562187773585544 1.3659721560275258 -2.156209386355512 1.4219717432776156 0.5144972829573332
P 4.8268876458603325 1.353376466997805 8.026088863793543 0.7916269796306431 0.148656299689544 -0.265956967885942
P 8.927269715062794 1.7556300027308234 12.399719265082714 -2.006114297336913 -1.428948688816081 1.9479086355304582
P 6.621978192363606 7.9910241554002654 1.178412567735389 -0.11968973725386485 0.4906981236552065 -0.057974519632254994
P 1.896373215844472 3.4313464861513547 5.652824870043771 0.006928865909349357 -0.5109321913138942 -0.5189902857316804
P 7.267759915517428 4.303648483535636 5.932855426185878 -1.1280781968824056 -0.9876278300424217 -0.8599136798221836
P 2.574886977498976 8.791780016890701 9.988263037146899 -0.37696177577129913 0.8908443079627689 -0.5479115967517209
