# total energy = -381168.55391544825 ev
CRYSTAL
PRIMVEC
9.26514905746556 0.00000000000000 0.00000000000000
0.00000000000000 9.26514905746556 0.00000000000000
0.00000000000000 0.00000000000000 13.56048218121691
PRIMCOORD
 96 1
Ni 2.5967247505362483 8.094608514004452 6.187471191948754 -0.34107148963259326 -0.8045012644901499 1.6572207405567394
Ni 6.99968101302638 4.0886916771167074 4.365742791952901 0.6406985960774708 -0.750611713560546 -1.6292003440844134
Ni 1.4928749111721802 6.110300840286447 4.833063931014077 0.8456042051780469 -0.5738655976133215 0.21086156957369492
Ni 2.4279971240072986 1.563336368519534 3.0316086033156244 -1.5452569111922225 0.6926508207750459 -0.970215033882613
Ni 0.23403488154595056 7.754938890360621 3.7730817921237114 0.9240675887922731 -1.044651555725633 0.48978538203294997
Ni 6.7590558310713345 3.819603957755866 6.698051311201225 2.043357240848771 0.8034579108273001 0.6905718267588301
Ni 9.05182810695442 4.153556984531411 0.9384993596073882 1.3476869165211112 -0.8246155187415218 -0.040556067045491445
Ni 2.7479968365468 4.160163035693629 11.379400282087563 -0.33776068009180543 0.007939566562050844 0.04170663571016688
Ni 5.416304127446711 0.7481700384294768 13.35763094464526 0.04855759719372928 -0.3737404406205241 -0.2809285015941097
Ni 4.618695254512898 0.15928458677504773 2.214779178998894 0.042427315926275314 2.697412460738806 -0.33209576849654415
Ni 6.001898598213595 5.7767554800622865 5.968822016658033 -0.49528522880525677 0.5680631319989314 -1.2215054008953157
Ni 7.406782390328863 2.852804200848347 -0.06737338322061183 -1.8203181553722778 -1.4485168407559956 0.8495878724161432
Ni 5.119791567356328 4.210834135001016 12.147344001288994 0.6392888602141377 -1.6128201029541773 0.03173821164354534
Ni 4.817052827208427 5.720756920140209 9.747193282285966 0.16066155168053622 -1.4585855378459074 -0.041950119179540654
Ni 3.3733758566693104 2.202705763473669 8.055495687943722 0.032598759871627726 0.785434477666686 -1.3127535949790359
Ni 2.599828575416112 3.0467237672231158 0.21678039475857683 -0.7517170308095827 -1.1690988622691414 -0.51530640912219
Ni 5.146725355194429 5.103725799172198 3.019824260435927 -0.7592925291639956 1.0319875871047195 1.439273724891173
Ni 5.322494494883666 7.904135583018666 5.306935530344099 0.12531248275728096 0.5020192050949807 0.08926587354636885
Ni 2.32871178844724 5.810008099446857 7.140963415498219 -1.558360538453716 1.8223441846633712 -1.7021515396311588
Ni 1.7909810768725236 8.938413419329311 10.741542959433112 -1.2096945243033168 0.3808315431393506 -0.0916243464762164
Ni 3.5679625137645274 7.75444783746918 1.0148719819498258 -0.08311373790204395 -2.0855372166509305 -0.41897308720607845
Ni 5.741510853665268 1.9915252247072999 7.4886946451956895 -1.2417914048378613 0.5092046670998263 -0.13246580597261057
Ni 1.0870335941194333 0.422004369300276 8.21686585973506 0.4737054457519519 -0.8482318726088811 -0.36384683565589593
Ni 7.014653493640887 8.231325051100777 13.451144092443663 -0.6779225134259357 -0.015437417600992768 2.541450628526784
P 0.20398615064931178 5.2977843427803935 11.688376320471656 0.858616815387631 0.49313784344495076 -0.6762232713466418
Ni 9.018649608761013 0.6679875868613677 3.3182500737731515 -1.7283395108804362 3.235059442339725 -2.160281756652673
P 2.1085625855503998 2.1867882376718604 9.774870135065456 1.9700926278266655 0.02760516331177827 1.9808835477945819
Ni 3.235130570005291 0.10205561507969792 4.554843554387319 0.6062201026846269 0.40305795863771876 -0.25020587569927233
P 1.7391981596977226 3.8616399382930053 2.002001328563007 -0.010541780071588297 -0.006709293699375542 0.8501128916816778
P 4.883493209935301 2.6429300480761895 0.3147185776692854 -0.7060197858827841 1.3081993999494501 -1.2550955781459352
P 1.4207179315770204 8.95387695283526 2.301824326353615 0.1629295217791065 -0.5775291625078376 -0.6517306855219163
Ni 5.813047068284455 2.833866236506731 2.2415072805315233 -1.014561678318788 -0.7846384641279518 0.8594974182203714
Ni 0.29285653233637077 3.2015536704093925 3.933434650566366 0.5144484319972689 0.5111607623849327 -0.6877978635581187
Ni 6.01114521681092 0.8699845100428981 5.242658559884235 -1.274181905353425 -0.16770534590119504 1.8807215961609998
Ni 3.0643368152727306 7.5123680271376 9.112087708853362 0.5869229450179118 0.019336495545082825 0.2426216355941112
Ni 4.757329677430511 2.9592329662065397 9.72923927675701 0.3642294158062953 0.6722732855599584 1.1212460044519206
Ni 8.205493815981196 8.45524516959793 9.774829368410318 0.5935656471454099 0.43151312865461816 -0.3514800865604269
Ni 5.09232040088231 3.0647352166752206 5.316726013181567 -0.8321827895658185 1.1582392938468182 0.4312020251721025
Ni 4.286048613731563 7.466171994746555 3.2483324806659413 -1.0156266292481928 -2.0882983243358355 1.7892273475047442
Ni 7.978766357368823 0.4788247479293513 12.159222848687424 1.0028862988633889 2.157651775228994 -0.39589769344385367
Ni 6.003204984207807 7.743338923943935 9.359933221342374 -0.951304313021039 -0.5739980094261276 0.5586086714542509
Ni 3.2223539296789268 1.8353148143356512 11.784452208454447 -0.12669085116204631 -0.3016441368749063 -0.5110684597814423
Ni 5.907773950588116 0.3314106699187256 10.969087604178032 0.016882120467319312 0.19397302134847239 0.27933724584758984
Ni 0.29048928679366876 2.641419828806286 12.341095868468763 0.3250450322973499 0.08359196309004313 -0.17310903341526962
Ni 0.4335505978533691 3.7341422243473197 10.112946153099326 -0.24373492326294796 3.245531802625959 1.225003129635929
Ni 8.441217734170726 5.598660788000376 5.348308126220347 0.4694741812794237 0.3353800956747708 0.4171817996336106
Ni 8.805838403789103 7.602721759162766 11.976536348833092 0.5260160822302102 -1.0020180373258227 -1.3374348997757999
Ni 4.1793789545020985 4.676509783618419 7.245799501761341 1.7613486188166052 -1.422854402992885 0.1467552260120892
Ni 4.044117045782307 4.531352695878644 1.1530681633247009 -0.3467006628939126 0.03349401799238747 -0.35519353085627214
Ni 1.5193639718633156 5.2086906710049625 13.43639026934308 0.8704896555658169 0.4640584095804911 0.3214930532800334
Ni 7.305495782607459 0.8949160992047646 1.3295238505470663 -1.792901711032538 1.4136285135192428 -0.3715382907628827
Ni 8.026278040902975 1.8543176347195336 5.3747378899585545 -0.3517726781001812 -0.017029444678460993 0.36280322488273
Ni 0.13453088847196748 1.6031487133218456 10.012720404926414 -1.9056530692953566 -2.7858964618138278 1.502906728360786
Ni 1.9704006852264364 6.553795722448944 11.529365982103904 0.28186438314481777 0.901361662554325 -0.4342043023335361
Ni 8.392399664642362 8.358767174153092 1.860918126792414 0.4834684386759867 -2.6565825712066378 -1.0248368349925512
Ni 3.5310316302685965 8.785010349072882 12.387215926638868 0.048606962374425966 -1.0702371175042213 -0.7837041252391406
P 6.2575333213787285 0.4277960138746128 8.770540039528493 1.133251513553229 0.9794434944594165 0.21086362645622395
Ni 2.789439847554652 0.6026201083765483 0.7250803608679594 -1.059824921031962 1.3859788701227742 -0.025733143100046
P 9.297298961781614 3.338613018014837 6.136619422237913 0.10567182570821801 1.651145480896937 0.4489035562169237
Ni 0.15854430137832798 1.604306856933735 1.0519677850960893 1.8261203638763517 -0.17042017372919682 -0.5195777828040342
P 2.403954062624474 1.1040444074908655 6.585946715629885 -0.439562738431972 -1.3425238842629328 -1.4987027175817673
P 5.761625491916563 7.5985617073088605 1.76811098333982 1.4830259302764588 -0.29925249671427817 -0.5425773290230012
P 4.4912623966094785 7.527368303198792 10.985143180698378 -1.5230973443760478 0.14995547811694176 -0.5512877123128054
Ni 3.849660100771621 5.929926921596337 12.78745275512496 -1.0115043795497032 1.503367470047288 -0.8747371179882613
Ni 0.5883758684651976 0.3710312261389083 5.126960939571368 2.8861352894319325 -0.43213842094344285 4.58019325342168
Ni 4.646222011880286 7.062721086108747 7.383600987793284 -0.10559340706179879 -2.1324485364904886 0.1874125945221353
Ni 0.9228394049448639 2.877051095506865 8.118145698257605 0.5020657420621998 0.6250973992051041 -2.6632836373758972
Ni 7.887504640751934 2.3015371067378663 8.175126363962566 0.9361132071028974 0.09650610004854993 0.7439548703656607
Ni 3.5166706494811675 3.6612718282872363 3.40913191928534 -0.7316559983936496 -0.22389834815299506 -0.9770289714806529
Ni 8.438845856053575 6.401022682317383 0.41982150022058684 -0.0305804438900183 -0.757106063035638 0.42659023743170404
Ni 7.368776749561099 6.79728383541258 7.87332433036796 -0.16881760512876734 0.008182021590160102 -1.5182934952295013
Ni 2.5709213108633513 3.5624219547252483 5.453767757004111 -1.7299814173592334 -1.1669800161539257 1.910391612421607
Ni 1.9776275013646265 5.971879515793422 2.3142322137539537 0.7955641099015202 0.668389891345152 -0.07608819851383025
Ni 0.9367250835939736 6.702556953108919 9.42978317886265 -1.1854989008937196 0.5927351808243148 -0.29856164129484064
Ni 4.6246156846568764 9.216812613329743 7.364765866604404 -0.9816662131423479 0.9807241609440529 -0.4694957785459785
Ni 9.241078038286052 5.47353495217184 7.6104683501539725 0.32610946900612225 -2.732313386381049 0.37803958221651024
Ni 1.120925508777766 7.8711145923564745 0.1333884956131997 0.7340859479913809 0.3692232694764609 0.9514626929757742
Ni 3.874166419599202 0.4845441243423061 9.661396150487418 -0.008029040952063592 -0.039476460828067494 0.3297408951111224
Ni 7.598293017990902 4.717443211437039 12.349896833404232 -0.47826066922280214 1.5184904417316558 -0.1828637988091883
Ni 5.808108743923358 5.858029366170241 0.32075852823401124 0.8511415900565082 1.392186798705699 0.023333789629934005
Ni 2.5450993408926643 5.031494698385877 9.12349218062836 0.32540087297487186 -1.4076080183567758 1.3298804844673096
Ni 6.805474227035862 6.40076325814832 3.5640201929096555 1.0571777132171019 2.5332554943105015 0.36346965482213534
Ni 7.102653877846695 2.8176985516847544 11.133454125122052 -0.03592036804569297 -0.6215001687721491 -1.5655033201460846
Ni 6.321045917054747 7.063369646531405 11.822164144002235 0.4270831179077225 -1.8420180089432148 -1.7588582482945838
Ni 7.883780050896097 8.125174240209438 5.483438469825829 -1.1561973237161252 -0.8807175039414122 -1.846236932120569
Ni 6.622589452995177 9.303784566008193 3.3487064712211754 0.8422018643647172 -1.827378404653169 -0.13814203042178144
Ni 8.041426559346489 5.760356166517933 9.925892988570729 -1.0866788080000123 -0.3495574156164173 0.3837705711630165
Ni 8.05845590301571 9.266816621916684 7.286806124256233 -1.0843941257308936 1.6776746375357172 1.692366949440569
P 7.948997433968816 2.8779312846519005 2.379213335529847 0.844084683209727 -1.065889639168803 0.5621213125931996
Ni 8.991419336158268 5.687865641562548 2.8498300880530154 -0.006514918300382328 -0.3278583333764289 0.2974568382664361
P 6.491997179318523 4.027726997386847 8.891987611245668 0.04450476728059432 0.2902649485036872 0.6968358053906708
Ni 7.0614610258590105 4.782280723405059 1.8091991391449893 0.01578323097618572 0.1439951467684488 0.24498319384775227
P 4.545102176838995 1.7141081364897497 3.8130859255081524 -0.009080879255345653 -0.5912447123217173 -0.5066693022724823
P 1.141929601322993 0.5865728704902081 12.7111616660928 -0.020374707001610072 0.4667457266046671 -0.8492150624577569
P 3.6483747410252354 5.355886091501663 5.015872730833822 0.7234742339138057 0.7553438289288927 0.16223455259461092
Ni 0.29870006174452013 7.611273491592958 7.1355664662668135 1.3489626979097413 -0.002620982562614841 -0.5988379512879429
