# total energy = -340865.07127233525 ev
CRYSTAL
PRIMVEC
9.33353627201935 0.00000000000000 0.00000000000000

0.00000000000000 9.33353627201935 0.00000000000000

0.00000000000000 0.00000000000000 13.66057378240505

PRIMCOORD
 96 1
Ni 3.610883760005591 9.486232703114421 6.4686090284347975 2.4474636953556623 -5.113431564431942 -0.7062000202143902
Ni 4.050633311156007 5.558298056914871 4.40273442529086 0.1509126998238885 -0.06909299814291972 1.2762866104012536
Ni 1.8724566688653654 2.200810467219852 11.125280035773715 -0.46895584688210845 0.8672222976684549 0.9566660915535847
Ni 2.903756401536786 0.9894014893282345 13.192998945641781 -0.13796925228934304 -1.0208984191700934 -0.690147851847534
Ni 4.2934545851182095 1.9354487036889707 5.534717811429857 1.561483400353414 3.8972213504972943 -1.853015388494983
Ni 2.3790903393736045 8.891415783974768 10.875592079337112 -0.7756552867927351 -0.33021552075469585 1.5817943439966242
Ni 9.151933442293997 2.6356319113341335 0.8555641824457922 -0.46468653008279326 -0.44059015125522183 0.6439307298615232
Ni 7.827383340364485 1.8470321166562236 10.807276195548713 0.05610198519989047 -0.499492582018385 0.869092518107974
Ni 8.039366611206642 3.2993396600830676 4.041125237978528 1.0513703625067055 0.8035047049048355 -0.4468667282925529
Ni 7.2113699608478266 5.34568010562109 12.359376973103654 0.7385961771569086 0.6729338019620926 -0.20906951067027862
Ni 0.8264780840429473 8.859709762001767 13.243215236315654 0.1376414366362791 0.3340346373904699 -0.04211261289933393
Ni 1.2501804866569537 6.817354736358497 11.863074593652792 1.0718833948583928 0.9982943086173325 -0.7035134745211625
Ni 5.878083669172443 8.967260097943743 13.695817999965046 -0.41010920905754533 0.985652965704238 -0.6265050781859081
Ni 3.8511009774089286 4.322733887717358 11.473283727581176 0.05705689291399206 -0.36395610754025065 -0.2959072343911291
Ni 6.520454954503573 8.314332583336352 11.241422825006344 -0.23034178978549363 -1.2660947574699162 0.27754801515765104
Ni 2.6265410472182364 3.676414516635689 13.34386715576065 -1.1954554978857992 0.9774457473030974 0.36889802492655827
Ni 3.60382760674931 5.05618181785642 9.184836956942632 -0.63722195038278 -0.3887585112959111 0.15956857572667357
Ni 0.8057034994955506 1.696799520342585 4.912533097874768 0.2514405194373218 0.5495573598852599 0.048562996510367974
Ni 1.8409559846855366 6.891612349198414 9.528878562695477 1.2984942568465443 -0.23025051562326795 -0.09295334970028508
Ni 8.023751605389501 0.9420991286101976 3.1693487034081835 -1.4812958349592296 1.583651451810021 1.981060953912711
Ni 9.327478588384137 4.486500111308256 8.48105753785614 -0.6585757334682077 -0.8377399719386217 0.1345226885016393
Ni 3.3153653414865545 6.395040230555613 0.49356765338724873 -1.0580950828250486 0.8341717949713892 -0.4114179005666398
Ni 4.3373875393210115 8.29559084294136 9.525955299203588 0.6552631241552069 -0.6127419629635448 -0.37453439727672916
Ni 0.8758067554381518 5.65798022196393 6.691167195625324 0.7446814641190401 0.464278238900781 -1.0560317725381168
P 0.27563051989670256 1.7437752072987567 12.59394180107312 0.2949803517014855 -0.17634065297868984 -0.6931169617781869
P 1.9798576682304898 5.00846878155204 10.920686125424943 -1.0382004007836507 -0.2632300558730822 -0.8003455904505636
P 2.8937695179597736 0.8626362027133646 4.400234904335791 -0.2720072878450799 -1.094828176580024 -0.582026536157559
P 0.6019542741595996 2.6698206538973084 2.997976581287465 -0.05252660914380631 -0.10520208516065108 -1.2893794390294697
P 2.621267599348131 8.66879228203187 8.22281819568752 -1.0265535605733418 -1.7112529877117948 -0.25850668225548384
P 0.6688281266277649 3.3256695652893784 6.484646843435153 -0.16100993615889048 0.3330735590287812 0.9290483298363162
P 9.068258291576317 6.316479857595132 13.053757521384489 -1.8194079848531826 -0.4930123736106799 2.6017879919642612
P 2.147898651333792 6.5298351582371215 4.61346233553385 -0.8017987779573222 -0.24012200910070902 1.546255527660066
Ni 2.9513854360166882 5.035218695880747 2.37090202819406 0.18479366884204948 -0.26063709833492527 -0.16276060030141
Ni 8.84311473489903 4.103890467876038 10.834692524351627 -1.638416463366043 -1.3222368518791228 -3.957274092814817
Ni 7.084723210140833 4.343715676765138 1.381206532480147 0.11779226312083585 -1.9914399831541898 -0.03884679766386858
Ni 5.45071038682868 6.755305388676273 13.189597805103965 0.9758943436555773 -0.8238195052027876 0.476814937915211
Ni 3.362378362586939 8.029781069679922 3.6633559663435418 -0.3697179497246923 1.03492764356965 -0.3546697971423182
Ni 1.3732058253752732 8.360141578285862 6.3744747172158105 0.29311270236512743 -0.9175421289689295 0.04563733822314076
Ni 6.212933608620014 4.405559686654189 6.013780216436699 -0.5475809528851795 0.09630529689165349 -0.9841969499840019
Ni 0.42183102863532307 4.297468005621122 12.592835777050807 1.8590448825185142 0.23970240506478718 2.952363821542864
Ni 7.529522204296074 7.483069195358886 3.296145724045634 -0.5010252166128275 1.012935455569275 0.5241597457477618
Ni 1.1831843648664901 4.628715200152125 4.09691551638342 0.07957924238622424 -0.7868203022706192 -0.20708359058850143
Ni 0.3892840550639209 9.422204645788904 2.216455340352364 1.2164593538309758 -2.2140419810932643 -1.4101629235681457
Ni 2.8470085023328275 1.1305152209178158 9.312809069769193 0.830288400756583 -0.771627910800897 -0.8406535460409909
Ni 3.2380463288211603 2.862352835604424 3.561694158297581 -2.5856234663892566 -0.34938206638081765 0.43198852562913986
Ni 5.060232572503545 1.9404981466937967 12.210353069708914 0.2227531788049583 0.29061976073994467 0.7495483052930382
Ni 9.325901220791133 7.30705737246608 8.314672324048692 -0.178276436548822 -0.09682260284770422 0.11809025397722887
Ni 5.3779554732933414 7.666911855000396 1.9232721725538582 -0.034655642400656446 0.19692516199826085 -1.3888811313712337
Ni 3.8742294797489634 6.959457822769725 11.599356465820893 -1.9068208643512128 0.08184618404353002 -0.5136963843225927
Ni 0.8407266601818887 4.777025088038787 1.2006782114911578 -0.3878411416879643 -1.1920040490020891 1.0392648374924232
Ni 7.731817264714923 5.943147748999877 9.83054498141281 -0.68477733156424 0.833977676682712 -0.08239819989225809
Ni 3.615102518301675 6.670454212415879 7.312846031526327 -2.4780335977227193 0.056885657443450414 0.5973179150989907
Ni 7.875563053471531 0.39874639391473893 12.70972898258212 -0.07820781595999433 0.4052570231715666 0.6520914112954447
Ni 6.317543880705207 1.7365603839295694 1.1539974642742699 -0.21036508955325062 0.5887882803614246 0.09808321472768268
Ni 2.676120790733274 4.040758430011634 5.9325821861875605 0.8393769933214125 -0.32878753005891764 0.460889010713574
Ni 5.4255565071650835 7.4858879232469775 6.415975351923126 0.9350693392194154 0.48240400196721434 -0.8877196462908583
P 8.820368907537182 5.492113952761042 3.070855630852312 -1.0536902688891339 0.8979894036479825 -1.543358151507613
P 4.386080596910987 3.8789522489919244 7.337749772423695 -0.6065124371140651 1.5054107257295621 -0.5892315385464304
P 4.417366609761591 9.132687690952126 11.885873622170145 0.17216209612096803 -0.04035192145448535 -0.48960411926007946
P 8.987149863273288 7.846806428891367 10.496183838771168 1.8598468095945193 -1.782454547557285 1.4737776722053135
P 2.4557093368350027 8.513780915258948 1.0699667058329603 0.07644378208103608 0.4205214055298048 0.558720771552083
P 5.344270741677044 7.1717771009098 3.897020108083869 0.8552216736631529 0.013313172169138363 2.840926039885146
P 8.968968135041495 9.312890271532856 5.341106672954981 -1.473804668788507 -0.6950059512707837 0.16889808065771558
P 6.2084068436341715 2.343333562753479 4.27619687695569 -0.88700359406044 -0.813569031119373 0.23941289884882638
Ni 5.997198256284437 3.8384260354485704 10.67755497806577 0.9716731064853782 -0.07129720488309012 -0.46152484452536
Ni 5.872632884117326 9.31412229829189 3.848156246784118 -0.4439426126672225 0.40766820371622053 -0.25775694857365283
Ni 7.7587351826925905 7.833776812560984 6.690497981090304 0.08635538476779323 1.4771514737735527 -0.8622595543465409
Ni 7.51970332436802 2.9773606668529737 12.796037123820431 -0.46411703073256844 0.11419374713630011 0.46138574784433445
Ni 7.544642532702392 2.3514164049756214 6.330008818104365 1.60771080675207 0.9740565191158902 -0.46248669421799704
Ni 4.162635743795399 0.7054986564275074 2.188806606501725 -0.7181026851892471 -0.0703716077450272 -0.6763446274158544
Ni 5.619292715023073 5.5271987147853325 8.168189942521261 0.8203392599636711 2.0468943074677526 0.24600212203056987
Ni 0.3991972037061125 0.7740292115451304 9.595705747483375 2.449190705349098 1.025790457155072 1.3331761244994458
Ni 7.6623757564785 6.458564276934255 1.2528452112001658 0.38632007705774757 1.5025866260172058 -1.4300259810406597
Ni 6.461569675543412 5.309783325960165 3.7720944614251013 0.10341336869134446 0.0992785205873645 -0.8351488141726778
Ni 7.894370128618895 -0.3125035874288013 9.345334576207671 -2.923178972448791 1.0842516866157585 -1.6408726382160193
Ni 8.298073563531533 5.458821229658983 5.155104233070743 0.32701526864984326 0.6219501118253741 1.4025180054283781
Ni 5.708978662959066 0.9579754734368315 10.17211413346514 -0.45522744155242245 -0.03776590589486399 -1.5055349100122524
Ni 1.9756949111507258 3.105454115648226 8.66779732708859 -0.3093101380605963 1.6199376878355647 0.0729895049838485
Ni 1.944212894043003 1.648274466401568 1.6240922078411177 1.0301891004434 1.0965137918125631 -0.2668460553591146
Ni 9.297443269364674 0.8760120932313241 7.378786530389163 -1.7367423902321508 -0.08866166430346666 -0.8178481181107012
Ni 6.165463244253018 0.6235119423818667 6.0760181015471995 0.040715475441491164 -1.7491063111141423 0.9804639653041306
Ni 0.2800807498869078 7.647432765257195 4.143908003704487 1.167510434736099 -0.7311451201955022 0.21073147175373383
Ni 2.1182553408285663 1.4671851998957768 7.026575280528881 -1.4646029476845808 2.330052469723329 -0.11739837011652686
Ni 5.034313342883579 3.7781967272967374 2.8340227536218947 1.1799604875739937 -1.0164488680391721 -0.9779142022990835
Ni 4.777781104459103 1.869563272688848 7.720928761555164 0.6038312907374762 -1.0160734869776242 2.276026907436493
Ni 0.8042680016505558 6.955995080893957 1.3099393845917013 0.27870963956592 1.5461642534978401 0.21210315529027987
Ni 5.310446007019948 4.183085521288142 13.227423826667104 0.13667521606826782 -0.3011831380780877 1.3788689985508704
Ni 6.521761649551032 3.4964452744562924 8.114721847886425 1.1829619934044788 -0.8066897875010365 1.1127703628807415
P 7.8828338780570375 5.804274066063083 7.394003927570435 -0.8442461484882557 -0.5340461516235383 0.2345267744011187
P 5.137047574222062 5.522494612614477 1.4382531048378109 -0.007795327674702704 -0.42921764775222204 -0.28616326763048777
P 7.528672852515225 8.930896641480153 1.5530565316467937 -0.3679713993472308 0.20408362741991304 -0.702120707938694
P 4.152564858393908 2.604140560690358 9.97887166966437 0.8115530291306087 1.1318913999809086 0.7860656834927817
P 6.062215668431604 8.928600591611046 8.2405771147361 -0.9364973299151935 0.08900722056834348 -1.5166747286791558
P 5.608148472975453 6.131647843131974 10.832288205464302 1.4247176814538691 -1.1164691518885674 -0.6893641796039741
P 4.052630687871409 2.525216179823799 0.530024445211371 2.1318978061933413 -1.36746332781709 1.9245180245206597
P 8.18626713514926 2.4179085158192075 8.895656009403774 1.2080050524160355 0.14941066135706527 -1.3466813580747323
