# total energy = -340866.92845527054 ev
CRYSTAL
PRIMVEC
9.28260573799847 0.00000000000000 0.00000000000000
0.00000000000000 9.28260573799847 0.00000000000000
0.00000000000000 0.00000000000000 13.58603179772579
PRIMCOORD
 96 1
Ni 0.4325193098951753 6.284658383035586 3.0895585051115764 -2.0925915523945506 -0.8267922146778665 -1.4177098826774681
Ni 7.088606316731794 5.693839081309461 10.2040475119358 -0.23759770001695857 -0.5280840205028325 -0.039361532516758016
Ni 1.6989675140935698 8.079459520668317 13.514895916144118 -0.07967205921034666 0.8304652926540794 0.17296299475570856
Ni 7.92541467539203 7.932915020977041 1.1484718524927946 -1.0464940082510106 -0.36452817799363674 -0.8595699233295198
Ni 6.843823998567548 7.973879160911012 8.16794967466255 0.6546491447202919 1.2925881757747546 1.0192649973317285
Ni 8.642978678377716 1.1852216893381586 4.7044896595323085 0.7902905202074068 0.7272367862800314 -0.7798801235073601
Ni 2.298224704602831 4.534766492853693 2.0668427563476452 -1.8597509074466034 -0.23906374303952377 -0.7162136956966504
Ni 5.127275228857631 3.3903697043606753 6.471067962119663 1.0618229252985971 0.9184504997158116 1.1984595748194455
Ni 3.860180955287062 3.1684225967646524 0.5377636393181024 -0.31204322072104324 0.06301105361489794 -0.04710518101791887
Ni 4.267613094417327 4.531387624298071 2.9682218500621973 -0.43401635469244615 0.47066151671930556 2.3431748660379
Ni 2.7292903584106147 5.854177533400891 -0.028182919839911526 0.5717225831283896 -0.8200865205229168 -0.14878614039918892
Ni 7.527627163814767 3.9088218103185617 8.483811691153647 0.5679551456661573 0.0016010259385327264 -0.6448673827431798
Ni 2.7037353443072334 3.223384906429063 8.591331187288068 0.7921555984406035 -0.3891950846126974 2.162232452621141
Ni 7.003401276973372 4.6535374356262205 5.259003761236736 0.8775501619570241 -0.46810738283888415 -0.02705494723526308
Ni 3.9983061314070456 6.164810657976102 9.668974900074497 0.5216837734034435 0.6423890964060163 -1.5412300494210167
Ni 1.988519840619824 5.333673971534233 4.387799634592965 1.8742817540729269 -0.3775011932145369 0.5543372977724066
Ni 1.0134006537211626 1.741955262118546 12.829588968737527 1.1235630826208716 1.9775110317779234 -0.2540270492175754
Ni 5.664199720600381 2.2803556882029006 12.311539727876658 0.055271261768479005 -0.21143595401992618 0.8457219617028339
Ni 2.179379500982928 5.366079548808082 8.261055140321224 -1.79011489231602 1.7773210829854613 0.7226854194639231
Ni 4.659933151106507 7.384285163166596 3.5350038437531954 -0.2229534677412225 -3.1981312018548085 1.620973071078615
Ni 2.166950091653314 3.7521499875663378 6.302260988645554 -1.1458110953857945 -0.44233155942636077 -0.21493908207717824
Ni 5.433684767738313 7.917886481989254 10.415500633536954 0.18400099773742504 0.06927528935705489 -1.1293138690617197
Ni 2.2079606446168953 5.208303095951134 10.79842297999066 0.9107862983023347 -1.9230699792202237 -0.13066166288433628
Ni 6.888733246018386 5.704690447632328 1.0530875070802606 1.6340054787825409 0.9717584671103328 -2.431303540656032
P 1.7024113608906475 3.853358239934361 0.03657625211462185 -0.5661859695808765 -0.2441164749720828 0.07878631417128366
P 3.7601701590829824 6.737974443238504 11.939703597675647 0.050293606048229515 0.24113245264309435 -1.5715955490867515
P 7.930798586826815 6.958686964246895 6.131077668055402 0.9899587921684434 0.1201101126207351 0.013961090165782408
P 2.150083596692964 7.44376810191504 4.8029205562084565 0.5489449231122417 -0.3486400460084705 0.31360233767804696
P 8.483512791242958 6.618795065805407 12.419711791207398 -2.232925962481961 0.8524641655226737 0.34809600057954243
P 0.5173251975989505 0.6788453254242568 10.968682681291568 -0.3890691005577945 0.7488111700166975 -1.239051894419511
P 9.266992578881064 4.084736475147179 6.726688650958486 -0.44060274966071217 0.9360389022215363 0.9163331962624929
P 8.342398616016077 4.513824933893567 2.390462246607793 0.5276896132778912 -0.28953886897094006 -0.11340210447294019
Ni 6.150060597165978 3.927238500467893 2.147707249576921 1.3787617835490449 -2.6376924191703544 0.1478248049271841
Ni 7.295803363517692 9.063257944104087 5.9784651288728865 -0.48096598396910717 -0.06930999924973225 -0.39579947730309256
Ni 6.46056376525828 9.04631718829636 12.15804534113155 -0.336992177356897 0.10512572339676089 0.0017254673315389639
Ni 0.045844005867188516 4.592188693087445 12.328087829453883 1.748383574015505 -0.7064946686366735 -1.292600774180245
Ni 1.1697197374483488 0.19105645160865156 3.3911689367305633 0.3565042792478957 0.7950159507075341 0.25619243230001043
Ni 6.445758008812623 5.950763048019738 7.257359451091555 -1.4957004404203338 -2.171758646944021 0.7332022598348469
Ni 8.667271258075699 3.0626287370711407 0.6102412980968136 -0.5777042546331211 1.8701214520476503 0.5339641334326932
Ni 4.83151283896953 0.4721068393709076 6.4873570789916615 -0.004513828709953517 -0.6866015292571723 -1.4506120327221275
Ni 7.612860051390956 2.605172634626992 6.334542179000047 -0.14050204601352576 -0.41089930905900846 0.2609895965783376
Ni 3.8251112701135876 2.426510318445451 4.866054343866041 -0.155194615028694 -0.34112651124024473 -2.000834536995212
Ni 0.5498774400463672 2.5271523318522293 2.8414372335971723 0.38208315615826455 0.0012708962926236177 -0.14313511276099866
Ni 2.382297266438765 7.129069195945974 2.151674635348002 0.6803874300266605 -1.220376172386879 0.4074627725736337
Ni 0.09133434444874725 7.915463721843602 4.657400856210974 -0.6960757872961947 0.561308072663285 1.5716269165453194
Ni 6.420165864285553 2.637819559654813 10.043623659869887 -1.0039088265906324 0.4699894303529454 0.5758173220230535
Ni 1.5891171556121255 0.4957654170844158 9.111010453748847 -0.9706492932065541 -1.0618815464506746 1.5634137846069074
Ni 8.820174342823575 9.195423687222121 12.64029435573288 -0.48945139573229896 -2.2900260499290623 -0.5607550283732923
Ni 7.148358451051978 4.063442177162014 12.330737085184033 -1.9049527007942226 2.414149911694881 0.10438318880378153
Ni 5.1176398839105515 0.9636551685849397 1.045274337675678 0.780135691161592 0.5903661663715059 -0.15055428804320523
Ni 7.134610911681433 6.242979482445617 3.2215339548082076 -0.5802930984062199 -0.6711322299769796 1.4182708973872606
Ni 4.619590945769313 6.447094704065398 1.3871879876869861 0.4795853015714966 -2.3166192270365586 0.2514063237652767
Ni 8.178133621619622 7.815814947270481 10.463105549747553 0.7756336895261803 -1.6833968847314749 0.8458240344983369
Ni 3.6207454181339123 5.489649598842304 6.502791267858241 2.00558516430632 1.1599675893918344 -0.9394864944505045
Ni 8.109098881377397 2.151030422497012 11.835648370071334 1.0459031687445473 -1.1141890976051392 -1.4931871870801767
Ni 0.8474545793922266 6.5348246126346154 6.369852283666902 0.19877095695774802 -1.8867243507116538 0.4681469778275679
P 8.460454798132606 0.71403661273531 7.448677672187209 -0.2809814663192322 0.2488799577989972 0.7507646941986424
P 2.856629146449186 0.6776571518662353 12.805459762903773 1.5691925960722135 -0.5543684081206582 -0.0002627667430834184
P 4.742223452605409 7.6555693212382705 7.7306563205416685 0.17406111291589377 -0.009114560706758496 0.49085676072025786
P 3.493610847425626 2.0517251043430074 7.102777142932383 0.48881324792766784 -0.9435604074095622 -0.36893067793670653
P 5.185161559387484 5.448852545814929 4.8159087784145775 -1.9040633562107339 0.1249360732544687 -0.5491997194355251
P 7.122218632775508 1.2379933040049673 -0.027567483067280147 0.5398031087119736 0.4896707108319566 1.9943844104944943
P 6.401192217780901 2.3653379454191943 4.199890914652477 0.1513994096523199 0.06287324248545302 1.028703774147125
P 4.98971629169889 4.498694286240639 8.531213318294554 0.4211744657327714 -0.2429864751326976 0.43156069406310194
Ni -0.15633672067843812 4.100303405278443 4.439724675599683 0.7241072395121142 -0.0795249921095211 0.6129558787465638
Ni 5.510117744900406 7.465322312866022 5.583995220652161 0.30593865048520213 0.364062808321444 1.4469443540625533
Ni 1.4241281179537522 2.883548703623108 10.663269166026321 -1.1692194470074058 -0.4464059866060506 -0.37230010862957175
Ni 2.0265042640528197 0.9309989609511962 1.2871465588833637 2.21043806579209 0.3672365780637353 -0.3277716871998936
Ni 7.754271270007343 0.5547851537973507 9.775299724826752 0.5088274862660657 1.444560427211409 -0.4437513225920229
Ni 3.7259916040780237 -0.35419732242794644 2.4516949565725428 -1.0224889035856648 3.055981078714898 -0.7771521830532357
Ni 3.661811666733026 2.2472167850612106 11.378342645843123 -1.507561453523978 -0.46728771515106615 -0.4232539739696195
Ni 6.2684416704897785 1.2228440911401945 8.056204736312417 0.612378408976539 0.7300117779220072 0.30772582429261197
Ni 5.879379808479235 6.556332410555987 12.408449205442185 1.054868605467951 -0.05438654517068053 -0.015690928372695558
Ni 7.545533310638387 8.459248059362741 3.5895521491934828 -1.187497419380987 1.2411586563498689 -1.3560085490129292
Ni 9.153039308582077 0.9278308075500034 1.0625706172902187 -1.628888726381266 -1.8797016395369175 1.6446483032083676
Ni 2.996759365448331 8.580970870818476 10.893253153829647 -0.1962780153325652 -0.11909144154823362 0.1549958687543266
Ni 5.486122208591928 0.2914431933525741 4.1933828796405335 0.5062489269056121 0.965981969637872 -0.7307427425507609
Ni 3.799110690925948 0.38038448199461894 8.526294465416465 0.6899843296864762 -0.14524341735325308 1.685028249687311
Ni 2.679721242786911 7.792209280410729 7.202540093558345 -0.10918806639159259 -0.49217496531104915 0.10939606863734062
Ni 3.1574784043825654 0.03383509858584286 4.748060355209189 -0.14560645711962666 -0.14007292889590714 0.7767392638855333
Ni 1.7084079243162866 0.6326866392163111 6.830227765673533 -0.26159740536566556 0.9714440211937077 -1.5792636071549704
Ni 4.22134858650187 8.180556381765275 13.702872399107836 -0.722735041754936 1.3222281101283744 -2.0853420699209892
Ni 1.1245320118198485 6.911679847857675 11.517205789133909 -0.4966800522702543 1.1599290228444152 1.1734165158078889
Ni 4.710458375140181 4.590694193533996 11.226708493324791 0.5715230655230737 -0.8767562053008191 0.6830027561623205
Ni 0.4585273151675524 2.275324515793154 8.14770616766776 -0.8965405870165979 1.6501116403157838 -0.332235379398202
Ni 7.369098819878135 1.5381742143119592 2.40017649370521 -0.6593907731703353 0.14962817668451006 0.06416522182399917
Ni 0.4279745460357436 5.830061323215427 0.5046655796424696 -0.6291070345851294 1.2056661198702139 2.520701826015207
Ni 8.734235977197311 6.080041900696016 8.334812870456584 0.5102621618300631 0.26580347302721313 0.1023677010356495
P 1.2390329558682358 7.389019292186838 9.485631365726471 -0.07189987146409553 -0.2503637414333753 -2.040104281129112
P 5.280020509304831 4.718097959814021 13.561427763110132 0.18276275445494977 -0.6189218665220115 -0.26593048552338067
P 0.5812916350077414 8.172953927515122 1.856368021410674 -0.11532528963758203 0.05211471841736831 -0.4221149752691698
P 5.776027274143219 8.19908446318567 1.9497046239568054 1.3975583474302578 0.9761442548828544 -0.33633063251349815
P 3.364619755532931 2.098583699037475 2.5122750993409726 0.6141043905287101 0.5380979530954088 0.6862307761813149
P 5.065109616997716 0.7914266265679658 10.509624401065276 0.6525794066754567 0.48915237643464143 -0.5038318328236872
P 1.5998200002402398 2.097868938381478 5.005311997908514 -1.1582007272993988 -0.937451980518979 -1.5037881025244746
P 8.793561111645081 3.9568314481473625 10.420852984111603 -1.604401796983495 -0.2875496064550532 -1.9483866036081414
