# total energy = -340889.48432143114 ev
CRYSTAL
PRIMVEC
9.12311419375954 0.00000000000000 0.00000000000000

0.00000000000000 9.12311419375954 0.00000000000000

0.00000000000000 0.00000000000000 13.35259980108124

PRIMCOORD
 96 1
Ni 6.78592730707869 2.0036091797489366 11.534629496148908 -0.15728055102344526 0.1912831332211351 -0.6091403616552155
Ni 4.590203592124907 0.3424096280160417 5.973618918682988 0.12132932973981686 -0.6586207277735302 0.0978988666310185
Ni 2.977410371113989 1.8355796655784145 4.348514055291077 0.34528089972825055 -0.5904777522487056 1.4577123912123349
Ni 3.418777504682004 4.255777601194902 4.301633109234608 -0.4555938237529057 0.762208674369526 0.0038371143579030687
Ni 3.8790477305163513 2.6002425909620874 2.2330089696754416 0.9815050049741355 0.4172165095262879 -0.12824765412620492
Ni 5.40757074724922 4.579319717089321 2.467466614019154 -0.976457415247899 0.42838512454859773 0.3992792083215769
Ni 5.1017001032273335 4.709406200016755 11.369431796572723 0.07410536375584656 0.2522475887196495 -0.08004332650683635
Ni 5.670216077005717 7.963903790393807 12.2099242211356 0.985111234268155 0.20900111932618842 0.7649839231218181
Ni 1.9248767056859761 7.086962700665655 0.2003034423565163 0.7759615051792442 -1.2562623447605268 -0.6784228501011219
Ni 2.52836157553427 1.3174050350073796 0.4061637734675806 1.446272524806509 1.1168332200962057 -0.1532644878855167
Ni 8.564834188314219 8.87936266754882 6.665137277345944 -0.33506770664067453 0.6792779990125656 0.5733601187318126
Ni 9.005371118505671 2.569141895240114 1.251397480390887 -1.153224100020414 -0.3937405378915348 0.28604036889937834
Ni 7.057002394197201 0.715870686938305 4.945802506091449 -0.2935438763652751 -0.33545568610771265 -0.7024454382679644
Ni 0.28158856372455404 7.532462604888423 2.089187638578623 1.7320542407278623 -1.4971813958412346 0.7293157802962472
Ni 8.005997838519704 4.017691694402193 3.837684443824109 -1.9454221216631788 -0.016685173965164814 -0.14617981312459338
Ni 7.9715124674932865 4.253451207117723 12.711514855026257 -0.1986017783697354 -0.7240627594274239 -0.72043159043274
Ni 8.201497049028996 7.481090349795894 8.723426753334019 -0.2326776370075219 -0.13410102758318843 0.9503218945031117
Ni 6.850445969485788 0.701842986808617 0.34860695937536607 -0.1486141335976989 0.35222313537403854 -0.4915357890651535
Ni 1.845998261798565 6.5371673568730415 9.160938458913735 1.2265558188350294 0.31369978248785974 -0.5422140321463113
Ni 0.2862824058920388 4.957673502064882 1.1922085411990357 -0.2166072138082205 0.8512215513648244 0.27782158053401185
Ni 6.261074557039047 2.113916751463335 6.814672414758594 1.0445548822467687 0.5256504713606753 0.6456446272288365
Ni 3.505173394528613 4.26265642917213 -0.071202255744123 -0.3281506678058671 0.27709292989810347 0.8888666154111078
Ni 6.3053763987597575 5.591766419477629 4.670552681993657 -0.499566886899746 1.324462655885848 0.47620224403187666
Ni 5.799098308881435 2.859202182651211 9.289470363210773 -0.6679003533032433 0.7388851691522371 0.008066321947902237
P 0.2980293275146886 5.900191535427399 12.400265222973372 0.5607275175694666 -0.2593029529045341 0.2958532412247421
P 4.12054568195559 6.375487530066114 12.471754856809383 -0.9621962773431945 -0.06679726013020754 1.098539049772708
P 2.2248173255895627 8.587158448341109 1.6305659594491628 1.043753469391396 0.3496579457500236 0.9887053793773165
P 6.5682954219370995 8.013971440180311 6.09851982359682 -0.07658159321048101 -0.6607372598959008 -0.8691195146911677
P 4.676125080042052 1.4418716796934712 13.168467004288567 0.5041511638363187 -0.5134924958419027 -0.3321147946599377
P 4.158224142891862 6.31168959366724 8.174488069948648 -1.268083505765171 -0.7311404922098118 -0.27583900288634433
P 5.170835061332677 1.26138911487452 4.026276544702685 -1.0171731477997064 0.14705630219227578 -1.5819288126919593
P 0.13442726058202903 5.749651030848846 3.7265767750094416 1.4689936205531087 0.8494978838054982 -0.8060598672265215
Ni 0.7527782447391981 0.13514342503323903 4.570781394670373 -0.1817289138737967 0.2970835140874174 -0.1507556054207339
Ni 2.1253115208844977 6.701401655607852 4.538441780063375 -1.1062461886089787 -0.7347747465282893 -0.06154475348201658
Ni 6.022751449281606 5.7261590122263515 9.28877609423323 0.7880775717164878 -0.19922681354824398 -0.5044465835895506
Ni 8.94722951280425 2.792603450245694 10.194629244628002 0.4361069186728876 -0.7989114291071983 0.9241020415746342
Ni 2.8667287517244366 5.344265459007866 6.5664078496446745 -1.2254132205901542 -0.9179177671407933 0.6714227646342049
Ni 0.9388779108652829 8.91310906633896 8.738662353761034 -0.8698335100390568 1.180691195092431 0.3025514791805241
Ni 1.7878749023252025 1.2784949536773071 11.371661485641205 -0.904424874860681 -0.1881816114776759 -0.4044149868862454
Ni 4.287106374767579 7.014160250720994 1.547552920284193 -0.4265071907995945 0.38860604487844685 0.0731442853941579
Ni 5.560921170948444 7.986592974981823 8.040788833866067 0.11277578374285094 0.08774892268121016 0.18754166390083185
Ni 5.456014482738713 3.3726054245855215 4.712506234163522 0.9850950363182388 -1.430181018561285 0.016423692773662037
Ni 1.294706727305335 7.219384700784295 6.814285594723801 -0.8801359204063294 -0.023252542770037375 -0.012165688828256468
Ni 5.0449360877441665 4.564339563855094 7.134120077077178 1.4585060907582235 0.22898938952265727 0.12735728110145164
Ni 0.7677565733506196 7.822294814448816 11.524615053880204 0.6082515312923589 -0.02629904290584503 -0.6153025246018694
Ni 4.667877784960602 0.32926504532427886 10.300596038687805 0.8657642250656896 -0.03597641809460901 -1.3844814596416415
Ni 8.194134696008277 7.451577075914818 4.61463164224669 0.16568163060294694 0.09921218612580332 0.4336430305134274
Ni 7.252291773083844 6.055320966362113 7.080723402981802 -0.42178073185820264 0.6261034718721152 -0.6290077900031038
Ni 2.3856030872217313 5.466889234660271 2.1826156247181325 0.6916010393542927 0.20491897883701482 0.7525364413870846
Ni 2.4357710912625445 5.368040294165233 11.276657937709034 -0.556129613786139 0.26534016023754947 0.6798135598010614
Ni 1.190913059007038 3.6169406644875157 3.5788571372883933 -0.2847694726067547 0.4307461685816065 1.0208120301038743
Ni 1.5376917463311623 1.4004071264355158 2.570669104528427 -0.7413989367130264 -1.0711822550263101 0.24107845947670736
Ni 1.3064481750595678 3.8353297680934424 8.434235898689805 0.09891985169636512 -0.051489169018227456 -0.34719585736277625
Ni 3.9892002092922714 2.579578737688321 6.58894741516263 -1.6619981073407246 0.1763607075833479 0.11984631743638716
Ni 4.456504356042325 6.931815023502885 5.720333903919375 0.3627775138511172 0.747426630964345 0.771458217992252
Ni 0.5085752899906122 0.22699949862569765 0.43732924329915407 -1.4911465025010642 -1.2038452646113915 -0.3546597698399892
P 0.11463375238654824 5.589722841935323 7.903430316746792 0.5791656696699962 1.4142995714443385 1.3280254335364419
P 8.714927660305392 1.558373845832985 8.2034101660407 0.5300506573109001 0.21977044202755053 -0.39935505586483483
P 2.0824328849521785 3.3163249341458454 10.602645010243297 0.6501486857467771 0.09907411788604227 -0.9931744708922637
P 4.1449500119808995 6.214510183039354 3.686051902496386 0.5284372900771931 0.1282049738137276 -0.8625955975297208
P 7.10076597219025 4.111048520252282 10.5645368506363 0.2391287919495043 0.12885314892068775 0.05083019527798988
P 6.584799135214029 7.984549397439517 10.180982890664689 -0.19755688204498878 -0.23102004679944085 0.2617683837258911
P 2.48973431073907 8.74155803015357 5.741911893218764 0.09604587258267974 -0.16028154263329816 -0.22859883895245794
P 7.258030211807552 4.198274613475453 1.4712827746974309 -0.041309914492380466 -0.088730312757873 -0.4643926529914583
Ni 5.691044146331991 3.300779147841873 -0.0928860731662371 0.5437278976876765 -0.12252746381297609 1.125481896910139
Ni 1.6342964007752745 1.4617600682748448 6.8652254142113955 -1.0203304624817653 -0.6505052977552475 -0.9670266088523024
Ni 6.818980349202688 0.7782253466979253 8.963746910752223 0.756522422618026 -0.5351800081176654 -0.1410625465026861
Ni 2.781856421920529 1.9406596929546809 8.716977624027518 1.1268101288032595 -0.22135295602332203 2.4580949498172635
Ni 6.490967907434475 2.240874006279112 2.346572580786487 0.6070729376032254 0.127160077488981 0.6751372373713146
Ni 4.313289712028379 7.067430113531379 10.351990189254002 -0.7837915427466244 -0.2354505717669687 -0.39250178038842726
Ni 7.914109834028148 7.350301387088292 13.357940397982263 1.051115309073106 0.5646078264604792 0.2993406855527103
Ni 7.799870200167615 3.860226746276272 8.395767376078695 0.04960300773910812 0.07719274443191868 -1.2016420863124853
Ni 3.4736804049034284 8.847349660424031 12.202753453509471 -0.8506505093527028 -0.7385943773846957 0.9631578699255153
Ni 9.203214969320197 5.413081108122225 10.183226264404214 -0.38805968545667363 -0.9153250667129526 0.5020978808517159
Ni 8.489632359380153 2.2697486621782166 5.885131098789723 1.1496978320347102 1.34835180379862 0.8162692036593555
Ni 4.27564774354822 2.39958882102689 11.175592080505155 -1.3864015594824899 0.7609316074293152 0.8476153220708047
Ni 1.2148612333309396 3.2697514370321246 12.70656100410897 -0.17836205428409282 0.4473819773660747 -0.4861909798134724
Ni 3.060959849383815 8.508891253093584 8.012067446282634 1.862093439536851 0.006455525817356624 -0.7189830309116715
Ni 5.815437806105857 8.081482483988642 3.7526679688185562 -0.4734066835646105 -0.5598589989215842 -0.08812996016971274
Ni 3.3226290059392993 8.506309411823617 3.583637649039146 -0.012724903765836149 0.5420281413877504 -0.022906729394844418
Ni 3.796383194307257 4.2643168359252535 9.316201999624663 -0.880442910123787 0.5413064327303775 -0.22604599062361716
Ni 7.2707843252189095 6.192359262178998 11.39887391016438 -0.21312799701036844 0.39791652364609537 -0.47744537241035834
Ni 7.867819153449299 9.074195890734057 2.4551020575767986 -0.037741480414831774 1.6826042136268506 1.1182414132976417
Ni 4.733628067761501 0.4207288250135269 1.8140837843052802 0.23610646018341272 -0.567628615564674 -0.17344636215003031
Ni 5.985319312424094 5.769539419430219 0.30543547148274314 0.044519422568613645 0.211575564921584 -0.24311888694550388
Ni 8.395116898048487 0.2375147998545468 10.616037741636626 -0.02058065236482907 0.1912412242396061 0.14089748167973154
Ni 0.17985124532820287 4.848360349779553 5.9048534466957845 0.6999159869778914 -0.42243559183338214 -0.6767210369186668
Ni 7.344435224768189 6.305093582224885 2.6090847130781736 0.09404863964699287 -1.0259830327818524 -0.856137500609203
P 8.464717134969266 1.9630660610078248 3.6886556392400207 1.3353772459158226 -1.775147986593543 -1.1826755725123117
P 2.0471173105491984 3.3672227873089113 1.607412408357113 -0.5928953605512628 0.4883915870092169 -1.9476924057545941
P 4.810262225597985 1.197463454879252 8.23291887836476 -0.9118540774452167 -0.38581254129370973 -0.9863276231737594
P 8.709481161230583 1.5410581754075507 12.393629069829295 0.20967371991318087 0.7403617536977636 0.06669210201091094
P 6.374383633268708 7.893929505797874 1.4203155858677512 -0.9122543982074289 0.18541279048328713 -0.13832226475338757
P 2.0072493022461697 3.310303678887265 5.8145099854091935 -0.21371369431050938 0.767059574703924 -0.018873696976051364
P 7.054511784067515 4.165112093983117 6.162892516179467 -0.30718794951127093 -1.6731790636582087 -0.749815957132128
P 2.521865918346225 8.676300395510191 10.187579814418449 -0.16652649510174547 -0.7609997416630894 0.30631454576738215
