# total energy = -381173.03524845914 ev
CRYSTAL
PRIMVEC
9.22228628388018 0.00000000000000 0.00000000000000

0.00000000000000 9.22228628388018 0.00000000000000

0.00000000000000 0.00000000000000 13.49774817944141

PRIMCOORD
 96 1
Ni 2.5838078883484883 1.2101760450182166 9.08676457661137 -0.7653361642549141 -0.3486984100502317 -0.5038734846948999
Ni 8.215009541233144 3.2289067989740974 11.806021102704669 0.05343112323594669 -0.3413306568312509 -0.35580005409201954
Ni 0.6064842766201692 7.69988030819791 11.911654089583822 0.22119894694396097 0.8559212708333388 0.4446458093818342
Ni 2.66982415052726 2.0936710505640823 11.194209111421621 0.9071368744752055 0.5547209063640706 -0.11441280512564167
Ni 5.03691753850704 5.710079865644925 1.5288355400665194 -0.10139505270973505 -0.6101644320443556 0.13099513496435505
Ni 0.51909573827412 2.4819938501310945 7.434464759548548 0.29471604229650533 -0.7545254467926554 1.3495561085193661
Ni 1.4566600848222286 3.3410774644485692 12.565498494090006 -1.9199517453062158 -0.1510343130034173 0.0955463072384419
Ni 4.823486171979399 2.0201233191525136 9.672851000900994 0.20626109468720605 0.5648924475804336 0.27178617297320934
Ni 6.226546330160369 4.692013261759547 10.67430273420191 0.940932997089044 0.21432433131131476 1.2696277103238394
Ni 6.82249967831673 4.452482825652629 13.307848255785366 -0.7089737263047855 1.6389759354139386 -0.6033754341469801
Ni 4.529673360062011 3.2691712999575344 5.10688610069468 -0.4285509607025006 -1.4258607939193766 -1.2612145465594795
Ni 0.7984323277467755 8.471176981411093 5.987061083255196 0.1800417559793609 1.0159400467235535 -0.840056021666308
Ni 8.881919158415288 7.8379102638138285 0.8241560502829873 1.19103037223491 -0.4922335864631264 0.0024353489143699994
Ni 2.4639919477216425 7.002066810393803 13.157172701509694 0.8157292719954855 0.4704715121956865 1.5950861760095238
Ni 8.696707987263121 5.0844123117696824 10.012481052244816 -0.5512902834159666 0.49170162521905636 0.6045527422845329
Ni 2.985669003866872 7.75640369952349 3.9121066622710234 -0.6141159604929359 -0.9971565954684634 1.681443874770162
Ni 2.3869581921754564 8.119521991260056 7.947757835427162 1.090706698212483 -0.48270713502992996 0.36107595777897816
Ni 6.663627356181672 1.710798622064686 13.705478186454643 1.8423476243684915 0.5573238912045563 -0.8809944117518828
Ni 3.679221805506447 5.761475665915354 8.043510065010471 -0.1090487126002509 -0.01190626451928272 -1.7014169754579795
Ni 7.79295161922055 8.232965332212245 6.758916627004246 -0.9315428141233957 1.7295594993304664 0.31062885687201985
Ni 8.889601322711943 7.617848073601559 9.812889570423048 -2.0809128305050417 -0.031214735039907536 2.289502316215109
Ni 7.815841333247323 0.4399888128193046 4.2800684986517705 1.1142497756397456 -0.4485497724219307 0.7900976874703103
Ni 3.6721206452322264 0.750461684522899 4.648138235779542 0.4751226378144527 0.0001144140906772223 0.453706891142838
Ni 7.006253728269772 9.061661513927698 1.9554455824834711 0.7741609616353957 -0.2788569637770617 -0.11999338453721271
P 8.127397823564191 1.477852898212045 6.5218688303074845 0.013603706826363669 -1.605721801346499 0.07107557579058728
Ni 5.171544470562974 3.0864501460443794 12.199871740542287 1.6926119755718398 -0.4799444846831282 -0.06015250112018028
P 1.4996636047685792 9.396587277146999 4.044572812700659 0.38348826403590724 -0.10433228096118806 -0.6013378348916611
Ni 0.7071778070800079 3.2305022544642794 9.610855105021228 0.2750044228001909 -1.0957404039816483 1.0394198750130486
P 6.6478756915734 6.997344999925749 10.148632428188192 1.0255958246457628 -0.9410746648732309 -0.2135185475805678
P 0.6217573045813856 6.994209422661809 8.205010738675599 -0.011032860775393902 -1.1454776233057757 -3.299597474122111
P 3.7243372289629226 3.8649955361089092 2.0923402746841213 0.4823626072063177 -0.4641365711165942 0.7380549599414579
Ni 0.26103127385148645 0.015000048293531843 8.280840985889595 -0.17511500810170488 1.6075935644479151 -0.2651429566250788
Ni 6.248357036716904 6.258584551968996 5.509564310758901 -0.8142318615143527 -0.5836854119172206 0.4347671168155416
Ni 0.3745050483477077 0.5755269067389964 2.1691148839917287 -0.7361520864917902 1.2952091583373695 0.4175929190291002
Ni 1.1660289615991344 5.497948841453213 3.798887422870345 -0.1759434175402712 -0.830370418947428 0.4383157533987484
Ni 7.598425939137262 8.917157513490348 12.71030314105325 -0.17574081461116187 0.10727850807370556 -0.8706716896696362
Ni 7.2772782713071615 3.7862556576396966 6.658898167884763 0.1858133683558155 0.4655591624957337 -0.15082322543387575
Ni 3.073566612404008 4.770439582502365 0.17161291034133866 1.4172668816027785 -1.3157142202692567 -0.6378621550699402
Ni 4.997768934138124 8.172255023010695 2.863317856799268 -0.007414547296516262 -0.2779287955358375 -0.3623003171043825
Ni 5.486974321029417 1.7516810162148408 3.3339440261731017 -0.30572910557755734 -1.003257823270195 0.03748128477490965
Ni 6.196454010712602 1.5379545365329468 5.727026738527921 -1.7466645344418692 0.9733301824728269 -0.511791453990396
Ni 7.863040993355712 6.434969995351774 12.023199484062719 -0.9525569544812177 -0.19066401157989746 -0.04349458084852509
Ni 5.7519767112628255 4.284812442606393 8.545612818971243 -0.292551944765651 -0.655670901116587 -0.5489084134473514
Ni 4.373521612317726 8.674795835559811 9.563559533137704 0.38975404243996103 2.0429731180364747 -0.9768921887924722
Ni 5.816034710307936 8.610378167357954 5.173308693888245 -0.7991839660422946 -0.5154946138735961 0.28470390947614194
Ni 6.0475878689639435 3.3699339975629012 1.6958843410316091 -0.6341643945033788 0.3571401130596817 0.7468494183046364
Ni 0.6256601760463856 1.7879799341879987 5.316047548771718 0.9714805308585978 0.0014056220982749986 -2.0260917689001046
Ni 0.10532311806718747 1.1631700529173055 13.18733972147463 0.07385725230078248 0.5849894754406247 -0.01017462654015667
Ni 4.258925485606735 2.671235160296034 7.262665559028586 0.7801647446273143 -1.6261607859271416 1.361538991912855
Ni 4.556242766230881 0.6856806582498678 11.748885351584011 -1.1887575170403335 0.5328081654513792 0.7616785128976689
Ni 1.8278939883007597 6.46612287769764 5.944016985250136 -0.19848993538221943 -0.9811049413222391 0.7062198177087321
Ni 6.466067543981217 7.276448265560824 0.5359983441839787 0.5143391601129143 -0.7428035303700369 -0.6617865270960215
Ni 3.1144121174098807 3.734822968224986 9.080326498705613 -0.6391824165432605 -0.801334436726394 -0.2811236483240513
Ni 2.7520961645614426 6.139395726794937 1.9898649985554782 1.2034511144967661 0.008516265001127269 2.335552573605952
Ni 3.547140224405947 2.4207117591931797 0.029734494748235703 0.09485339493647535 0.05067001555104176 1.2407783901923146
Ni 1.0446728991985286 5.407183101948177 0.837623354631616 -2.4187349599624026 -0.0807390670222803 -0.48226773349966623
P 7.058396533711905 7.541773435806696 3.748202660855945 -0.10114077060708387 -0.5140745935976179 -0.0939383393213737
Ni 4.778416859953276 5.60580347704673 12.414999085478279 2.2404736929222318 2.3819972382217367 1.065267689314088
P 4.881125459919501 4.7184351113512895 6.588952661412298 0.34035698006407183 1.0175708974587572 -0.49513301949810856
Ni 6.917913450001255 8.947517279234157 9.266217352341169 0.279875377739247 0.15282611479651745 0.6869357726681395
P 1.6051020014116468 5.307388744380204 11.86661244441591 -0.2267921247610223 1.4433756628746885 -0.9079832816359008
P 4.35810195000799 7.821402371747784 0.647187758420558 -1.0718119181905088 -1.6416336847517599 -0.03350327396376811
P 7.606855108605623 1.7322588817505444 2.57809652658508 0.5493575851696281 2.117389328164521 -1.6836190280446102
Ni 2.9092439192013333 7.58906531877579 11.055856375793235 -0.22150053734477979 0.7780440987398858 -0.5951481611411815
Ni 9.247831802831188 7.502901500019892 3.3652582985252 -0.19182666442943092 0.6416151943544692 0.05790227163342286
Ni 7.718214212905898 5.2614525374634615 3.24321148689792 1.6292024009669424 1.7051543310132247 -0.6500023899768999
Ni 3.127959655647322 1.1840493085807278 2.4247492760348077 -0.3494196044869724 0.753192844024161 -0.5354546019352907
Ni 2.575268051447283 0.9707009426277208 6.743083806278556 -0.836474989183269 0.5435245234276188 -0.3802561302518548
Ni 7.6781433799299394 6.06654888912472 7.946529426922583 0.9191740081453976 -0.6606058765243591 0.8022425503629603
Ni 5.522802902412985 7.885266702785415 11.808734299266584 0.19343797478060878 -0.31995450514831997 0.19621399486384916
Ni 4.903581726500963 0.573703660782875 0.8703661590960213 -1.018058378618137 0.0222194735198327 0.24458287308554008
Ni 8.54156146870051 3.4315019793689987 0.8381739251100198 0.39741027343363816 -0.5412267285323775 0.5335378445285521
Ni 8.545646941429704 6.361615931947684 5.754130115060268 1.5976457092065839 -1.4421263638486195 -1.177637752978088
Ni 5.675007511719132 4.653427216840925 3.758811978751352 -1.2158124642755965 0.1911664051376127 -0.8284274362884442
Ni 1.6232422381121554 3.1715349573300387 1.3936285262167556 0.8592048266806172 -1.1316216912592898 0.9968999993729669
Ni 6.572188389793496 1.6386987895661729 7.963509500035433 -0.5932895106658879 0.4546165474413009 1.1319430791544505
Ni 5.8767911309398375 7.33928892284464 7.879134804777196 -1.9442126747361097 0.490081316006814 -0.17807846160540297
Ni 0.037284780354085396 3.256933326342092 3.2103985930593795 1.8649136825944657 0.03959678845601568 -0.9357236849739627
Ni 2.437487097555266 9.710975009287488 13.068222830131923 -0.482997155466523 -1.3467698040234806 0.6736670805836914
Ni 1.8576543054499925 5.813673805073909 9.474447349525096 0.1552851178599713 0.024361202453183853 2.368423356192044
Ni 2.347016471204484 3.321111215106118 3.846547275053649 0.9977299514734301 -0.07523870602934139 -0.21038462993727639
Ni 0.608936482486293 4.7555455904986434 7.771679494170527 -0.5128756881935103 1.1377095493245826 -0.693329077788993
Ni 3.597798241790743 4.29960498946334 11.258539167905806 -2.3536379703527532 0.23734881723094609 -2.057700654054637
Ni 3.616288925361927 5.415612271416538 4.674122026782939 -0.5079787651125253 0.45564807402960883 -0.0019607232707966236
Ni 7.392344734607743 3.134535145615529 4.242962630647452 -2.0368356376801695 -0.5994498738403289 1.8827491681139898
Ni 2.279444781166545 3.6914874459801004 6.435604488633419 0.4297447239002857 0.4967777541903832 -1.0623034644794414
Ni 2.1122908461402523 8.292402965936077 1.905112189568354 -0.19291295551507423 0.4660420156694232 -1.8127112895592976
Ni 8.804664068003412 0.8150232203874542 10.589023332680165 1.35473868116157 0.14315002515933412 0.054713589492796096
P 7.265261632557409 2.7294093408282185 9.756617947507191 0.516702261028452 1.2696822177108587 0.13292860454164204
Ni 3.9890260614699358 7.335406340408994 6.232166391291681 0.5799056331598141 0.49116349332739934 -0.33906448650489346
P 0.00961884437144403 4.094980906132947 5.570507021569426 0.7438787657120867 0.4781195156592476 -0.7413662837028779
Ni 4.582517059245496 6.506184488387528 9.943750120847826 0.2612572484174275 -2.345787878180715 0.5739645850850309
P 8.238673927289833 5.785721055994478 1.1175409481267076 -1.790102551020846 -0.4934178365792148 -0.056639602870915365
P 1.749559890418645 0.23480493672443706 10.97511341678953 -0.8697502062966311 -0.76816694883549 -0.2703152448546377
P 4.459122871623328 0.09205962624071498 7.331288589678553 0.6245770079252598 -0.04230364586421747 -0.05910451947164015
Ni 6.629172895422597 1.3266074066572202 11.197704357842307 -0.14538971312313026 -0.3158186286030754 0.5181719035954431
