# total energy = -340863.11293040006 ev
CRYSTAL
PRIMVEC
9.37216026902860 0.00000000000000 0.00000000000000
0.00000000000000 9.37216026902860 0.00000000000000
0.00000000000000 0.00000000000000 13.71710390620438
PRIMCOORD
 96 1
Ni 1.7758275365754035 1.603585976997916 6.696552771690736 1.2596788266412435 -0.4827626708582137 0.7039119955111619
Ni 9.23135283417104 8.190949333861056 8.59126897165216 0.09764407030773506 0.1434683277307013 2.1171242474285927
Ni 5.919015870923985 4.476902841469901 3.4881633740890106 0.20144361869390467 -0.09660971550594974 -0.011560965364722026
Ni 5.435468639188166 9.348204927152437 12.439629765850743 0.7395377151345716 -0.7884814920231259 -0.1804248503503925
Ni 6.731516552415504 2.0537120855727102 12.294173840034953 -0.6083551467497588 -0.015661360686340768 0.6060987466154142
Ni 3.3170136711711584 7.235345138756051 1.9747825642812895 -0.3964239982609689 1.0456344884641928 0.07503918842402561
Ni 1.3588413863565778 2.1267212132856623 10.6015926417246 0.29221615869278705 0.4422320577340191 1.7535198668008058
Ni 6.45193564242769 8.068717620942914 6.971456973754447 0.6878539136070347 -0.329504096509968 -1.2549078876151614
Ni 5.413612761675123 6.135503398657165 9.956395328617765 0.41828506000011834 0.17815688025182222 1.2138134315676967
Ni 6.466387513407584 6.217462939331075 5.066001215455888 0.14827114843598335 0.47933796144738094 0.10846198685884546
Ni 3.0645839091916147 5.34131591813498 11.630677384199034 1.462064240423127 3.221717216704864 -0.23801807538382877
Ni 4.134997066361274 4.448064704631293 7.253303134854996 -0.48568730070417643 0.026190542352438766 -0.7069045024805827
Ni 1.5910085380517307 5.736502423801774 2.8724030788555517 -1.7336025590515887 -0.1426525166976253 -0.4735889747787456
Ni 0.29996160949032735 2.932370845693976 8.793170606515037 -0.6060853768789755 0.3083619152147141 -0.32722969865349444
Ni 1.9264943834449042 2.0669549478908618 0.8017883024188737 -0.7957872816559198 -1.7852164265731383 -0.2550812015137026
Ni 8.760954743151686 2.342758877330752 6.66577178604919 0.2370644532213079 0.5946473102453629 -1.4631657010174222
Ni 5.268831631391467 7.061997664278675 3.1066499128921046 0.9653335374205957 -0.8541798626621998 -0.03180428899479039
Ni 6.909456385375465 1.6214586864393277 9.886191288443257 -0.6764454146597769 0.5170696716701998 0.9929279020990965
Ni 0.44848504332928246 7.744150342146095 3.2762888235907877 -1.6762592452454292 1.050667937123042 -1.975962456343881
Ni 8.385028026631248 5.333424559273066 6.321129340171349 0.8066000560007076 0.6363914840616847 0.4515528209143126
Ni 5.300209623635749 2.7647778775600855 8.579788075445695 0.18258200590271134 0.8856295965310489 0.17208110637138752
Ni 6.112147975517155 5.61390519663706 7.6095220729730215 0.07453165265998778 -1.0258889304061494 -0.4335910942295694
Ni 2.4112225073619604 6.10028282074378 0.17337277930983072 1.3937554287443996 -0.1902870878564529 0.48589941671498255
Ni 6.799183548832386 5.351653410800883 12.385872929556012 -0.37355095031753727 1.4248950875719977 0.7347192107000057
P 5.585460690525531 1.7454711097894917 0.43140521863812936 -0.812529019890633 -0.7325656546921125 1.2066593370214187
P 5.232701953941733 5.225522879252628 1.6250379144076945 -1.472505233250793 1.3803131871965646 -0.42007094825594754
P 4.074349817910631 1.724580564773809 7.095926758520835 -1.0026212181274603 -0.24282295297163983 0.08034877356239711
P 4.767496039655752 6.788555519201258 12.089103477819092 0.908335779879313 -1.5102282017228637 0.8601599915050349
P 7.539668551588818 7.2762077570909 3.1964970635638608 -0.7959001530847003 -0.2968919669019016 3.283083278517172
P 4.559143546948867 2.864141519666981 4.182111852744558 0.20609191609919347 0.7721686137957153 0.7334195180519756
P 6.446574766811283 3.964292541051428 10.908499021899818 0.11674890945798604 -1.7268127898232648 -1.1286816347943593
P 4.6587040044193015 6.940993704342612 6.84233859754446 -1.7331407889238215 -0.9073680166494051 -0.9783993694656182
Ni 1.337810258938367 9.113732224055823 10.479112566561993 -0.3421017306693205 -0.3273189159331911 -0.13248688901853312
Ni 1.957816142728176 0.34830602328772386 2.892731294261122 0.6699904030630526 0.036356427141847066 -1.6117726355262694
Ni 0.10226807454312692 0.24384486326515784 1.4428468695952814 1.8758586116417433 -2.194830955382452 -2.1941506414859764
Ni 6.950075327545931 8.202805116474263 9.296396562956748 -1.575187637313384 -0.9058443809160269 0.01886598366656751
Ni 8.538675220434346 3.056195825840769 11.256694453697554 -0.5990043016624781 0.007689912445089983 -0.8197247663081239
Ni 5.233076840348474 0.32660384920144514 8.504604606573642 -0.077117411109293 0.9577104736576989 -1.4820759076583636
Ni 4.221773897361817 8.823410818514859 5.729002821234905 0.6675123738362052 0.5774851966437797 1.338816353504359
Ni 3.1771997857768306 5.755171766857512 5.178454016454171 -0.1403953452323324 0.42753460362284434 0.41585356774049026
Ni 8.364671694745173 6.016486336676834 1.8101774408091313 0.9221737142036699 0.38323758147768194 0.004826989074998138
Ni 5.470829799504079 7.449498998607263 0.42826554498166736 -0.8234089000279303 -1.314043517435053 -0.342702597478113
Ni 7.097574384278465 8.583849032446725 1.7594787403773966 -0.42109501864508764 1.6958788192485696 -1.8037682214333965
Ni 3.2979881860290154 8.227697573881914 11.732444985389161 -1.445856006094381 0.46409646190727816 0.14968834049848415
Ni 1.0013497088876646 0.5354390081570098 4.890970501012242 -1.338486480968766 0.9735160732313879 1.1619123718230313
Ni 3.168221256335366 8.482901495271346 8.690031858292253 0.9422771698217643 -0.4847979561206876 1.355416681065201
Ni 0.5077433376429477 5.818199543990965 12.688663994201224 -2.7501223895380122 1.6908245446541137 0.04095201693232947
Ni 3.9567760685962567 1.8586586881449885 12.655632752903209 -0.6767701449890473 -0.16859469048468384 -0.15634826901716298
Ni 2.1606765495762943 2.7699513099731212 3.8684012842869784 0.6211034475543626 -0.8907499484767498 -0.6077661070155082
Ni 0.6352937514567368 4.592714624672589 10.70399098929407 1.4765246388228315 0.22428967005414277 0.010599115672084974
Ni 3.533632409146698 -0.02247069122009926 0.39979011074158244 -0.3396188163464667 -0.31854476928498693 0.6126339766307707
Ni 8.10998324216501 6.628619605925067 10.790065845497988 0.8150579569600737 -0.34681327721237687 -0.37171621110164366
Ni 9.163920141758371 3.7729598912106184 1.998212027486631 0.41036683359430615 -0.5636290074869776 0.4412820351159239
Ni 7.500164896478408 3.6092469973865047 4.984631183656578 -0.07197726166925023 -0.5659016055712384 0.0684759333842111
Ni 6.063375254000056 9.183929703718212 4.044405766172136 0.3812480618514789 -0.9579020208432147 0.3525211262304316
Ni 3.79848965550973 3.4496859705170566 0.8563370862478459 2.0260107791505235 0.3507588921236862 0.7944536504461608
P 1.9150978366799558 4.06361869451765 1.4743963723706486 -0.9570916091267775 1.3328120562918078 0.507656605886416
P 1.7851809524236095 8.397089996768164 7.261971445794882 -0.5038850546591257 0.8004821160284278 -1.273618062430155
P 7.595667208595864 0.42048102874567533 5.728372074855563 1.0324010204930543 -1.5826610628722937 -2.507270897321282
P 0.8353537568464944 6.503070148307263 4.866320782552956 -0.6248721705681755 -2.9176544430861364 1.8754621475342732
P 2.10119144898655 0.8699070369558796 12.41637931090462 -1.7199348317565086 -0.7305874479198192 -0.029081233636672497
P 9.263733647553357 2.311680794211863 4.042787194111028 -0.24744039713899318 0.6288897763680007 -0.1816173279965969
P 4.7746095092236756 8.688226780243792 10.250297836559128 1.1509147351609468 -0.41877099849760135 0.26828458757785406
P 0.9780973795095089 6.929306620612439 10.816127948494673 0.45732469040108337 0.14155516986838848 -0.4284630289743846
Ni 8.505628983680063 0.3943280157953554 3.401540246515233 -1.4319625359417403 0.17748196567198465 1.7509801310980877
Ni 6.51344512961384 1.9182562546567548 3.231063464697482 0.03403703498005106 1.353749063554791 -0.11276575644052192
Ni 6.469986422912304 3.6961831551099116 0.7571515151841528 0.35915920037223953 0.17366670569095252 0.2224796134285975
Ni 0.6323658886200839 4.137611899048299 4.888158852961678 -0.41995499150337356 1.6800225689426034 -0.880103267396181
Ni 8.006092846696708 1.8045344631716511 1.3527644777032946 -2.16948476330818 0.4578810771251856 -0.11190932197749759
Ni 8.00712378431525 8.998763935268302 11.085107070899829 0.37427188764396185 1.1096256466041727 1.1745478011988546
Ni 5.872511212167673 1.6758921926982269 5.708866735112791 -1.1204075677110252 1.218029269421257 0.33502734032104237
Ni 1.3029177066308804 3.9203558541812975 6.960291919345661 0.7829111970242 1.1296630248710222 0.44235032847943817
Ni 4.9204403214462085 3.867300055467174 12.580998492617033 0.49415600029682 1.159094442758262 -1.42068104949065
Ni 9.157453351242077 1.736351997945499 13.060466023031486 1.4511864171683588 -0.7771989771307711 -0.45036342859190176
Ni 2.759004626896263 2.9133078719111585 8.484673770759217 0.0877293822971844 -0.01342270116380914 0.6952527771742671
Ni 2.5243632249166144 6.2260009772446185 7.33766288574807 0.21210161262838312 1.2016539133870272 0.08659501158242505
Ni 4.144875323178919 1.3795069995282156 2.76857828850843 -0.08440314613742883 0.1793899813279749 -1.912837759969254
Ni 0.4210405467077374 8.379114193564899 12.675372396650195 1.6227309343099858 0.7164474089740113 0.3466368995355127
Ni 9.335402556362208 8.099786331901635 6.397245338980173 -1.5225327301218294 -0.5644342769970925 -3.011072905348298
Ni 3.1286519961037764 5.207359632845992 9.387971939963583 -0.025388101055801436 -0.7659182620106293 -0.9162318947979382
Ni 8.001481743893786 7.196178881411708 13.382515939607035 -1.1673960206454217 0.3586735189850726 0.31242528665081026
Ni 2.283545569385896 8.037714515105375 4.706722267042833 0.05633955513199329 -0.6797672799441582 1.0152826156452128
Ni 7.86435766846783 4.564963658413532 9.299524052804989 -0.707331305605356 -1.425377426525055 0.046213265331268794
Ni 1.8289583125708748 4.1464498460872345 12.849195039648116 -0.17116579364596973 -5.018596681438227 1.414162788756158
Ni 7.50253605300105 0.6735921467694718 7.711138782384434 0.46218638936875883 0.1616640248031216 2.439065443989638
Ni 3.51097052585916 4.7538033136495095 3.2158102740231778 2.0618987512963844 -1.4154560536462848 -1.4178404947180614
Ni 0.7328138896584797 5.633849153475721 8.728919762479588 -0.8363662315195466 0.8196921132979753 -0.7786318529225558
Ni 3.573070459135928 1.4074079203499688 10.176718881507929 1.1373799338993058 -1.4369281074771316 -0.0975024025235482
P 7.941134404568536 6.343443516316634 8.219357288547927 1.4454158332331688 2.913620639336395 0.5046463583051825
P 8.869053238535665 1.0125213238085684 9.548860064712898 1.574030126670173 -0.33857314869077176 -0.16613620164186227
P 6.891274394648491 3.4574461191366104 7.245291812342925 0.4977329190148009 0.2047541711243764 -0.6047322052851908
P 3.423846924932383 3.402300328704902 10.92209334022429 -0.6748022226293992 -0.17979210186240005 -0.717086842330223
P 7.676258413885167 0.08222664723871406 13.225071146503643 0.26112252261177604 -0.4631549239296152 0.6575236380546096
P 1.2607898466732785 7.619791148869694 1.0456425378442 -0.5412262143117452 0.8531586204865371 0.7061231442298678
P 3.842998044150142 8.801433102919626 3.509205748099424 1.3120365143073534 -0.5704352317755337 -0.16034530599169805
P 8.275683033944855 4.7336063084863 0.1250499214808218 0.8224511641003512 -0.20263326812663165 -0.5656398672694195
