# total energy = -340875.6869489729 ev
CRYSTAL
PRIMVEC
9.15982381866721 0.00000000000000 0.00000000000000
0.00000000000000 9.15982381866721 0.00000000000000
0.00000000000000 0.00000000000000 13.40632804780060
PRIMCOORD
 96 1
Ni 1.435042080850741 6.339999370557187 3.3025817197265495 0.4204147047486114 1.4864221004422014 -1.563988940384087
Ni 7.317526583220418 1.7725541003130862 8.72485103791725 -0.6989322829083833 0.9379713433575587 0.7710530121340333
Ni 6.214390709800894 4.670438326580698 11.08782355067347 0.6642979806639656 -1.0563765574720452 1.2457115658278741
Ni 5.392983530239849 6.172612754451266 1.7081944318910092 -0.9638911485471142 -0.09569517411148035 -0.4209885749742104
Ni 3.6396833790924985 1.2400935555917756 10.89906248624298 -1.0850728969654733 0.6313521218655643 -0.013744603279602136
Ni 1.8034043861314482 6.693257126754023 5.480774943362625 -1.4631875553942928 0.1790580519098529 1.0645704061367471
Ni 4.5999076850125915 0.9549024484199536 1.4230820992019777 -0.3107317009984713 1.1247555602670758 -0.7827026805578198
Ni 3.5391909545933156 4.320441467578441 12.848008225223754 -0.3768676733955961 0.5762374402796075 -1.9027217545811748
Ni 4.966877697109097 6.488910622501697 10.548902582380993 -1.509259410051691 0.7276785018031403 -0.9388200645110991
Ni 0.3494280339579234 4.798712495998852 9.12638472831156 -0.2783784814787464 2.471664460971582 -3.2034544138399346
Ni 0.22665617056444076 0.9114912965259626 8.763649302656216 0.08795795336822271 0.8027639700840692 -1.4062671880581652
Ni 6.964589420848892 3.2345627017841534 2.058488069177268 -0.5341703359062284 0.7791357891421679 -0.944308084208864
Ni 5.956935548430142 3.282560177344787 7.349683975863684 -0.3088411688439778 -0.8337419065228222 0.4946810195623546
Ni 1.0375973357026649 4.232250686147565 4.654395811562208 -0.11424594053047421 0.6424518313231515 0.9525263583535982
Ni 4.987478140341132 8.931524137358966 6.057327214869941 0.012262362307120815 0.4410876597169307 0.3857639474439614
Ni 6.79589294997099 7.054749564349525 12.90127076737833 0.6236951195409388 -0.07195232196858575 -1.37178612356216
Ni 7.284239784329703 8.832414846220404 7.19686514317983 -0.7355962139883202 1.1848111307980755 0.18070252949181137
Ni 8.728478328055038 6.170689191499408 0.8670395886732523 0.25938934197075325 -0.9577513541979635 0.32190597244773594
Ni 2.571418954043077 9.447533638930103 12.860341927674595 -0.7124375164836698 -0.4061533097335909 0.6186845537002249
Ni 1.7630920025546637 -0.09596655566816961 3.5389353955154257 0.8371884703105259 -0.04536120174361866 0.6201423691926738
Ni 8.517069599822321 5.593418789823399 11.60634009595853 0.11591381515120036 0.03270211821871142 1.2696320811992134
Ni 5.982876168809476 8.540839342013133 3.044081422485287 -0.06836974682364999 0.18578817154483487 -0.7702641976841509
Ni 4.497684053856736 6.481527804695997 12.825846948053641 -0.5881557889837483 0.6297472392722897 0.3315347537867516
Ni 1.2965638679641631 2.647628686230955 7.026108627978726 -1.822635747761861 0.14822435435844794 -0.6818596436968128
P 5.736760869031102 4.642354307483579 5.779253290619992 -0.057917184031758315 1.3611741523742689 -0.04984417721563674
P 1.428483647167265 8.31024078337974 8.148098166273526 0.5883496501621094 -0.42899499021845466 -0.5221429724280491
P 8.162914180914619 1.776630221806308 6.644323517223485 -0.2837770267864984 0.04566227792380523 0.2437236104090383
P 1.2658235000287645 2.2032581648811362 10.060188439096711 0.7847137974505776 -0.04680719016152584 1.2081546906200225
P 3.9533523777753916 1.6105443006487852 6.905063391330125 0.40375807002853686 -0.004820047096462666 -0.20063500674968027
P 4.1784367226134576 4.1363656529092605 10.656877666762902 -0.800168441442751 1.0957370615475386 0.5334010618403716
P 9.014429700584023 0.9639706737644247 13.30241516527048 0.2614120288277369 0.16158303505354105 0.06541323529848735
P 8.353026319323199 7.598055340189879 11.053838773225939 0.969513122719582 0.7074716878379622 0.8019170487027415
Ni 6.543045179861115 8.525478317869013 10.495478827331404 0.7397986821054421 -1.831327361998588 -0.9495251096334293
Ni 3.9444398694317853 0.553387993655162 3.77026124414109 0.9178462904729096 0.9036730842963211 -0.21843192572178513
Ni 8.66963562137536 0.9918806562135186 11.12619313566888 -0.2520336729366304 -0.25767364483122723 0.20160045598674314
Ni 4.542090878573903 2.5708144056867797 9.23695937062555 0.4295063826372345 1.5146456140642688 -0.5960873851259992
Ni 8.059811206695057 1.3747338023982187 2.6668001969844672 -0.11541913490296898 -0.5965581541148307 0.43000929041558195
Ni 3.426012174435454 3.7365668331010538 6.84775129117071 -0.199406790769534 0.8104412841236687 0.6823664081299022
Ni 9.047276827942884 8.219338694169105 5.805825022844008 0.03578769912257062 1.1031451810861517 0.278491610017843
Ni 4.908520461079173 8.927832728456115 12.136319244471947 0.4678415307720072 -0.3716863863049728 1.4317650752189535
Ni 8.673546866044136 6.195832907227259 4.893590864625685 1.6122919983648492 -3.828525330682477 0.21377334390385117
Ni 1.3329833265193312 8.176150125988114 10.351294044354315 -0.7737321016280932 -0.009774562888260585 0.975489652017991
Ni 1.968180452516992 0.06713326300218403 6.202222800156859 0.9871290360291322 -0.018187983762936417 0.7594768772606597
Ni 7.2542505219278866 6.203884392154321 9.573270537216521 -0.5185850798734617 0.12361426911925162 -0.8179023683874044
Ni 4.718609838789358 3.713255082089257 1.3555137445797305 0.7158033476321092 0.06081995950085009 -0.466333578767913
Ni 8.14754399694692 4.0181489697822474 6.892809379344434 0.8692293007961546 0.33610129011151146 0.014528789743794334
Ni 5.788083360551376 4.714790192356384 3.5574629706712457 -0.6086307690086487 -0.5036459420651261 -0.14367041643917836
Ni 6.845511714305333 0.9535559543536535 0.11049128791940963 -1.074768943936304 1.2610083440859443 -0.8523037286854096
Ni 7.752563244341936 3.116281899892079 12.640584936230814 0.14541773814758827 0.8292378480048815 0.6190617345339855
Ni 2.4664748552838813 3.867671388005511 9.224948093964738 0.7775013388625384 -0.12223461516290564 0.008045238901979694
Ni -0.020307328877466807 2.7648561084112977 1.1631290539408838 -0.3965448401095493 0.2614585657949562 -0.9733139845229108
Ni 1.4392006407561853 2.8370446780474343 12.358529236670522 -0.6808759396273047 -0.6815346562572262 0.013706293842498975
Ni 3.4887111668424273 5.0988432754301 4.846601885641239 0.1269425621615362 -0.39663894248525233 -0.9822516533321729
Ni 3.408553550691452 7.977620109709262 1.8955073282134585 -0.1948608232700644 -0.7483985079593111 -0.018133733486233285
Ni 8.709893046010663 6.486483269252925 7.431744087372282 0.9219551704349606 -1.2815794833690768 -1.2207929482093234
Ni 7.39157459704335 6.601640571304126 2.7500400937702048 0.20530104476678188 -0.8947600980774074 -0.1271791036523745
P 5.913627902542607 1.2646144033161681 10.518256560628473 -0.8694990095177736 2.7648728083743093 1.1584141288617855
P 1.1383828745564164 8.12016528426548 1.6584162866263696 -0.07991425712813978 -0.8254061329636171 -0.5547499598297929
P 5.4507820170313765 8.153681078745702 0.8716112566221669 0.14900854082264015 1.1724639220866324 -0.7209707507656615
P 5.647498388241334 7.4739672101479115 8.569015875328411 -0.5608941250543179 0.4191970302914264 -0.23775582286137764
P 8.220456192645898 4.68052329234258 3.247253637354622 0.33812731940260476 -0.23061355538964157 -0.23750462608252
P 7.3111788254792875 7.558017751320504 4.632476353734613 -3.1981391722746078 3.38016993365954 1.0130593827416488
P 5.630103883262395 1.7921011638333901 3.255753037654758 0.8610953588351105 1.0642184221139672 -0.8876515120570843
P 0.872684787945775 4.907549519779664 13.01884443089001 -0.6880434039100215 -1.8853953474875853 -0.3353962936246869
Ni 7.8197139110089235 8.45813529490684 1.0702850821312295 1.773269281513591 -1.0395214335879195 1.5936885243310488
Ni 5.249751368915109 6.698927057550213 4.611146788545588 -0.9015989753761118 1.2183380589109276 -0.6116656991802304
Ni 6.332900507282476 6.740201222602926 6.621197710630368 0.5531448201262023 -0.9438545416112133 0.4921495113897524
Ni 1.9296450747147802 1.6882928831981485 1.6917846079469487 1.393400616508142 -1.4383273018175033 -0.726206288132988
Ni 5.252270320399685 0.5621548608038419 8.50662282102902 0.05148351259127263 -1.5356029330422263 -1.0211503872798995
Ni 3.50518968946334 8.379846282766241 9.427839102250159 0.6713975678232244 -0.583536287933866 -1.8710902437188226
Ni 2.4649451647459757 1.339468481614165 8.50130096352888 2.169690965781715 -1.0539422369989397 0.2666326537967279
Ni 2.0943387026881015 5.68549333645231 11.197273366651803 0.373798290441653 -0.20626520845226412 -0.24939340710030597
Ni 3.1450620655812984 3.3809733218912483 2.9752261126500117 0.09067355252717288 -0.14566944914707816 1.0370261779698913
Ni 4.830469604351661 5.363452259017047 8.181533354306241 0.41184341813983266 -0.23894932894884655 1.1997435837381918
Ni 8.798047188147217 8.50059107720141 3.303761505003689 -0.48155785191683514 -1.0654198986212362 0.3013104076845714
Ni 6.846958966431016 0.8214236672434893 4.7498081979037705 0.60028393970585 -1.526000634065772 1.4360032816700172
Ni 9.010912328329198 3.5899913361695135 10.683288186091904 -1.653592913996165 -3.0052897230076177 2.0040257902390004
Ni 3.6730251369246947 6.71623912411693 6.684663380271011 1.4902576721382077 0.5955898766642904 0.5490032871540029
Ni 2.2183993532593287 6.246303535154568 8.560744554635423 -0.07762443265269858 0.5215693593127663 -0.2663017528198704
Ni 5.476566920409847 2.5915430864489384 12.506575801269053 -1.6371741063185095 -0.009632895104073733 -0.9550653227253681
Ni 7.213489306995669 3.0803021128687638 4.57624969266946 0.9449593446396177 0.7869586276206962 0.6143864405455032
Ni 2.439114462249604 2.0109843081076106 4.848250653885688 -0.11284340375599276 0.7712913533970845 0.8028495878193399
Ni 8.567924940340001 8.013325102025169 8.983593154501031 -0.6189648039448049 0.6095617654633502 0.5576918160669363
Ni 0.19091362297185474 1.2576804168659013 4.940553280121748 -0.5845356757326577 0.7310546173642248 -0.5116125052103705
Ni 0.6169379336727429 7.6982271708637535 12.803123257715699 -0.2601074510837004 1.2467783165294917 -0.4163878429774055
Ni 2.269538648307997 6.174563796873865 0.35133327726262026 1.3308865571343207 1.615430801104147 1.541080668327346
Ni 1.3030856623533178 4.533801238233756 1.927762730969034 -0.556457429439203 -0.49572385900457205 -0.22519392703596702
Ni 4.714478758354655 2.855162809089216 5.058462193176464 0.5431468283732258 -1.2785854337377591 -0.6530841142260172
P 7.308998787467183 4.102373547602864 9.216112528139206 0.16865562562960631 -1.2687841313766213 -1.0498624105026113
P 1.3180436542599048 4.872412436525734 6.943539230279064 -0.2983778074188087 0.05537924810125302 0.21456807189100463
P 3.4236306203045825 5.503377724029309 2.3860845796139674 -0.43813603328777445 -0.277494021991264 0.2680627013750351
P 3.391818553010292 8.05856547068814 4.9043564052795805 -0.424876597174707 -1.1780401306228292 -0.30052210745532115
P 0.9001587627924479 2.6297029114843586 3.3157874373822303 0.1402593338751004 -1.296566443696212 -0.8126529470630067
P 6.539372090605425 4.958835372005616 13.538916314218998 0.05385895480198466 -1.3696593070271443 -0.22535076432880546
P 3.1279515151333475 7.737788448906955 11.352853886145109 0.5850735505139989 -0.39232360293935015 2.449442159238272
P 3.282386140696762 2.3412417472943794 13.395883837048308 1.2942982164873258 -1.7297142797407759 0.7720516286018769
