# total energy = -381171.0367985769 ev
CRYSTAL
PRIMVEC
9.22430454184152 0.00000000000000 0.00000000000000

0.00000000000000 9.22430454184152 0.00000000000000

0.00000000000000 0.00000000000000 13.50070210397281

PRIMCOORD
 96 1
Ni 8.02606721692648 8.226640490762646 8.71194866891483 -0.5584850013921929 -0.3921821922654794 -1.7501640629546953
Ni 4.5227871155794235 0.1901636463746096 6.478244627929819 1.072247977286663 -0.8088335733169166 -1.2221972847560179
Ni 5.128584079611637 4.040946353433266 4.998067552470233 -0.3723217058961265 -1.2090049544354597 0.6865544780693208
Ni 5.2241386483969965 6.26890180794593 5.935839850697838 1.0795110866069795 1.7739956181566545 -2.2080937339296294
Ni 1.183533594224766 1.894570646612243 0.05569911697042542 0.19604995848215914 -0.8326221910960822 0.05871062646733115
Ni 2.0501016422961844 0.18834276869546784 5.21355283672231 0.3667951196509425 -0.34977775915733955 1.4490745130316784
Ni 3.4492072292339393 3.868304273175829 3.4222925539948315 -1.1779239167599391 1.2856451687980182 -0.69150359454448
Ni 3.3140803947772612 1.9638359479935796 7.234391295891294 -1.067582967710826 -0.6684490267178617 0.6501479144158286
Ni 3.8859226944886998 4.9909297857624315 12.849805563873241 -1.0167594573010554 0.3415965088981278 0.051696657043343225
Ni 0.6065690383065009 7.294395395702932 7.151807943886122 0.6525912337499987 -0.6872700160791066 1.319289853435657
Ni 6.0509407204056975 6.6248677129007545 0.8870395467204529 -2.323323378529612 1.105739424175889 -0.5963936035125084
Ni 8.328891904507769 4.0548473800921645 8.329460121655869 0.36067846523024333 -1.187747330608264 -0.17045179829808063
Ni 7.832550535919813 6.637846309124425 6.062422212032993 0.9967858423926058 1.2708063040129725 0.381460177862285
Ni 3.4517346886264666 1.8744616631242534 4.454151834185348 0.47090268619583414 -0.5104436817132498 1.3428725258516034
Ni 4.388887113601599 1.3525781957848104 2.375354303479628 -1.5321393999736581 1.1761172025685036 0.16321979932601569
Ni 4.165649723971858 2.5163902273043828 12.36652119809595 0.15833367487830796 -0.8622341004252441 -1.4024185037360364
Ni 4.741993484207214 5.075784161499136 7.658826444761852 -1.1576996192932643 -2.0550768432785445 0.39274500674748486
Ni 7.785349770549151 0.3440388794273151 10.434436228113386 -0.5519924516893139 0.3403279265983494 1.5030617658814114
Ni 2.7622917327276975 0.19375835778069658 11.605581581593027 -0.42704275158809035 -0.5383720326924019 -0.5365280375051276
Ni 7.926306365356476 7.361188583517856 3.0178390932122006 -1.2820916471188049 -0.458211720991727 0.3212277154337887
Ni 8.58989359615578 2.2643637837911483 6.414763887807803 0.7859898359495238 1.0721273925483987 1.0523805489387748
Ni 9.062307119253898 5.143140031879549 3.5822087839678507 0.667897782200082 1.3459717336022177 -1.0278103157985783
Ni 1.7419084095818635 1.9393638685469574 2.462001883982418 -0.6531607331002235 2.001807699541759 -0.013145279132706392
Ni 1.5085058365559 8.614291881167583 0.49732375700147413 0.0313466326320815 -0.28802063255420074 -0.1749622845739245
P 8.761806956369385 2.8447201164197504 2.660069836756504 0.8570610408647369 -0.49657489415095774 0.6583949849159694
Ni 5.360104894549734 5.827223666949638 3.2882172902343134 -1.2907004718337383 0.5480074988996367 -0.31065739611711013
P 5.393404633261496 1.9304347419339418 10.522703596460437 -0.026045789244458366 -0.02546163460621421 -0.5986469183230593
Ni 6.548610388820383 3.172893192361129 3.158313256901901 -1.837107716125791 0.45017008163417305 -0.5364853571926502
P 6.619222438637155 8.486765873497191 6.920324948595871 -0.44722899672797817 -0.31815936092111013 1.5026480753827605
P 8.00177039926255 4.749668105428318 -0.007482755690576669 0.24919954592194507 -0.3051408371742551 -0.5030990684227206
P 7.089228418299325 5.5552173802093465 10.088899321659257 0.35856604687293087 -0.5782518996064752 1.5894469754458755
Ni 4.644105166420726 7.385965065008103 7.857516115649282 0.9135975424988848 1.3550479848718728 1.1620748655428244
Ni 2.0157134356708517 9.056228302685739 2.876081828787097 1.3878143806696162 -1.6288951541391687 0.28099509316598703
Ni 7.00517655704127 8.621219333736153 4.834547386786774 -0.320014668962294 -0.019837860661533577 -0.8194229187969888
Ni 9.001362140398326 5.98469176654756 9.063561624645809 1.5330292587777792 1.778363665317363 0.6695623143866984
Ni 0.569455972175502 7.542695220257842 4.8457798221965565 0.39002683648537345 -0.46512258917894733 -1.2006226439090357
Ni 5.851317549917817 3.8989843094515413 0.3076157912618676 -0.3085863725206944 1.4460143860491161 -0.2934675146013849
Ni 0.750520764737014 4.163814087405752 10.344075865108799 0.061312325756236345 -0.7743468523939567 -0.9236613544927899
Ni 9.106094892014212 5.897374501548794 11.624306919428173 -1.9263555919500308 -0.2031228061685405 -0.02355953248749491
Ni 8.760404862107839 0.2527284130744436 13.237168233551952 -1.3802113715113777 1.6931457365881228 -0.816024177528085
Ni 0.9652496560322039 4.0920213266318886 12.841786876099796 -0.4389623858438117 0.6746317584898058 0.09076379824813402
Ni 7.091589840213511 5.124571507218392 2.0366083298896562 2.550214490762343 -1.407354507585073 0.3330025965815297
Ni 5.6646729756536045 6.399610200617862 12.080549314566293 -0.32459123258938294 -0.5047962536194854 -0.9484946114863859
Ni 1.274024019920719 2.9891542739678885 5.0414586801434 0.6597381292074251 -0.127661956826064 -0.1569751039678845
Ni 7.732116310132093 2.616372462178841 0.6908053856516021 2.6952861584244228 0.38263800022047 0.8806395995156252
Ni 5.703931614976947 1.667209992937029 0.6608955787893056 -0.5837669158874333 -1.4516677276801515 -1.3867728267789794
Ni 6.5383990839024 1.6536963870609258 5.413403847527693 -0.5999149864022055 1.0587941657746025 0.2695783666886131
Ni 0.028790898744363785 0.9826466940406205 4.264479843232715 -0.8165810784728195 0.5427835314965361 -0.7959173794758808
Ni 7.027314887486763 2.0013050722725767 12.049025254442347 -0.5471718903722189 -1.339272724315487 1.443986814096126
Ni 8.12956391175916 3.5735231789897357 4.6988790856646165 -0.4174921317851778 -1.0578251169931139 0.7220860953170274
Ni 5.7586317397860185 7.899500536908725 10.12157088524463 1.2157307031950675 0.6715042686044177 -0.31648711542500974
Ni 7.0034516121273915 1.0668369198639605 2.6016255668108372 -0.42472773030166855 -1.2629551833996702 0.9167679698070662
Ni 3.8927579040137466 7.612191129247986 4.163481090018634 -0.6341343125963916 0.5515599921375856 0.48572406747938285
Ni 6.1318655424883275 1.0518474252914911 8.460971028806451 0.6746793238982897 -0.39469081761994607 -0.7004605466274517
Ni 1.865597106641704 1.5338818978290465 9.32030445497437 0.9219438575810509 -0.9138973331274906 0.35249027299249613
Ni 3.4403611213600946 0.524067782610065 0.29293992303737615 1.1600984585427438 -0.01133779361032241 0.7561727525880912
P 5.203688365647972 0.5221417478613072 4.10677836873468 -0.35961582829368394 -1.217227085234936 0.3560201405226256
Ni 8.835592166883345 9.232237254031762 6.368510458494121 -0.35471479144764073 -0.6474562265162785 0.826511450212654
P 4.0307350485152815 7.69095746411218 12.674985625358229 -0.9373892456018438 0.410678451297454 0.8384313415786915
Ni 2.945707800468608 4.232489033308543 6.414075754703122 -0.11156093749914335 -0.23859554515385362 -0.6325749385290719
P 5.056339327924512 2.9655123819129723 7.1515376717686 1.7445454312163375 0.2864517454051841 -1.2186352784363723
P 2.279067324928697 3.13231547751541 11.396063499826445 0.3040830853337021 -0.9318886274985886 -0.20699283064690804
P 3.010859062108824 7.374812881046187 9.656485149523968 0.43972060416607495 1.8803978942729938 0.1081339140954654
Ni 3.7206969549305033 3.502754315998976 9.53788088902311 -0.9771600977418783 -0.2753857173990096 0.5344079058383312
Ni 3.1057494809808186 3.07641619314054 0.7530768194730333 0.984317534722266 -1.674519379736187 0.41420523350378985
Ni 1.3601421253536872 3.391915074901874 8.140923642569003 -0.14420006369040328 0.8826124069712801 -1.4236095359913545
Ni 8.704773082559184 1.676701802115534 8.6434323810469 0.11535614287551746 -0.572833299694065 0.8681322110772338
Ni 2.5887456706437364 5.634979939943587 10.874248292339209 -0.028175433992951478 -0.03465050019433387 0.6547057089898403
Ni 9.035750347023658 0.08743718095534547 2.045275486259067 1.9599799648726954 0.6258746436907607 0.6710316998433734
Ni 5.42642764284269 0.20261184509802335 11.952563014108723 -1.8794951799530664 0.6660746129484142 -0.150913728265153
Ni 0.9230115664030736 8.544943561047077 9.71927683411087 0.9534167313783516 0.07858345413185822 -1.6231302266309338
Ni 5.660595833129894 4.139849344698506 11.391379398076353 -0.052362572762116276 -0.27774650432170234 -0.3075910984869606
Ni 7.1045038663067155 8.080979500735655 12.366858807635245 1.5077231759128227 -0.08178164935418174 0.24527064318118402
Ni 3.141023220823971 6.925801418089824 1.2747204548993167 1.1550410986244946 -0.33072254229810144 0.1411381369356279
Ni 0.5491689596135133 5.025004366039787 6.27312838420015 0.004228693369366911 -0.2369217569958565 -0.004832388391636838
Ni 0.8854944757414447 7.032249890315237 2.3032064069882012 1.0059507967213257 -0.34010038396857556 -0.22557265053162442
Ni 1.7167629559175244 4.558651210901122 1.5935686815709666 -1.003686426167181 1.707882014357033 1.4260988780721118
Ni 0.42442038998359494 1.6300544950060096 11.168738820938204 0.17963912122430353 0.2692569787934524 0.6172275095387241
Ni 4.0832028916711005 0.3176831970319556 9.44748086150981 -0.5205545448950067 -0.0994322725564094 0.10314417419035785
Ni 2.472030547674226 5.718718174853665 8.505334398158348 -0.6410143275456768 -0.8973743957718029 -1.2482297042640373
Ni 7.751146050010864 3.324974298217314 10.586899220169753 1.8876715451162716 1.1653177979601543 -1.443644600265359
Ni 0.503247605256514 8.12553289075721 11.766078020309804 -0.2686455704616986 -0.03863031077768831 0.7937208860451943
Ni 6.86811261867061 4.196117601247468 6.6249701026790655 -0.12931466193813856 -0.5319532736502516 -0.05048823855753886
Ni 2.6073695411310074 8.377402521096455 7.65156322751486 -1.0565652764440836 2.010593673264505 0.6978002261864692
Ni 4.9482304809156865 8.305416049931193 2.144140657876463 0.9593243551120382 0.5680592753441894 0.3093322495477834
Ni 6.052997740276259 3.4424642627524165 9.004819409669564 0.16918090200545702 0.38565441844929066 -0.11491185624924727
Ni 1.6585022496284683 6.462732115300575 12.964872303654998 0.5404122030508821 -0.04088568247076829 0.7830394950719481
Ni 2.943512416032763 6.617617409679856 6.24832699708815 -1.1213113104722174 -0.42391449037175377 -1.4652076711481155
P 1.8969874143525427 5.698194097669822 3.758203898857345 0.6936653780824893 0.1700270520558362 0.5798531826553239
Ni 6.839913920265664 6.144299904755213 8.080683400565945 -0.7726486387559275 0.8024544092634504 0.24502921659433927
P 1.3136885286355606 1.312286434374013 7.055710063574413 -1.3881823055319962 -0.15795880803739248 0.14512823193162747
Ni 8.296330110144188 6.833217075305901 0.6500265809710037 2.5221480715434303 -0.8255855959642749 -1.0018059213150166
P 7.311663293450417 8.6504234813155 1.1657251522422372 -2.7861237473332854 -0.2370199731366176 -0.6448969504295345
P 6.8719591535855145 5.434803311194568 4.7796397151297745 -0.060148644465438356 -1.2896342353527532 -2.4388420151249224
P 4.104870782594627 4.792413531796824 1.5234058553761523 0.5511535007277863 1.0969385380548078 0.5285851285089671
Ni 4.93704139973636 5.80860902076672 9.760157106139342 -1.1079996809649757 -0.33681477123876835 0.9525790659684046
