# total energy = -381175.1050305352 ev
CRYSTAL
PRIMVEC
9.15514086876527 0.00000000000000 0.00000000000000

0.00000000000000 9.15514086876527 0.00000000000000

0.00000000000000 0.00000000000000 13.39947407726840

PRIMCOORD
 96 1
Ni 7.213234801592788 8.137977272726774 7.6595680613466515 -0.4262459667184078 0.21913383688481614 0.1761902434437546
Ni 5.861533179858805 0.051405200589757366 0.7326273326175903 0.5934535470475779 -0.2380877522794996 0.8207295534235542
Ni 5.9208951133970675 0.9209339325232637 11.64675551384755 -0.3126859965113647 -1.1998947646040754 -1.724525793561301
Ni 7.007134269851061 5.349660097493327 7.370541178926915 2.8353146072356394 -0.3640054727209473 0.8015228985881163
Ni 8.89808284521508 6.927145803885023 8.750312462633184 0.02549505894731093 0.31898879880094094 -1.248580402735237
Ni 5.08349268636472 4.43882428537301 5.384806683374478 1.1664637386391394 -0.47580835102756774 -1.4600348686979243
Ni 0.039429360790034916 6.485868012931256 4.265280350154327 0.6369954361942707 0.9450143662472693 0.25413092178529134
Ni 8.203354133830524 3.154943947360718 6.875189463813618 -1.9627706402439553 0.6867802209268817 -0.10875869216365786
Ni 5.242251984558274 9.44929556798986 5.403847545399907 -0.1570704918951682 -0.2608692689503894 0.5272422413278275
Ni 6.009443636096338 6.857511802266883 1.1986917520200755 0.3298283126186062 -0.4633220456350988 0.33489518561855225
Ni 3.5111063934493987 1.4421727240203956 2.2058076033222456 0.245278613600984 -0.9929710966322061 -0.38034997551724176
Ni 5.462451433272381 2.4860693538527885 9.575237348144974 0.6052927057743511 -1.0437552691636087 -1.5126794914768336
Ni 8.233849908138968 6.898325420359662 13.268266461756642 -0.09489993190369464 -1.058289715334358 0.4816905208399575
Ni 8.53003702624968 0.392994493407894 1.0527780320109046 0.13406914590398844 1.2278336571061887 -2.117424809388147
Ni 6.756970045000197 4.586652345342522 0.7412880959006248 0.5761765051346852 -0.3443051660785425 -0.6038156070081924
Ni 4.811667398165378 8.194043355544217 3.061029596585141 -0.4796704050861351 -0.49950106665881716 -0.4397784539872039
Ni 1.2770780683301617 7.958856941191287 10.419082247822429 0.3882638310476797 -0.8679789733288212 -0.6715186667821209
Ni 7.9700902990647355 1.239532835535527 5.4591738928333475 -1.5119696098940025 1.0445525682539236 -0.2971899577582946
Ni 8.127137585911642 8.759739511208808 10.274890609814884 -0.2549603596651222 0.6003644152347983 -0.257703212517582
Ni 2.2201308212464608 4.016717359445326 0.5363072378898872 -1.3427614541950357 0.2823837459833975 -1.018763889325594
Ni 0.43028521328575464 6.779299433633729 1.7289474417809079 0.3382160224616691 1.6894536324485163 -0.716754912912101
Ni 2.9149877046034938 8.301268365661448 1.2062850258752011 -1.1172358548512629 0.9809334487413814 -0.05183703927594943
Ni 2.550338442908711 6.772588715360511 2.940849146592834 -1.52937983495065 1.1639301735840082 0.04567076256423747
Ni 5.737389469374717 4.786325968178655 9.85357102600384 0.8429798801813224 -0.293671660192391 -0.2005974686435255
P 2.163103448635444 2.7755915293947377 12.16535579373985 -0.0654839406354227 0.4662487323635906 0.10200054750421787
Ni 6.518515245349122 7.725510710157478 12.168719392503263 -1.1144549496720162 1.724742023337165 -0.371131028022135
P 5.807664330855237 2.3884297762485995 5.932992716570642 1.7314130075994376 -0.20673906276488913 -0.20023879975252612
Ni 8.879204944697516 6.166994455692259 10.921147427751208 1.570626757415579 0.5555498300232691 0.492232558021862
P 8.974775460460304 7.1757444996435 6.526213803324495 0.10895872398960589 -0.44029036062661586 0.20213293145144545
P 3.780130208536047 7.7564642415104785 6.557313816931757 0.9119350671947971 0.2722039772369183 -0.508918246207659
P 5.730422407156547 3.3643494849641518 11.54766667744029 0.4768946421132109 0.0443669561511494 1.3102668240014403
Ni 1.147880720074154 4.980552282184551 2.6561379975891883 0.19370742639191155 -1.8531346876816668 0.9388401191157572
Ni 7.430953207125392 8.12727491302501 5.192859083936392 0.473579718807365 -0.21082274591595954 -0.9450444481542563
Ni 5.2526430694697375 3.9020583749244757 7.548955649099693 0.7241265227858239 -0.4130896318421079 1.7236156230422057
Ni 0.20020187446555365 2.3880086397676066 8.697183349013622 0.07947691248040506 0.05143800406531786 0.34678936595297694
Ni 7.120703792605864 1.298958855060027 8.35261588886359 0.7929058463430667 0.14260700817167052 -0.2324783765125222
Ni 6.386708681939135 0.6424940550300607 3.2146949743868545 0.008753577822913956 0.7238724977934888 0.9082180233545262
Ni 3.6005429648151113 5.566362282387013 6.825785577022668 -0.37335374670506666 -1.5906692778887508 -0.20938447080753617
Ni 5.857724641248084 2.313769602281214 1.7468896868993975 -0.42004472300370244 -0.4674725774683626 1.4036240940083633
Ni 2.7050969445328286 2.1265835916206184 8.816009753668126 -0.8802225665828647 -0.9314618243738151 0.40831560749223234
Ni 0.7097788474955298 4.795371247379118 6.104385193679903 -0.5994663289005612 0.2173271226933806 0.16130072792643188
Ni 0.5540910990709597 8.955311630925703 5.475708077282777 1.2585992204238194 -0.21412147127188932 0.05197099375065243
Ni 2.0336863769980487 1.450998279839471 4.180166836317419 -0.3576376215213905 1.0285240540361513 0.7229877811956903
Ni 7.615749726013396 4.503999733377157 11.661816636127591 -0.030419749942437936 -0.7859517836227368 -0.07170035385877974
Ni 3.578012163081974 5.809284790792973 1.0947131548628493 1.006175768247938 0.5533474230553116 0.16976017154769474
Ni 2.871418389102477 8.588712324221104 4.627843155240015 0.9632514580805863 -0.2952544312984786 -0.5420805918922407
Ni 0.8159729887484163 8.578037429942016 12.628347747859264 -1.5271591731502472 0.1769859998721726 0.6623819945881754
Ni 4.078743438982914 1.180125126292809 13.287052810865296 -0.654161406450596 -0.1494296875204588 0.08822843342078998
Ni 6.889737898203755 2.181505281826669 13.253057941708251 0.06425521043464417 0.639995399362859 -0.9775920430729744
Ni 6.9205083267389345 2.8944252581619554 3.621034001157699 -0.2536005032031181 1.122364948547712 1.8877610195062842
Ni 7.856804585677559 8.17838806462034 2.603316496703569 -0.6942238216891204 -2.8446677663157653 1.1500834975089032
Ni 4.882894394298579 0.4802091120793228 7.975232741703299 1.013741496410338 -0.5323844476503993 0.1240906945350379
Ni 4.297240031491267 2.3902424941450486 4.205344389282189 0.9611770920500607 -0.33254365466724023 -0.3178482574385945
Ni 0.04222900287455072 3.0828746782655307 4.271564438862017 0.44058758015206057 0.32081248227324105 -0.4615402711443277
Ni 8.376166573292004 2.980529358243287 1.6898751314856282 0.2627127499170314 0.0059207363598091575 0.16623878865799757
Ni 7.660289486448875 4.8455871951671154 5.149324557970763 -0.9094860914336724 0.1803127502525604 -0.40323330787331846
P 3.4606981877026883 3.6992262284808923 2.5301824847227397 0.4512687140149906 0.49729017505042744 0.15352545485638722
Ni 4.020187157843075 6.293051590622599 4.4270251397924865 0.8923401757820052 0.07724185250229924 0.9250795749965551
P 9.13955884136024 4.804352440593344 0.4331727447228255 -0.7101250663004093 0.39377216246041863 0.25564298755444365
Ni 1.0699887813721907 2.2957797504300905 6.278323715470996 0.9922840978675106 -0.9818176511185478 0.6425271646457774
P 6.329791171018812 6.69511791313954 3.8096445517409587 -0.6252971739207359 0.15146368723135206 0.01975687091195307
P 8.645034750983502 1.0511108808546248 3.1519987385360335 -0.6520024511260643 1.8871835497362595 1.524713539823232
P 4.376596792735815 7.629573988759043 13.378101602541943 1.754814417242513 -0.8660179929477086 -1.2105165059839798
Ni 0.8990137786875665 9.337602849117747 8.367047137450323 -0.551047057056909 -0.49112466966966384 0.16794394427456236
Ni 3.1025307657588446 5.389292702411146 12.154769704327405 3.1835946988015302 -1.603996076904644 -1.2678737037472099
Ni 2.4301772187122754 7.220183553529176 8.224878785579724 -0.20013004208880372 0.4223350616997758 0.44355360475892003
Ni 1.5855239200941318 1.3249411449091304 0.23625573480901899 0.7880544317880364 0.03562443407182897 0.7977834861503422
Ni 1.9045622698691704 6.788829935301423 5.759456105464673 -0.40329578568013763 0.3429841332742738 -0.16846433555440665
Ni 2.623158433556974 3.8597890894300035 5.047072620385609 -0.2073291309404042 0.657844511729138 -0.47515709059681394
Ni 5.253631824685982 6.432456920972246 8.113998127704654 -1.6727412047898416 1.4037680757853954 3.184840398283173
Ni -0.1660770023078551 2.832124524397632 12.575620544924822 2.7712044070192916 0.7589071208001188 2.46363464868857
Ni 5.3730331721884514 4.865343989210232 2.7415453914487027 -0.6324322423036205 -0.39990938570640805 0.18700198934727794
Ni 2.78305296922103 0.4359119628774597 6.961629557565655 -1.8364304875531081 -1.7857586722298535 -0.4128191517895406
Ni 3.029820636801276 8.578440256141226 11.967324603179591 0.7780471840636793 0.16035276219086578 0.21744950720385775
Ni 5.6749788739197 5.638001259860316 12.174172194418036 -1.8122713738084015 -0.4421775503469998 0.760595050025503
Ni 0.9383653207800267 3.746091394702725 10.505830869822496 0.21796115673295363 0.14683235910692777 0.6597669255628315
Ni 3.972928320562922 2.204658633140405 11.196252087417765 -2.064002170792633 -0.1386513659580322 -0.0908833545451338
Ni 8.023885906941175 2.171690970791349 10.769947529391485 -1.4341130066258398 -0.9544171476184079 -2.048100926181344
Ni 5.790635768797686 6.861210479186911 6.093356910962415 -0.8096429565920895 0.2580539109887814 -2.566737685228347
Ni 4.559873558235887 3.4761612206678523 0.48209873315925755 -0.6953111412160283 1.5368488896341854 -1.6377796011129921
Ni 6.8537490393606175 6.676066064945042 10.103217069880264 -1.1420143473475233 1.2322325575048325 -1.0165856507273525
Ni 3.5900511733538454 4.119492971089454 9.360591407895441 -1.0391123710749588 1.5631409905614948 0.34794739081682013
Ni 1.2452456434516088 5.14537228364805 8.492975184894098 -1.5622439326685225 1.0201731109682945 1.2175039930454064
Ni 1.555604919661831 2.7531339687887293 2.2707148056982813 -0.8678051667551183 -1.9137487018192973 0.988450583054033
Ni 1.0835658553137764 8.96050259581099 2.6163946154665867 1.0948214917118047 -0.43577344659286893 0.7829646759699548
Ni 7.7585333033518795 5.439691753016965 2.7952109963244864 0.08248716006163859 -0.6347953432191583 -0.9224683626259532
Ni 1.3482867541815808 1.2034615804243685 10.904880573415802 -0.1778792011104033 0.15994755633264712 -0.5854764423793724
Ni 3.1658477201620863 -0.1099642282718648 9.55043515595674 0.0707215348852782 1.4118441679253104 0.15665448740367213
P 2.3067750746403703 3.8663624805898547 7.457584596463678 1.4261541567900795 -2.6517689518680783 -2.0529055466588386
Ni 1.3419147761213355 6.3535121410677995 12.746035252986909 -1.458640816563875 0.21757651970002528 1.189137011866939
P 5.38520950957369 8.651672228129591 9.91003627296414 0.7769590932058231 0.291200315833763 -0.18625071300355017
Ni 4.011105258079047 7.0082420418988916 10.263715844843137 0.31754435304493056 -1.7187508387507369 0.7567545932334903
P 8.070741918022117 4.278819888018259 9.026019530570377 0.2279943725992396 -0.06793240217591526 0.2997165808348903
P 7.995385953347003 0.3470787152964743 12.341196753808124 -0.1608178747527424 0.39167748471491903 -0.2425876970323822
P 1.9192288055768039 5.789125170550645 10.45941522101842 0.3256646681592198 0.6906309621315396 -0.262655928537167
Ni 3.812218977359552 2.3001467526351727 6.756510456927462 -0.12857212734515922 1.3622190486990153 -1.4070912266213573
