# total energy = -340884.93175854126 ev
CRYSTAL
PRIMVEC
9.08076122263449 0.00000000000000 0.00000000000000
0.00000000000000 9.08076122263449 0.00000000000000
0.00000000000000 0.00000000000000 13.29061194673745
PRIMCOORD
 96 1
Ni 5.2869191348650695 2.9634338140470318 9.9522765020427 -0.12149105212866175 0.3589136600203367 -1.0455712393264252
Ni 4.626366394177663 0.8936331821324296 6.380330882415978 -0.39650344534865256 -1.89595795349478 0.39167259961891254
Ni 3.6369629626754105 2.6072681931506936 2.5437963956804186 0.7333223303524791 1.1523270421274414 1.1074816036779764
Ni 4.736661321295275 4.773656342954845 3.0043562649819493 0.6353288471251252 -0.04242037394773984 0.03471683465589505
Ni 4.795059697410321 4.8503706146730705 11.856953478003579 0.21710189405645192 1.2541157307311692 0.14123506752480838
Ni 5.79364377861749 5.700556894220765 5.4055447524270805 1.4090511785612054 -0.06673709631623345 -1.0091916722561265
Ni 3.4247183281027187 2.9869802281764537 7.724929201428362 0.6603215125147209 0.10339537096921549 -0.5738252312936892
Ni 5.623061677028134 7.717076159029934 -0.036544615897588645 -0.5412732654995969 1.7130026234130498 -0.6934746022279217
Ni 2.2255311483482805 5.150035738572392 11.802250063673824 -0.16278605422270676 2.459709859712867 0.680316724689725
Ni 7.590426780756484 7.473984178218274 9.691408022850878 0.7449470590756009 0.6295852597731286 0.12631238477670506
Ni 7.970520207758117 8.935414664429938 7.467555907272566 -0.6516921189744971 -0.20239518397389658 -0.19984979184422355
Ni 8.651214077076089 2.5324427197891666 1.7839328167805126 0.43572485274312056 0.5581960093968644 0.8406507178275135
Ni 1.49310418173169 1.572905912302212 3.1488783977056607 -1.2129109743580853 0.5279595791098263 -1.4325664880743263
Ni 1.3360524145244552 7.102344940015134 1.0442884610586134 0.7875854625714177 -1.3083873475905403 -2.4731562150257598
Ni 7.884062279132498 4.251884877678146 4.316205726332803 -0.5018345998880002 -0.9355815029691437 0.035948135959834863
Ni 7.6796452608265104 3.864717537600224 13.214589954133983 -1.0910545684702049 1.3790726299212444 -0.6608262200652812
Ni 4.512266628062665 0.6654336499024319 11.00162294716228 -0.6525156433170568 0.17617070305972887 0.9584206123508461
Ni 8.954311728758256 8.914892143823499 0.8124221174034477 0.5091768991856844 0.4166593514712373 0.7087762655819986
Ni 3.494876290140481 4.656396471896908 9.908629822708697 0.39504383008399063 -1.016808565371436 -1.3788977949062768
Ni 9.122986870468253 5.197273859012521 1.7449509245418762 1.2218874668250828 -0.484458827613714 0.20710904450979814
Ni 6.499128126367132 1.9381886175741534 7.593511515380381 -0.4117269471666264 0.9484213350462892 -0.1918318066357535
Ni 3.210203503197457 4.52947467078355 0.6289253570501645 0.12270821236521448 0.6152855553210048 1.1227621839861308
Ni 0.6643394181621329 0.36779262770363147 5.123637057309127 0.10554944119774079 0.2372302893752108 1.3442850899284138
Ni 6.6990320062919695 1.1372836297659028 1.1753138582171256 -1.1438863675592557 -1.0351590428541657 -0.9866857778441266
P 0.22928377513283343 5.734945737378544 12.84884503811033 -0.23681325644245022 0.7702911942673444 -0.6338036687298504
P 3.7220587771014872 6.522946963336463 12.988556183481256 -0.26325756667690786 -1.7630463182340024 -0.22052943168076214
P 2.0712308518241214 8.974298484446207 1.671227855605845 -0.9072795707006569 1.5925752366622121 1.571482677657971
P 6.5090533985011305 7.828351808371215 6.114013946425986 -1.0128961176909073 0.5154629893047123 0.9217847062953672
P 4.627583216195922 1.3965393657454666 13.312408823259917 -0.23660191176259251 -0.8671554489862613 0.7606922377249996
P 4.189036928511261 6.5992980046014775 8.661824038614391 -0.7022898865267065 -0.8070697965482745 -0.12172862206076455
P 4.787885895959397 1.4042943359215279 4.121631345232708 -0.8672549506786031 -1.199418082077973 -0.034378220369553694
P 0.23988828821433722 5.967676569512353 4.177771336004913 -0.11020905145693922 -1.453038125665117 -1.2676541315372363
Ni 2.8881270603349996 2.0114885230321935 5.278087186395236 -0.34695288811403474 0.11103848933677006 -0.08253961056612881
Ni 1.98791486661878 6.657106131230056 5.286540467117596 0.6474770524518849 1.0842192907159263 -0.301821542993035
Ni 6.563102089938972 0.908530171094758 9.80189273788029 0.22029443285182063 -1.4492169521468137 -0.3147097118096128
Ni 8.219269502878543 2.2330863417750755 10.700391391933486 1.2687188253563246 0.9921293174572009 0.5933874696963329
Ni 3.526540904899176 4.809625238584093 5.206863142977299 -0.6124401154524097 -1.099772922179809 0.24125997935989413
Ni 2.142305970756242 6.512095453546775 9.713270863829665 -1.9564518971147788 0.8654407802879999 0.1717617753587558
Ni 1.036977540111603 1.1785193669667156 12.403423706022512 0.31814213452992945 -0.8407070249867457 -1.8846268447526768
Ni 4.04624195659257 6.911721598169845 1.8258641402992248 -0.5559588925362297 1.381947380365878 0.63850570219121
Ni 5.5394823497442145 8.256809370217931 8.342835962680361 0.11939226061810405 -0.23714595719152062 -0.4769571199200302
Ni 6.886050285889136 0.9885498399372068 5.275708026926702 0.1371336437619251 -0.453413014051503 -0.24528478424857109
Ni 8.369755879643984 7.527179278091067 5.153580867795734 -0.7466190474613852 0.629374172203587 0.1546757664107465
Ni 4.8881193395230556 4.759181609394375 7.275719375713551 0.42651901787413643 -0.027787711636229562 1.4823075640531953
Ni 0.6634912750538845 7.509117643805136 7.124180538709931 1.137588450365686 -0.2598752804682363 1.5506377158881617
Ni 6.1926342699474395 2.1435046312518393 12.001741677034268 0.6131749367359052 -0.4162253492576122 0.8017717813741289
Ni 0.7812297022339276 7.886959041996858 3.1340722163566346 0.25974261154511397 -0.8466647852320772 0.9638754648178303
Ni 7.279083797786422 6.301939394080049 7.7045546972316075 0.07810008673753646 -0.6109884706075478 -1.4645019033303424
Ni 2.0373414505395075 5.687444274859836 2.876832409392394 0.727092033172051 -1.0258058837740398 0.4186313875959435
Ni 1.5857733511072223 1.4326535535559997 7.641676781552333 -0.7212754264902739 -0.6216153541937746 -0.5766485596750972
Ni 1.2548885697543908 3.593983719299184 4.395285536377568 -0.7762525540571018 0.8304079570535827 -0.9591896293063868
Ni 0.47218778418495744 7.544568936038558 11.345331579665736 -1.1740289525809071 -1.521546197838844 1.602702554904201
Ni 2.6540795178082996 5.490982003479176 7.632306343935614 -1.5893047934410565 -0.2384561913625119 -1.217711481070522
Ni 6.202332523048181 2.5090143555570377 3.0022159295364017 1.2539696920716084 1.0912294034851722 0.5633469574701847
Ni 4.346606299114322 7.200462566188835 6.26426422339684 -1.3230500918090373 1.3166472736064874 0.515594372676254
Ni 7.609396491175445 6.761553048050964 0.7630472938223031 0.8099496891992308 0.753455096546612 0.3536369850024297
P 0.17015167350230023 5.831655845546051 8.723772084333444 0.07489572086762585 0.6879338749153507 -0.24680687732005238
P 8.427981721293754 1.563352951382755 8.651417486129887 1.058353478692758 0.8204166501688258 -0.24733446768874823
P 1.7493814279949211 3.4066022092488053 10.736541902789341 -0.6625745702149557 -0.318692864827077 0.8678805000777441
P 3.7761801146299705 6.5651270997156255 3.9195208403046116 0.6033234978631222 0.10739343638501503 1.438362525930813
P 6.708566805688766 4.125716779755202 11.178043070210874 0.6173730339776529 -1.2912038938327182 -1.5122953686645373
P 6.023169102001709 8.110663597368365 11.033002426015203 1.2297673837937917 0.12730097394221948 -0.5815552529480953
P 2.4702849084833836 8.702075421287 6.277288759372865 -0.2903953034339644 0.5141504411408758 0.20581140874429715
P 7.270720416601231 4.41598331567768 2.049452461925705 -3.9886940018869956 -0.40019683503983977 0.864769208142272
Ni 2.474525624024625 2.028696565753078 0.5909868442883774 0.2909897424848537 -1.9648933430139128 1.5666670014368824
Ni 0.8041050481010421 3.6476873418064737 8.78631764414803 1.9741354304374714 -0.46619448208688735 -0.9020620310554593
Ni 0.6364533081929686 -0.13465951784289132 9.502894141862614 -0.22621491210131364 0.5506966156960258 -0.3967548992378264
Ni 3.0543594772471496 2.0678437278479262 9.855427458226838 -1.2876534574772984 -1.2524949072982945 -0.34933552941359836
Ni 5.343819185360619 3.3169660141575874 0.7360883295849605 0.2421315833315701 -0.2920654920475357 0.855197505293437
Ni 4.005487499742262 7.473248636550521 10.91605856545156 -0.5821463495648749 -1.7358245064035718 0.14482792708238926
Ni 7.000349828753402 6.106430602639068 11.626627231470028 0.6666423125264261 1.5176144668846057 1.438106186945633
Ni 7.651749162019882 4.0313041042042554 8.884601448254077 -1.5269519422354476 -0.40238021584440375 -0.9005224544824814
Ni 3.2196111719356297 8.58408000856131 13.263260110635896 0.11284880307263145 0.9475553875015681 -1.6750523694215218
Ni -0.11479262820449938 4.7078662271169485 10.801945178194567 0.27411045023101177 0.8941831425280149 0.7399604044942869
Ni 8.706370621396225 2.7026525101639804 6.679847989905616 -0.2854135339486569 0.2159958054764667 -0.8385100173354268
Ni 3.650502377818861 2.9296079780917292 12.194202964972805 -0.4455477523708133 -0.1904179570073624 -2.241328070502727
Ni 0.9358087781309264 3.6056343360859358 12.955369633123606 -0.1499307955265934 -0.651110278329098 0.28695542451448003
Ni 2.8172880411974663 8.497849098968947 8.49205012478343 1.3357626542796996 0.6102307665059168 -0.31244302726262324
Ni 5.639543258842597 8.141601751220637 4.043774713739133 -2.045754023215722 0.8735893775370633 1.423074746533807
Ni 2.764719513856461 8.99240552253879 3.958156755536564 2.104580606435627 -1.5412819857048745 0.8285575341084053
Ni 5.2633908822583075 3.0321116119879576 5.448831833612404 0.3373153650242707 1.1857061318085194 0.15228335491917
Ni 5.780413109359268 5.381204679757391 9.513433273462539 0.10590271077210146 1.2179413376931412 0.2515464488875668
Ni 8.230139174190892 0.2944355134492108 3.015081552189146 -2.0793791674693347 0.5611139543746078 0.4055958945682241
Ni 4.256634115853884 0.34694774006996815 2.05405095946336 1.2461638228739442 -0.12551225747291286 -0.09794823181171518
Ni 5.5550104516189975 5.604137370415826 0.7944785330148095 1.3125905870386103 -1.4066058023445067 0.3046366438443269
Ni 7.545676788920853 8.977794577558367 12.290054941194601 -0.012155404415611323 -0.6164785471878415 -1.1679665484369113
Ni 0.2661761841893719 5.185904745827007 6.27659771343563 -0.630573591828327 -0.23306895890866958 0.8348955605112911
Ni 6.885341986505375 6.300268533995276 3.4971192381890606 1.408395804365394 -0.553206526602073 -2.366420981050034
P 8.55581159854014 2.0175726331234825 4.274513226837077 0.21205764676432512 0.95398134563257 -0.10250216973098476
P 1.6970217581645124 3.569946944057926 1.8868814079819245 -0.2659263717583227 0.2623653938799417 1.2683246752416997
P 4.574587893072393 1.1311995196746136 8.587556123998542 0.2105682067029922 0.7868658107965739 0.37343010846895686
P 8.222801919036023 1.8044834877470748 13.020905487644255 0.1146010098770478 -0.24971993720178928 0.01699010680009332
P 6.293149217112335 8.175155164336031 2.084180925557237 1.4113137493431371 -0.1378257847329433 -1.4924780768282941
P 1.8041656611005148 3.608531098950296 6.427486367928002 0.3777439053529623 -0.366026359805718 1.4141699878450098
P 6.877523451000001 4.214690079269309 6.549905927573805 1.1921598578536632 -0.7276322219462372 0.49236934071004235
P 2.1443037382489045 8.789268891580372 11.187040288536918 0.9971527388137214 0.35038968170972556 -1.3008766410357917
