# total energy = -340897.25386201363 ev
CRYSTAL
PRIMVEC
9.02864734110943 0.00000000000000 0.00000000000000
0.00000000000000 9.02864734110943 0.00000000000000
0.00000000000000 0.00000000000000 13.21433801337958
PRIMCOORD
 96 1
Ni 6.167712832658513 2.1903859810171253 11.524646806083357 0.893821388313222 -0.8135662029058957 -0.3468186765290156
Ni 4.761762826269633 0.3057632709869906 5.9504167635107175 -0.8313777771660198 -0.6434635604171177 0.01689086221806768
Ni 2.718823686425739 1.4442675860802148 4.871293862562148 0.315393882360831 0.3869050030269401 -0.28519499017994754
Ni 3.391656550176371 4.326934137411387 4.708612081716164 -0.2843115591337297 0.07416347068729162 -0.2337454161504039
Ni 5.092148121661959 4.635325647665143 2.6723884498304264 0.08475847259431854 -0.23005614022427479 -0.5030995826433529
Ni 7.21755492712806 6.249295690832618 2.690796056209949 0.6327122354378845 -1.1870261361715233 -0.21276675701620773
Ni 5.083561877956383 4.311431949774718 11.559810679227525 0.32973266758100633 1.6151029854510828 -0.39475380964739754
Ni 5.746246541996114 7.685374293694162 12.268917939756166 -0.28547292643168254 0.5020192050949807 0.8090333480325484
Ni 1.9230748165681713 6.466958323066056 0.4004457937167415 -0.16757062009554366 0.6465925929644025 -0.773179828669049
Ni 2.603491744159689 1.4283952238989313 0.4192696207427699 0.3730819811009188 0.17140516335028544 0.14636030456651566
Ni 0.5911263131067399 -0.016649728724974364 4.647628082652751 0.15598162970636362 -0.4146266373119246 0.06348645058941971
Ni 8.54733926380061 2.4638546830130847 1.3519460546533113 0.696588208156239 0.27536823389751286 0.8328391922028946
Ni 6.974259964841914 0.5216255909229605 4.71162494136343 -0.8228532846347765 -0.11293699191106357 0.27552944206572544
Ni 0.6357359571917818 7.204851620194576 2.4922642250151474 0.1741027647871066 1.0360748698002156 0.0804287348707131
Ni 7.7642756435816676 3.8089425770788514 3.8532082296968246 -0.45559433797353793 0.04181102249851509 -0.997779830874759
Ni 7.647363688015433 3.8776054407811618 12.751558733942742 -0.02227809467191002 0.7117147793850324 -0.7235187139984959
Ni 8.00821163983532 8.805775267826242 6.89522860243142 -0.40200483478285604 0.49952394947695267 0.25809273464651683
Ni 6.871441727913327 0.8615993098855491 0.391728634623437 -0.6668109768938065 -0.5764534129451556 -0.5560679073102682
Ni 1.6976565761926847 6.556973937939433 9.297938576456845 0.4427149109077085 0.12604653270982807 -1.0058824053772353
Ni 0.19701592129136739 5.003098572063551 1.332031567017784 -0.9179326795391289 -1.0867870514431026 0.04374577762738272
Ni 6.133169227592761 2.01523022088237 6.757627501280196 1.8904930737254666 0.08536705271259491 1.7586075657363585
Ni 3.454396621164846 4.3749123698524235 0.6201994606948804 -0.6055672995919764 0.1808187433547015 -0.5942585594473766
Ni 5.802765874905576 5.530813985677795 4.826510868446457 0.6712458727367085 0.6030435047288583 -0.5627170371956696
Ni 5.241129832898226 3.021716750394851 9.239610805467228 -0.3158906194915915 -0.4678222474982975 -0.02716987554657256
P 0.14656745091358594 5.689682065849504 12.424147475013736 1.0578809099317135 -0.8376556397549314 -0.4030926685303961
P 3.9073006621772035 6.000493253614399 12.413231840271317 0.5318972236013355 0.6632520558979546 1.0079254039491932
P 2.1655933151753706 8.4791639470595 1.4377064679931053 0.7170127945591781 -0.4246182013069977 -0.5587652516367732
P 6.361034231421677 7.698745720537438 5.7015113997118005 0.037526021969916015 -0.5768719885398129 0.3109546156425548
P 4.609467601426692 1.0436303850379653 12.784144928245752 1.009332568709365 0.11112050752761507 -1.1793254250931562
P 4.123943057251093 6.248275453673071 8.115639001276731 -0.38753158086734546 -1.1860989963715638 -0.063730962500058
P 4.705622696552215 1.0808645270377453 3.8441037416287895 0.035068561568358955 -0.7229006207985227 -0.40118053910934776
P 0.24385744702101303 5.438667610011026 3.6248114385343047 -0.353211724539553 0.04019945503702108 0.28087656531025174
Ni 1.3185617279175241 1.1973069929376392 2.4729176393029437 0.0665990280764724 -0.4836083066879606 0.868989931091839
Ni 1.7694884951427936 6.433164095736964 4.80454868357389 1.1307351748892784 0.48259709181462696 0.11854662478835713
Ni 5.920336921734174 5.5361499163087045 9.159994386703296 0.47597701539494797 0.5210461398194446 0.3408056375657163
Ni 8.610774540641167 2.29617464295006 10.09435376049472 0.1655715873876439 0.6593087549794904 0.6200513521407645
Ni 2.5717831343868407 5.238204551131028 6.846216589859693 -0.9629784069248576 -0.3272456394930945 0.9043621399435456
Ni 0.49594540903887363 9.125434530072171 9.136512680468321 0.4559833458818405 0.5946938472125822 -0.24624483416899526
Ni 1.391386798084892 1.0767926070469835 11.357842544821008 0.30442375650257253 -0.04520616422299312 -0.15116312527179773
Ni 4.126525250415966 6.962829697196007 1.4570656938117106 -0.3892290231744264 -0.09958499608418978 0.20322642162594032
Ni 5.792310701182069 7.801446585049441 8.04491580023098 -0.502771766990289 0.6708522368427157 -0.2513299620013865
Ni 5.221086235604456 2.9224377432586777 4.857445723134586 -0.19003717662917594 0.013781112944492396 -1.031499077504075
Ni 0.8620922740352067 7.407021093438774 7.047523827274361 -0.32144137410649154 -0.8564822855431313 0.21283334858808506
Ni 5.1604137248773645 4.457055004167166 7.004378629802404 -0.6928081722885165 0.4633876087657116 0.36142999868428716
Ni 8.241204915404262 7.2446769840066585 9.012693809618424 -0.9373974731319598 -0.7071379586476273 0.41891960826032365
Ni 4.728871463683503 0.16117309386049286 10.572751993254114 -0.4426164376566313 0.937997568609804 -0.4111872726130725
Ni 8.327717415074945 6.956681188296431 5.027513840442747 -0.22180367040749543 0.6369452996826256 -1.1072653739021123
Ni 7.2261682567759244 6.04037278931106 6.9238105915993895 -0.1563600960917049 -0.370553044031478 0.7071608414657627
Ni 2.2711382036277055 5.311896371451639 2.558190505681538 0.12657772262294975 -0.6581021362658989 0.5583340776366256
Ni 2.1532240681967822 5.2836637909391975 11.324806723876003 0.2844609402274004 -0.2396522685531421 1.0333852387831943
Ni 1.1827708705759405 3.1998700214762428 3.8537499485426023 -0.3719604659019658 0.6490569953444951 0.11837796042097677
Ni 3.7506175146834635 2.588693791022531 2.557806788165779 -0.6786640195776505 0.17678828203906974 0.33873692796214566
Ni 0.967383457494769 3.183176052378863 8.131733468184784 0.586975395522402 0.9476376628027292 0.013077659119564574
Ni 3.530408803874872 2.7603193500123027 7.39923659362495 -0.2967978645261985 -0.019597205405637218 -0.9711740553617726
Ni 4.209958981313146 6.906852083132322 5.93663363034465 -0.4984952511021221 0.24102369497937204 -0.2280635352742782
Ni 0.7164258821350975 7.573256549913059 11.35297971531541 0.05848591205103476 -0.5175293849154378 0.6761787912619516
P 0.14102386139179524 5.4408525426889955 8.0637856733589 0.5671498761560426 0.6541171834762218 -0.53254976958367
P 8.352609396038424 1.71372756861742 7.91515066218393 0.16506148052044475 -1.161574014647006 0.1138301931492943
P 1.8926843893200485 3.168676044606883 10.367083919130936 -1.3257528354521813 -0.28287482668720315 0.2303163358641969
P 3.8929812273538156 6.233513615125631 3.6746170692150963 0.25750215225036943 0.17380863058545548 0.3887829367759433
P 6.956202669982661 3.957743715366527 10.31332825519968 -0.13854466517683883 0.1730776659567019 0.8248829134702955
P 6.424595909326247 7.835538757743711 10.204257679926076 0.49742927173145296 -0.6566661751503207 -0.24098692820416562
P 2.3858652265159703 8.32830427715787 5.875451903902529 0.2163745289721241 1.1222998996377316 -1.32331491543465
P 7.01497916474953 4.019499663785172 1.7037906392563729 -0.8970051853578422 0.6613160152175063 -0.29908383234689784
Ni 5.273957994952348 3.016570421359964 0.5850103073379109 0.9352578010811375 -0.8093444515150642 -0.1336045475627441
Ni 1.638031388567431 1.0693078583278233 7.049175166889239 -0.7395395149067844 -0.09641431166569202 -0.06483319442530125
Ni 6.780089873220364 0.8595525155132528 9.25789923370068 -0.6412359566381796 -0.08332431125095327 -0.6779942472041356
Ni 2.9098427800943485 1.4558423120849961 9.367789610160893 -0.19876427208952865 -0.44575883994035487 -0.3021791834427699
Ni 6.401419371374396 1.8588630760486673 2.61555401712567 0.3839590330247387 1.054172350731875 0.3898494303672447
Ni 4.092568507433141 6.786175181587933 10.33737876622272 -0.19323460052055108 0.21123412242176523 -0.17754058682406199
Ni 8.15013294878162 7.183282181485199 0.3725165757579347 -0.48654990581478785 0.4406670272397443 0.014293019583904415
Ni 7.571297333420831 3.826069921252853 8.15598170658653 -0.03285612729807244 -0.14715503255366913 -0.37509618331747013
Ni 3.3047197040764966 8.263325101606847 12.425204729627746 -0.7930349157217633 -0.15041596269312807 0.16942927057083723
Ni 9.1271499730838 4.850713060746314 10.225704329030412 -0.5230042919870799 -1.036215252032822 -0.41995936237874765
Ni 8.585729072671382 2.155264542515878 5.7210286268604245 0.5373397347731456 0.9814337854165679 0.9995783175360785
Ni 3.602114321760966 2.584107238128281 11.622855918499122 -0.525995770515236 -0.06125113350099774 -0.07986643460933988
Ni 1.1815790891152296 3.209178556976188 12.54850716184467 0.025304025982427387 1.082765331878219 0.3987433904227649
Ni 3.1590153918571824 8.240094391770418 7.899108561430968 0.5523251524383842 0.3045389419241981 1.1136378530873594
Ni 5.598754557585735 7.84499175160253 3.4806302591363685 -0.8644732741684079 0.2551233676055477 0.9114936087820042
Ni 3.0626074946036304 8.39408700233013 3.520946781368623 -0.06696309628411047 -0.23675412106974061 0.20822516039211236
Ni 3.113113748324961 4.4561431107767735 9.233862265648785 1.1963736388246944 0.21194169001175114 -0.6858623370983026
Ni 7.345788806571047 6.065084197325947 11.338483319002401 -0.7578707091158045 -0.0749466287102193 -0.3007293383701208
Ni 0.36920847933971945 0.22803113094162059 0.2638649297250655 0.225853672107153 -0.5666644518791918 0.27694329169411663
Ni 4.7634150687492545 0.38885571901132987 1.6095595488981034 -1.0054026375273395 -0.175931076245097 0.36535298788777726
Ni 5.970752888981209 5.642164294427379 0.36443954776739074 -0.004855785430404541 -0.3243312940597769 0.3322477206933762
Ni 7.982642510314617 9.06115056037323 11.290793100414373 -0.6941451459323852 0.1404825056295 0.22411354948759468
Ni 0.042338939256490855 4.769383004700238 5.8349232084556775 0.5072251747759522 -0.8212592006747792 0.5565127081571707
Ni 7.940930159189742 -0.19461159248085783 2.3521260739361987 0.047754898786775815 0.19629421328248128 0.5245569811861804
P 8.445830180749319 1.6299056058807668 3.6377621304073604 0.6823702647846442 -0.2321364197920712 -1.4177502489971001
P 1.7943804761062743 3.259043776730015 1.6864935565106944 0.1024098671274946 -0.24795256088872136 -1.0694156500441905
P 4.736843759363863 1.0289046610802444 8.148780457396661 0.13763372332679522 -0.10094690942872292 0.5507092141015161
P 8.464727139819527 1.885705244856947 12.399938059795936 -0.4775531016328163 -0.9888910130255615 -0.4080839510974004
P 6.2058317821063955 7.769927576872615 1.3560820780408231 1.0768654214540165 -0.3546975650564601 -0.5289833923886503
P 1.8154894537967412 3.2309014826918694 5.98144371040263 0.6338075253845923 -0.4216048684019707 0.40795591015996835
P 6.907150028497499 3.9321565285509656 5.852392738367262 0.3818211607461295 0.20552653051402667 0.7672773471416849
P 2.3773873265795507 8.441090140848765 10.221013043825977 0.713597598230042 0.4482486962417442 0.1108896224637316
