# total energy = -340868.4939567971 ev
CRYSTAL
PRIMVEC
9.29790782235311 0.00000000000000 0.00000000000000

0.00000000000000 9.29790782235311 0.00000000000000

0.00000000000000 0.00000000000000 13.60842794494090

PRIMCOORD
 96 1
Ni 2.6484160036889945 4.356162694454188 6.34797812873541 -0.18646591433814982 -0.12680526525272354 -0.9479832190676061
Ni 2.1754686351886283 1.4994735602967428 4.0747308375364115 -1.4606570756629553 -2.158951982097656 0.2243395494554717
Ni 5.993821757653705 7.28009429644859 13.056306894602443 -0.18253032672916952 1.2930476319096762 0.8737428723957921
Ni 0.46326824667814975 7.216636077008984 11.101551060473952 -0.3452071090675216 0.3312779005809391 1.206771951339883
Ni 0.606709856752968 8.566878220162039 7.230511344535684 -0.6655801898104988 0.7382398222587544 -0.36598599348608585
Ni 2.2089689963081742 6.867081240403565 7.266410565818662 0.7410160994523108 -0.6592578471368968 -0.12439614159059866
Ni 8.288749909818165 2.568407508703235 3.987623390090265 0.3651490994070873 0.49880352637116027 0.8526899083802346
Ni 8.944689397994852 3.7412641704689182 13.30792594055888 -0.9919315996240983 -1.2600470086139397 1.9494631245017715
Ni 4.718241812610546 2.048598685847467 0.5590032225957995 -0.2618056647217297 -0.17897937615311757 -0.8440576866265336
Ni 5.765167613703698 1.3242544913825485 9.833028227306935 -0.8736546835573599 0.0007813582507147834 0.5546476299239738
Ni 6.785771038352378 5.338905039314138 12.234779110214205 0.7350105166881793 -1.0374902620905035 0.43800027904085853
Ni 0.2320013906896777 6.093513923050254 3.7545108994411684 0.692849052828781 -0.12426218711589569 -1.738742965601947
Ni 0.9741882698585677 5.640622141265087 9.482474795424178 0.8272910086911558 -0.9614802251127763 -0.40696063612623457
Ni 5.2883988051755395 1.6042330853408513 7.001576403775849 0.20236715894943857 -1.3191088477731023 1.505812332043355
Ni 6.07320729282958 3.166318755484672 3.2130314433183105 -1.4400802799528682 -2.21255794034857 0.6329557189072583
Ni 1.7476533102281662 5.333428571731732 13.159880006635492 -2.7471393956502883 -0.5908850149894533 -0.11575106432109096
Ni 7.262670017587078 1.384653699218399 1.5532656749847862 -2.0072918625847818 2.042878244329824 -1.666949023588097
Ni 7.586971737123199 0.41274341672433007 3.456499943463646 0.45359144861089623 -1.839951099111857 1.859116616296714
Ni 3.9851296912692096 8.890417511274123 12.963510987280378 0.4537346590569798 1.2457323917634802 0.8155636929518986
Ni 2.462550830561123 3.205007349050709 0.8915252222500963 -1.3624170236424344 -0.8069093597110103 -1.2147433995811339
Ni 9.210200447711685 4.546342096713192 7.701376911522128 0.5619876152288128 -0.06192681941178368 0.12264290634491781
Ni 8.873830044097527 1.1618572370628182 12.879968357611983 0.04912812498521861 0.18923242133969345 0.5974001904001518
Ni 6.897429610843253 7.863035911977608 1.7405999175150695 -0.4845549868719461 0.10081604027781348 0.5033075848891009
Ni 1.2284209576442306 8.431491387449935 3.51625480630211 -0.07231793283812062 -0.5838119101927559 -1.5268501265502605
P 6.294757835365395 1.8129153237441507 5.194364416559795 0.3425367613242101 1.4079756861088397 -2.386849681218031
P 5.867863003258342 0.22498333002549972 0.25471710877215414 0.6632746816057737 -0.6257463456430127 0.36826579065919807
P 1.2341298729168924 9.201730053878794 9.142984943806798 0.5948314012317111 0.42756802796394106 0.8096187882223735
P 7.673516661158928 2.0618482041920005 10.701803329216396 0.2021964376995292 -0.773563951481345 1.6042894397753469
P 4.464548403466274 3.7948666078417137 12.40062495846656 1.0138916488349572 -0.9420282870357518 2.228366625246053
P 8.751227834349448 8.167923600423634 13.1639896817992 -0.9524250568890434 -0.0744699461841169 -0.765473975384359
P 0.4803977818684188 2.0725129042208983 1.552313569245502 0.2763354829067886 0.1108050331697253 0.3632835069532582
P 3.9193283991118335 4.5682572649504305 4.239079722663522 -0.6063869672797944 -0.46299705819551235 0.21393815161648957
Ni 8.53555356942328 4.727084122747845 5.379806534891403 0.6204375318355895 1.093329994767943 -1.4208260597089466
Ni 8.934675551498668 0.05991478684935934 1.4130039493126558 2.503570565651559 -1.8898790942905515 0.5451774856500095
Ni 5.825985227382008 3.8917972946780353 10.723808687157453 -0.6821797460403929 -0.7401393532743125 -1.0527402462710387
Ni 2.6445480741231524 6.5392742096984 4.331235933942007 -0.07437147293303965 -0.6395783664300985 0.5780554673249529
Ni 7.1054981873442795 5.043027023342396 2.9061884049018603 0.6680353362192107 2.636350560430479 0.15251501131400186
Ni 7.190062657059037 5.882033014456286 7.778550474477538 1.0268687778209156 0.07285632184009387 -2.0288479914890027
Ni 3.510973594779517 2.1060876486013256 10.973427753186936 0.5679019238307187 0.5500630958770849 1.6203025273741516
Ni 2.749521451042295 7.119203303161712 9.649953356252881 0.2838631587424015 0.9620898336723174 0.3123029021403331
Ni 6.79292112930462 8.33711762520642 6.801600726058741 -1.4363853475997843 -2.7898243361133246 1.7024315327654227
Ni 3.1065611032739255 7.703511711109429 1.4693288140337175 1.008752784946495 -0.8552288727520045 1.7821416443025566
Ni -0.03906329924272776 1.6804666298368705 8.001986632676699 3.130707106773879 1.6439911292403429 -0.4272255570228578
Ni 4.742416372397062 7.2039816247515045 3.5739269378358896 1.0149062061424003 -0.12292649902360764 -0.9081653157397198
Ni 3.8543267270089343 5.92575177603944 13.223580901463723 2.7068574082017895 0.36888079853537764 1.9491574203358946
Ni 6.6062563361222715 0.20170787790488934 11.833616237418378 0.3796159255646946 -0.2841953452708396 0.0848605453898216
Ni 2.6128794008028153 5.228315726198436 2.145096090189153 0.21664655168658817 -0.2750501884364618 0.6453962586634562
Ni 9.013289360342897 0.30917867280813194 10.743921920899833 -0.184176861193657 -0.0913122145524363 -1.1026710696632107
Ni 5.222374363235518 6.831349381457572 8.356553971274778 -1.55510937850627 1.2875156463478536 0.7942577323852708
Ni 6.740480930383099 2.5718384366113987 12.62289143988836 -0.21207667292771865 0.06548059820131304 0.8109611611828806
Ni 9.118337120522922 4.066802511717195 1.993512302420084 0.102788590623152 0.5269766463712666 0.6125936103111385
Ni 2.83490413662675 0.8162214685150971 1.7236981810612504 -1.276769206464627 0.5219755936122494 -0.5288895471232633
Ni 5.141185033983263 0.4108801160392462 2.48604199413829 0.5235213408328145 0.4442521734878414 -0.33689164722329074
Ni 3.6300890891737727 2.7955460937127787 2.8435493311227127 0.5621652784572576 1.1364702776008426 0.38239657363362534
Ni 1.1160092546369282 2.720577064651747 11.833085326893837 2.1950654399907616 -0.6933105658462319 1.2942061709941517
Ni 7.893114643096601 0.7250508354432939 6.211784237642743 1.922482996368502 1.984338853333034 -1.7412647035825364
P 5.3827167799733955 9.040383463119017 8.391038051019482 -0.03853980794641104 -0.155338596805726 0.23643504716742506
P 5.736083758698996 4.649567467001618 8.689933238010736 -0.9132908098917433 -0.5187468022623065 0.822554265337119
P 2.2803862246621103 1.055107959790127 13.242646261018436 -0.16365765819438266 1.3008794692492693 -0.9367886359033673
P 3.3968882684023796 8.953336452072337 3.4820701191824535 -0.3624224445045436 -0.4412486107748272 1.2042885227963969
P 6.9333009384034 3.4897371737978236 1.114775422297055 0.3199725028704489 1.2225811504579975 0.129873362655086
P 5.065816194894993 6.411418682150558 1.5438217902251075 0.17425008899824831 -0.04650328576786184 -1.1879188231891218
P 6.467382788056344 5.17471328882564 5.538085745930576 -0.06737807233434202 0.6712479296192375 -0.5892528787026691
P 3.2101955814972 7.305412498871162 11.781850136798598 -0.7549350235262482 -0.526967390399886 -1.5216415857661278
Ni 3.5345716842942014 5.1033053583793135 8.424759702340152 -0.16217284611874005 -0.7841119022005205 1.1365720932860297
Ni 2.3601901656804456 1.9961677848335566 6.8436235492937945 -0.68309377321423 -0.6277176104367707 0.15209335039555097
Ni 3.9857898427095337 2.502745685160012 8.796337562911088 -0.44165047419893616 0.9508937078461817 -1.355362687898814
Ni 1.2452129787882493 3.5559196801672175 3.8768908891973646 0.3259500606101225 1.3346835622829079 0.6874919022819257
Ni 4.845121059859316 6.787965344548384 6.012638863075224 -0.0007343070628632515 -0.5318483726412712 -0.28065416488680056
Ni 2.5686585522087104 8.837847141646058 5.735680229508715 0.3375609053761735 0.08697630618124375 -1.6184770441296386
Ni 1.6972586509808893 8.147868013708434 13.332080974739416 -1.333364586361168 -0.41376094687751974 -0.6279263840134669
Ni 5.196024093068215 6.51540648086302 10.847535943726367 -0.17295399589464408 -0.18428253353358584 -0.10009278895854375
Ni 3.9227500291123865 2.295197791485157 5.184688084109861 1.924946627417646 1.0742701499230143 -0.17870658210770513
Ni 7.241535873589098 2.9189200297925058 8.862433598739708 -0.2749859108574296 2.074394312660234 -0.6890417632675488
Ni 0.15308261047583327 3.226996900548829 9.946372510447539 -0.9759923026860223 0.6878492856213444 -1.2989948506320468
Ni 7.17993723567153 7.872119967712773 10.081381848110668 -0.16825221954360053 -0.2916867685518783 -0.3767072365583319
Ni 7.36570013181569 3.252101251096365 6.596916587927827 -0.5094504645620451 -1.4429244342698826 -0.23975794089307093
Ni 3.2217435827490664 9.077807541250067 7.88871022426165 0.3457809792931206 0.31908495805917303 1.491266058798064
Ni 7.9439091123711165 5.31323351640238 10.003555572041023 -0.5427863597100135 0.15186477932451264 0.04032029688560152
Ni 4.25746540517193 8.87868355187005 10.54393229632131 2.0192582909180388 -0.034571053106650144 -1.3237556025164943
Ni 3.1956164623644083 4.952325934604908 11.260252396518627 -1.0411854515539036 -0.14891238156440806 -2.6768192099684867
Ni 8.66474799566699 7.695720064532082 5.29008544561603 -0.15296932524260107 -0.7853555447996347 0.12213202814677031
Ni 7.954796962182658 6.129459633871282 0.550793170175994 1.4117356673719041 -0.20298602348036007 0.12362198242873547
Ni 5.071190385493688 4.042823207990493 6.63813700173612 -1.0013387518706112 0.038495070751404674 0.7506885895450685
Ni 5.663625164692718 9.079174333668766 4.854643047042922 -1.6357551144837958 0.2655515049174072 0.5574419048396593
Ni 4.791351260149538 4.2676373160974865 1.248317550139295 0.6665456390475617 0.5077116274940676 -0.21176839765868044
Ni 7.595228279081055 0.6018154381869594 8.544023963256171 -2.1793557425649888 -2.709843230302991 1.1406465204657195
Ni 2.1596064048056296 0.16238609683059807 11.19154364865154 -1.3319023999933448 -0.4666971327549188 -0.10167298896147006
P 1.1420062043150438 5.77277330212884 5.796563858331056 -0.9343975099633713 0.702050516822391 -0.6287234259934656
P 1.1512204307567508 6.495667023006568 1.263769742796684 -1.1606355619931368 0.40480939411118677 1.2380589343786226
P 0.4622733705638585 0.2239735772590322 5.105881808578101 0.2193153567680029 1.2664233444539286 0.3693389691187188
P 2.2790752196890725 3.5099043354043444 9.759121019294986 0.0366616170870917 0.4471557202878815 -0.45505286364777114
P 8.659401698791125 7.328220266238979 8.546718496881606 0.17351578193538503 -0.7250883724784608 0.8915593317519226
P 0.37738533366426646 3.006357552958814 6.261958536479658 0.6154156531409659 -0.6205208355780152 -0.9513629341731163
P 6.928698474136351 7.612085385578345 4.005586017802408 0.52987068008961 -0.41492874193337564 -0.6887877382752138
P 9.038737733472013 5.0698049972597685 11.87591148934641 0.3545579541548023 2.06806477089778 -2.3938225129914388
