# total energy = -340891.8498689365 ev
CRYSTAL
PRIMVEC
9.05897372438499 0.00000000000000 0.00000000000000

0.00000000000000 9.05897372438499 0.00000000000000

0.00000000000000 0.00000000000000 13.25872374073385

PRIMCOORD
 96 1
Ni 6.498400298638313 1.9620830740649848 11.326026028703126 -0.44758869406024204 0.02026029291093285 1.1982685418545622
Ni 4.298501051802869 0.658499502648811 5.811988286788667 0.4697839992103587 0.3680701297086242 0.842357416105975
Ni 2.470273370426301 1.5365015572059475 4.440280328626678 0.5450607575664872 -0.20716020946270775 1.152798325336905
Ni 3.3196608453350276 3.883255823726823 4.562631730845752 0.3770381375351894 0.39458977326570754 0.9852359327714773
Ni 5.279968360590664 4.381861726107066 2.977511568670972 -0.3446388952688774 -0.09151507459186176 -0.9085293839473578
Ni 7.31769386352329 6.350983622594824 2.63221429870973 0.7152793568078392 -1.128741027277385 -0.48786759618494685
Ni 5.304735594186369 4.530736896886806 11.78447259558479 -1.1464695549053998 -0.8768593065375867 -1.2213683610968191
Ni 5.540921151723754 8.016475903710514 12.521578623236032 -0.6931056489242773 0.5371245334385459 -0.37149972421546346
Ni 1.903326571833185 6.32136983816748 0.47904939035156413 -0.9453264981710494 0.21504449730679095 -0.73931865714523
Ni 2.676609610224898 1.5928393135086858 0.09905625181989464 -0.6999049312342979 0.09241547491894406 1.1392714944950637
Ni 0.423287784764512 0.06115984790588176 4.891659990267664 0.8140904508404819 1.0541232426614942 -0.19427281197707832
Ni 8.641816845594747 2.4914804274297926 1.3718664901985378 -0.06841217002581121 -1.475967994988413 0.5670853414666943
Ni 6.772742252629652 0.7222067339076964 4.829463795791428 0.337657835965354 -0.4498620634754511 0.6540855589073381
Ni 0.7783578753559831 7.532119766672643 2.8591243732629743 0.4167591102738952 -0.3294827563537293 -0.8859553553015838
Ni 7.802294592846123 3.8001397417075875 3.9589353943858856 -0.5068343670954367 0.09202158191463507 -1.5510760889771609
Ni 7.536332189358086 3.8756644039195076 12.8844167836184 0.801378145480136 -0.13472323454821958 -1.5030154860245084
Ni 8.034838443029642 9.060966491256657 6.890200903252149 0.3173965146131566 -0.5172352507137866 0.8115656275360991
Ni 6.522270693855828 1.0094685959290985 0.3677318178762978 1.6385540173851718 -0.6975981374779922 0.43786195369078135
Ni 2.1506727847436165 6.314421605479877 9.381422244039353 -2.80551192205191 0.09476700587025615 -2.1854073480757075
Ni 0.06498635831949758 4.800957017927871 1.5581651864746993 0.4652871397812697 0.5723260210403434 0.5341232847183768
Ni 6.345720358981398 1.9933637096194718 7.1279826519232445 0.47323750497659783 0.30323153596668423 -0.4923821962258487
Ni 3.411899313685966 4.429629693462644 0.3241373196200397 0.1698164787069269 -0.3663994268744206 0.49782162207386516
Ni 6.337286454636995 5.639528078457201 4.697512599336302 -0.5037284744766034 1.1400366547958622 0.9982135759780678
Ni 5.152390836549586 2.6668349777999656 9.523595586211155 0.2709407942537785 1.2306646987970806 -0.6579977494775506
P -0.057836110522464054 5.572265200092861 12.74823595242815 0.6590303045071231 0.6396737543573822 -0.840995502761442
P 4.188090282576662 6.265774917693142 12.529639297871531 -1.4381097864900587 -0.6823823489695022 1.0090070670491462
P 2.309540003312699 8.285618006903047 1.2430053096100886 -0.579183667392125 1.1318669745008765 0.7498185282352893
P 6.532308036512756 7.764382788677132 5.8837706870406805 0.2701049286160445 0.11357102595063667 -0.2571882205543764
P 4.669982378817887 1.2842453806492569 12.671308961115784 0.31978686922220406 -0.5833830501854533 -0.3593070388040135
P 4.141056092075968 6.003363631823802 8.371253389457383 -0.6399429488583689 0.9443687622434704 -1.9269346043819524
P 4.628166157063033 0.855060204125124 3.6372394681286995 0.13580001255216612 1.015498845421077 0.29306745094948883
P 0.229519058926164 5.605267040615594 3.6435236780575 0.7468774433290943 -0.25915717135528915 -0.08583113683320702
Ni 1.3011584842056507 0.9801899935218866 2.4295813672849165 -0.032998309302891556 0.20370104726951369 -0.3034945598200838
Ni 2.269780168546222 6.57493050691063 5.035225696669042 -0.0800834357161524 -2.382926692014541 -2.0562520945335683
Ni 6.0340735520467135 5.699878960028008 9.123804966955253 0.6649078463338226 -0.6779477102369164 1.232587112630774
Ni 8.605282005400351 2.5286856316644517 10.181479984558157 0.3253774759361041 -0.5019837238713548 0.2284926523918968
Ni 2.666753447038312 5.022403625552964 7.059103652683456 -0.926137069726792 1.013231903763771 -1.22028644088655
Ni 0.5399537752042641 8.991891818188899 8.992570335305327 -0.1774436562348815 0.009274997544022737 0.03525933742292637
Ni 1.0797118765805593 0.9070025464773739 11.27284532467109 1.2716061742064488 0.624559267313447 -0.30105638269223634
Ni 3.9603567473307155 6.763891635503462 1.7662344079071144 0.7396459585776616 -0.5890163372118308 0.2563107030454295
Ni 5.696626788535375 8.018314875334482 7.88935132834529 0.3431576827376606 -0.09312407095019445 0.7662656180477191
Ni 5.541419395267194 2.797791498962916 4.8826970418698625 -1.641236192203025 -0.3174469082351178 -0.5763120022712849
Ni 1.035196080717614 7.159170885947858 6.883875927942522 -1.3763364619370038 0.41313539747837885 1.5906803336323443
Ni 5.188364020385922 4.785420878346075 6.733535921145069 -0.06999365558031816 0.6474549409646978 0.2581176743471813
Ni 7.914915751610498 7.328682398399512 9.125833271125728 0.11740659764664296 0.5342670093850928 0.10079521434220705
Ni 4.408322987750465 0.32494447416041183 10.426646608440377 1.1416975874380533 -0.4274991223992186 0.5400622759106312
Ni 8.310258414869514 7.235139437862115 4.797934038465221 -0.32101971318804073 -0.8987591919344715 0.29675235600024374
Ni 7.31055539239183 6.057635942164645 7.105707541942089 0.7510747692398936 0.39848987965106214 -1.211380910866804
Ni 2.4352513788092587 5.103019430881484 2.6957901748526183 -0.7461984149841988 0.29602113426117405 -0.03040715153694763
Ni 2.529265405969545 5.195366606914628 11.402329762637514 -0.3663793722697626 -0.9693843104512014 0.5360582969575607
Ni 0.9809690652443557 3.2469716418339547 3.818724225877883 0.38266165436955385 0.339837360115176 -0.8342818381866923
Ni 3.7943057627625865 2.5426364508807593 2.4623965929531977 -0.605208373590661 -0.2818741533368307 -0.4662417903850551
Ni 1.1183121627368495 3.2807797309997078 8.182077563192196 -0.18173842695549344 0.5898329195758552 0.3657245122945831
Ni 3.9355261009203915 2.93600425791305 7.098454927744313 -0.8343993376011629 -1.8653497416906197 -0.1738248285353716
Ni 4.466789602829718 7.328528395849722 5.82662577619757 -0.435355899439476 -1.421644956065816 -0.24361793806910945
Ni 0.4130402739219879 7.1064386011049185 11.207678692778604 1.4285334556555334 0.5781331146404237 0.1506347635721535
P 0.11194988882675873 5.676633633983173 8.401469595623613 0.6832421258666362 0.20569905153614895 -0.464464129659342
P 8.475847391788271 1.8758235282353215 8.094291580324905 -0.03909953710462299 -1.9161498550616223 0.16349027937858293
P 1.7739010171946217 3.0965926814503786 10.475571406714087 -0.49248246924913897 0.20552987294813635 -0.26507456528098866
P 4.173523453161193 5.902636905287357 4.03466931888605 -0.44419458077702856 0.7897678149347173 0.023520451719443364
P 6.84314859480442 3.964587287963193 10.43810258635008 0.6591328915232584 0.5072053772816104 -0.8857139287147391
P 6.322529386777667 7.888382018178962 10.508997207197421 -0.6889366051482523 0.533585409937036 -1.935101456463461
P 2.401425171696471 8.476209750728955 5.733045673868752 0.12944116021367386 1.9662884235892266 0.8489818634010282
P 7.0130768200378615 4.069635144867287 1.7543146105533367 0.10195632452984375 -0.17284498112060553 0.3944576185632174
Ni 5.4244861651086875 3.202863499779278 0.5921370862520684 -0.9132815539203625 -1.0825982101727354 -0.04016911601971791
Ni 1.6885020738490812 1.0762604076705506 7.092157129355236 -0.5035353846291909 0.102492656649288 -1.993774030604005
Ni 6.864727069722112 0.8009011309532438 9.216337851945497 0.06923929391279689 -0.9087435568406931 0.3255615669224522
Ni 2.592750692377262 1.3123010216316626 9.147113705814707 0.5338268365238806 1.3570714430598045 1.1385706117732972
Ni 6.3386996545056595 1.848238953875804 2.661490183424887 0.13674643562583544 0.6752853329134048 -0.25636623887371335
Ni 4.049125628824611 6.753002749335929 10.4133217642941 2.5294397201088374 1.6443158595696132 1.0970416392915752
Ni 7.957873404028505 7.355207072857532 0.3737850239804126 0.6600975694293728 -0.21682704312851045 -0.4866254962477297
Ni 7.730058338020904 3.983493365693345 8.210027214184453 -0.2545515542624777 -0.466963499042428 0.12173762092182906
Ni 2.8770756351844256 8.408566395476896 12.249694368759878 0.5385538096859047 -0.5230577709328347 0.9982541994080162
Ni 0.09723811583501611 4.78546617321366 10.568568111148405 0.08471862049531861 0.23017801051411974 -0.3231861247117402
Ni 8.714397341413616 2.307211847118809 5.9871091156421 0.02499163694833115 0.8232548909485694 -0.764402082476419
Ni 3.669473107697184 2.667414752105059 11.373014924336236 -0.3185679092134384 0.5690735755413168 -0.08614018343319359
Ni 1.0421171364846653 3.504726615315514 12.7528496876404 -0.10409291125687233 0.06336792273368441 -0.8839385819818713
Ni 3.305782497906857 8.338051345619924 7.930387572480324 -0.5139959178408825 -0.5580445714206648 0.21597806486465385
Ni 5.781291955026031 8.002534143467724 3.594254638790141 -1.0415047825665353 -0.7367483253148924 -0.32137118299018846
Ni 3.008023097373859 8.422952045422024 3.4989506138010222 0.4640452969543685 -0.4385466384626318 -0.037048053892232966
Ni 3.278261336361959 4.119794681231374 9.072109028682666 0.16333935562301546 -0.6416097950378304 1.8945340765640597
Ni 7.131278306488759 6.1547209613472225 11.482757141316881 0.3925125790217046 -0.8893636096521845 0.07133551432019328
Ni 0.4499492497226387 9.160524610209396 0.1941039078584801 0.5114785507356675 -0.29508113894540794 0.9257838001524313
Ni 4.407290264769518 0.10316902579665028 1.4350845368875007 0.02202638367242013 0.5294384776481978 -0.1342990025266074
Ni 6.028049334657853 5.642091767962536 0.4485170260095879 -0.3634352020397741 0.5180065816621724 0.7214026960967576
Ni 7.97813832778622 8.888927525193735 11.481272375557431 -0.733030510143673 -0.02681300642778608 -0.15177633337576443
Ni 0.4212984341801606 5.031589424699285 5.684240454045468 -0.4258834411726665 -0.8114843806762025 0.9508317442599947
Ni 7.862699828258032 -0.19706075681445598 2.4232437094123656 -0.03163588173772616 0.3499353677811264 -0.2873020092206213
P 8.378427190585562 1.600503205104138 3.6274675533958223 1.0283217082173581 0.055458180968304495 -0.48786939595715983
P 1.8978911877229352 3.261212348202809 1.5409821255074965 -0.3614587950396936 -0.7147977891857303 0.32547286386338786
P 4.742001218278697 1.04918313582799 8.258009879212386 -0.6489081284714566 -0.840715766737494 -0.994782695919648
P 8.429845924268525 1.747584699127496 12.41651627197431 -0.28879761992954134 0.34054929858053606 0.8296507671725841
P 6.053224222061826 7.594490799337758 1.3146717550010831 0.3098842653965115 1.5616001284369363 1.973180265613053
P 1.8018298325477882 3.1978991822919167 6.0144753687398556 0.6589765684510522 -0.5761412810213755 -0.3013751994842358
P 6.979821328256651 3.877648319119749 5.87565656446143 0.836422795789095 0.9603751649740557 2.6113188142728316
P 2.365542577595306 8.341022688933526 10.182169372442806 -0.8676634989709314 0.4478835995928415 -0.6725450511641062
