# total energy = -340898.0649823453 ev
CRYSTAL
PRIMVEC
9.00240542160945 0.00000000000000 0.00000000000000
0.00000000000000 9.00240542160945 0.00000000000000
0.00000000000000 0.00000000000000 13.17593031161488
PRIMCOORD
 96 1
Ni 6.499853825277954 1.9761810551382601 11.323039328184432 0.07009135750044702 -0.315093834621909 -0.13307284342899017
Ni 4.5580619592714156 0.3888237975673051 5.966351468167504 -0.28289153885775153 0.11852271352895716 0.14317907862505663
Ni 2.7292592850953064 1.590761067102553 4.650089049820899 0.11179542210745264 0.054599946733067256 1.0726328714299076
Ni 3.480951144600445 4.2640523970062585 4.7779610184766055 -0.3284401740218279 0.12215799628869928 0.28394723381577547
Ni 5.096783911109241 4.500302525378975 2.69994565220245 0.14796261605662905 -0.059816200826684075 -0.07332709082892533
Ni 7.09715442991162 5.972105805783472 2.5301215735277016 0.6120081701213137 0.5125291034873689 -0.3762866040811455
Ni 5.178129647495166 4.361368400805712 11.508872384616497 0.5377943058120609 1.0981058188900314 -0.27646532361643356
Ni 5.6683646431383705 7.759965539600662 12.271955888081656 -0.2946805610728796 -0.017561405922531047 0.5604583230684799
Ni 1.9583022777519776 6.203566654413235 0.47621194854621846 -0.12944681664062865 0.9078331292112817 -0.31735434852131156
Ni 2.788567132739228 1.7531734653029172 0.3714464541691474 0.1478641428055518 -1.2376362450189073 0.04922351291250232
Ni 0.4797237869441987 -0.1802155553801791 4.558977503914006 0.4783912812633955 0.8759033703822205 0.7467134069474044
Ni 8.615095038666922 2.2112428659807697 1.446321971546556 0.6686881393118612 0.9881734181332466 0.5838288794736204
Ni 6.678281502919504 0.7852924379122693 4.758184534004206 0.4778343803186609 -0.8513758175545014 0.27195355178900904
Ni 0.8540672152134999 7.350599152850196 2.476929960202128 -0.3331537774474133 -0.22746601089959537 0.019272217966050678
Ni 7.565981705200049 3.8955479289649246 3.7790676042692386 0.18317310251949098 -0.9082239368917971 0.04213061062146293
Ni 7.468494655695491 3.79590930453825 12.652108568640669 1.0401559818481247 0.051041539957847576 -0.36500768873321654
Ni 7.789277372012413 9.015549043940844 6.8664776908036815 -0.4732735004208558 0.43397058905617525 -0.06869293449102364
Ni 6.930699951627449 0.7782066445181389 0.36899960034558665 -0.9431266623062531 -0.7067692624542989 -0.3300214024660187
Ni 1.9946629936951774 6.475952438590855 9.152383807544075 -0.5997401513872381 0.258277082743181 -0.07092953713102623
Ni 0.09836748476557507 4.8307628276426495 1.3290296298718955 -0.2804407633244138 -0.510084241491302 0.5589156611717084
Ni 6.137993132519136 2.210801748109708 7.019568998316354 0.16676766457827408 -0.5443231080695141 0.5915108214989103
Ni 3.5327239788141966 4.311098968315782 0.6859851020091676 -0.2973861329295007 -0.3416412460931342 -0.24559794461361573
Ni 5.908395781834469 5.56937419190999 4.767236452766496 -0.2272155854516861 0.9050838486009188 -0.2156854733248995
Ni 5.267460517587856 2.972909390815214 9.275670851062403 -0.14221157250546476 -0.36088903857915267 -0.0792776519854054
P 0.20872977466180614 5.424921592745695 12.34025983957357 0.4852155032740805 0.21974524521656993 -0.1510008886623206
P 3.987066383601857 6.0060718818551955 12.597546789193146 0.4158772218895741 0.8531588775968533 -0.1472913010212173
P 2.397097528186108 8.364234006115991 1.2384609290185746 0.029661274509858598 0.3847236791049052 0.5414627558025836
P 6.260434850158022 7.754429060198566 5.738894889518313 -0.3634436866802063 -0.08052463701862905 0.16657483184117763
P 4.801685057774728 1.0437929117975404 12.376862720225578 -0.3672581753302901 -0.2223783119640428 1.2448505033791593
P 4.117835326357719 6.054747888565986 8.185994478750056 -0.75437503725772 1.3390919757632487 0.01398988652118881
P 4.728864599427477 0.9469090234636167 3.6996303778560677 -0.5328809276708436 0.5044003037326475 -0.04346501316217031
P 0.10720514627620627 5.519950985540055 3.504823723589843 0.7219559974970663 0.2836209608246083 0.48715257239579335
Ni 1.5651402209588672 0.8938281397260852 2.674239283206211 -0.7520240205270403 1.551793940979792 -1.1606041945345689
Ni 1.7598622526130923 6.539581440890071 4.7676442617370896 0.38213277844927734 0.2749440018759007 0.0009736767671789683
Ni 6.129089753448122 5.5612900317423755 9.078967389950614 -1.1652956864729673 0.577647947473889 0.13446098202576842
Ni 8.66973964024534 2.3629514040037467 10.144886414064372 0.4035328413916082 0.005734331380615931 0.3573463155332169
Ni 2.3510052118629634 5.293468467169412 6.8860048086428485 -0.06284161791656918 -0.013676726156144186 0.39976257571589857
Ni 0.4403364622611859 9.117816370782823 9.110352476356352 0.8192069461314407 0.244838697850088 0.2615909776077624
Ni 1.564933165631634 0.9609077640656658 11.48566958459867 -1.1151028676686603 0.9055497324937437 -0.18400562572311538
Ni 4.061840363949522 6.805422476246024 1.7160070340646152 0.3022408899186408 0.34386293633480136 -0.7486054817637945
Ni 5.701916608555628 7.961835481247188 7.870655517058254 -0.45177393578618324 -0.3259040378635355 0.42292153033086516
Ni 5.351759042988234 2.8326429102232358 4.81727812439647 -0.1604610056339559 0.2100601567183221 -0.33510910140157124
Ni 0.5542033886309717 7.625631644254183 6.833446064426165 0.8742444946225588 -1.3939027529555414 0.37897083578152796
Ni 4.952187273456436 4.639866818339466 6.877585758989449 0.15982671448406668 -0.6799120330521387 0.017060297916396426
Ni 8.06773077751851 7.3350880081187935 8.93520437505006 0.4857379514364538 -1.1335711016761767 -0.36437828267933375
Ni 4.622195096280417 0.13105251853011485 10.50545886259158 0.02080330989859643 0.6604948048677916 -2.3630461510405305
Ni 7.96387902730292 7.085253249798495 4.612418483872812 0.21221962626348614 -0.1368906745131836 0.15094509572372067
Ni 7.250267343197568 6.023851632780628 6.889074628929214 0.41565430724549063 1.0175901807324668 0.3378311283184246
Ni 2.3536969311169904 5.125042462073763 2.7791461153501325 -0.4157574084822582 0.3652002643599968 -0.9288531831063745
Ni 2.4079634316630685 5.110611606006184 11.444968808948557 -1.0490604834266062 -0.27936681353394466 0.003461990406671457
Ni 1.1011742446576438 3.426297540616497 3.9152010804815376 -0.7022598046197196 -0.8358304136207346 -0.7710746094005883
Ni 3.7461350043525723 2.595708599030099 2.4997771652014467 -0.20243966405858682 -0.4055568138001725 0.7185744826193431
Ni 1.0899842545815364 3.4808881277617223 8.11919302874141 0.14022179576894558 -0.2424856242368792 0.1919711604270952
Ni 3.5911856003381235 2.640981696449845 7.133317092933118 -0.138335120269194 0.7498414110534247 -0.3029088625199428
Ni 4.0512805422606455 6.968528059672343 5.966614338409035 0.05517510251024692 -0.11640438163437371 -0.20224760265243877
Ni 0.9528506111146471 7.408745690180508 11.56937575171505 -0.1913013880535802 -0.5825276441636935 -0.35926898647722644
P 0.31518682103831447 5.660415519053733 7.975390403256516 -0.35505957638156915 0.1270369216475554 -0.6713363755679858
P 8.450549070355505 1.7772999121283135 7.958473082781036 0.014572498497536193 -0.2280509368687879 0.3404847638911878
P 1.7612936350926587 3.1889041067412345 10.452109707169198 -0.3235926161215395 -0.2867736475209771 -0.5108247192017525
P 4.010625678878746 6.1897389595162915 3.8067373979119767 -0.6344096777449655 0.084415487432603 0.28640186600385514
P 7.011613572547845 3.925354893680927 10.321246239155252 -0.3521704277592322 0.13178292097297303 0.05998537941469669
P 6.325621268614253 7.609535343163209 10.073960962081577 -0.8985594172188395 0.13064649337568468 0.7924849567555642
P 2.28536867313014 8.5584429006549 5.8702858984964275 0.7723483339066892 -0.3824508239103284 -0.9411651677045082
P 6.963666760685136 3.829362243494658 1.579254192351724 -0.9550727789245359 0.4408261785254279 0.22656483924156465
Ni 5.287868970928592 2.7804109533273595 0.3319664047091564 0.33615965415327265 0.2568586051290995 0.6318419170177894
Ni 1.529049577181623 1.211840815860852 7.051533839638344 -0.8381595759745436 0.22115266708705783 -0.7719420996072061
Ni 6.911569839872237 0.6568812251652034 9.234008618501488 -0.7718533965481417 0.6148595235271799 -0.5900964576498869
Ni 2.535986640731711 1.45679627038288 9.216695192182605 1.037199727433278 0.47366636498390036 0.3291428565158073
Ni 6.370507262596127 1.8437556697645359 2.5356418485998407 -0.021756932061117368 0.8252176711018948 -0.09685345608563965
Ni 4.034383027077336 6.717189899628223 10.461965540745485 0.8545971527052765 -0.03133454844722345 -0.40037989758492337
Ni 8.01616499863199 7.024207937886923 0.12049719804400393 0.543427078617806 0.16588603330426915 0.3863727846725539
Ni 7.634868112329875 3.891739911424946 8.186666958443286 0.5908929854092533 -0.4596039733535633 -0.4274225035250123
Ni 3.1173349827629133 8.331789336579153 12.320022431937938 0.8682180859228209 -0.44271722490055365 0.9205289795113953
Ni 0.1692272191879855 4.927574696732319 10.101287764073554 0.05731863121581096 -0.3691183684674804 0.2108813670680368
Ni 8.2550978438532 2.3952340302410127 5.834749802899946 1.1444625517776998 0.07700788211462221 -0.5950124068942656
Ni 3.6338930121812885 2.7764138852712117 11.421067422261457 -0.5285195653783543 -1.3405508196969622 -0.10673651952730649
Ni 1.0708811500429203 3.2189271291900026 12.722138281273041 -0.3233761292353592 0.7632751679608274 -0.8250407792043986
Ni 3.2425584437111463 8.331105153758731 7.976273539239192 -0.4687517012911024 -0.3190841867282247 0.21592304325700235
Ni 5.647028942027851 7.849881566052923 3.4473901767776547 -0.5195417873597762 -0.16710627886461543 0.3939140873549216
Ni 3.1333682670151637 8.38818040483075 3.553127030711614 0.4362799539156421 -1.0497037734375598 0.48698673624189026
Ni 3.2679902393386624 4.362385672630813 9.293695467418301 0.5717140984879573 -0.5381892272576344 -0.38696902349565615
Ni 7.222918035191765 5.956963759678875 11.27223245208425 0.2072028897751851 -0.0588576935681567 0.2371395294336174
Ni 0.36448579421190985 9.015999164217435 0.6101218305921471 0.6608159356526361 -0.23600952959423224 -0.70278842342968
Ni 4.550220864053162 0.3501179549830544 1.384118050043033 0.04548975690168294 -0.6869601981481718 -0.03640733498444052
Ni 5.854822466514343 5.543582300061199 0.4541128434465979 0.31194037659459184 0.198053104955117 -0.2497065674653506
Ni 7.943632617261758 8.646990561466318 11.21547048472474 0.22887677520419292 0.5612908462721042 0.6190676480712565
Ni 0.15247734345539873 4.851405343527214 5.724981671768817 -0.4003063640345106 -0.06596550825753156 0.5077360529740997
Ni 7.783362791577978 8.759628659481004 2.644949056567737 0.8032126275857134 -0.33137405983917123 -0.42392246079155377
P 8.421696360625882 1.5918503581719086 3.647914258797167 0.5844708839329934 0.46447467118230323 0.18545572790608061
P 1.7889760321031416 3.2164154580466118 1.676400050686625 -0.09091189379022407 -0.37279196066432574 0.2853052905055667
P 4.598491762515018 1.0870404679726167 8.219962355302886 0.8670040110100616 -0.32162880752694933 0.4249118212880166
P 8.569659897947604 1.589419708678305 12.397931049891799 -0.22273646663440996 -0.40932425126240474 -0.6541403234046734
P 6.37641284062503 7.790681747275383 1.2609759452537672 -0.9387696708891381 -0.6522760165024251 0.5645594897210471
P 1.8192241146902057 3.28845270711259 5.96166031464485 0.25603765188970096 -0.47436699059535076 0.140706448714848
P 6.8948433703940335 4.119932886846643 6.0044694536705245 -0.008146540366534356 -0.9460775174044609 -0.3536791510942747
P 2.398249836094187 8.381815704119722 10.132540515117972 -0.35016188196963566 0.3451806267049604 0.35793921192220934
