# total energy = -340891.93643052544 ev
CRYSTAL
PRIMVEC
9.10311436269543 0.00000000000000 0.00000000000000

0.00000000000000 9.10311436269543 0.00000000000000

0.00000000000000 0.00000000000000 13.32332802670885

PRIMCOORD
 96 1
Ni 6.485477373955151 2.2566620361451704 11.598317079061383 -0.6258178223108964 -1.791656011550895 -0.5253673929026178
Ni 4.427153992281666 0.5409380025763167 6.187167407877374 0.1734635885412109 -0.18445582588665654 -0.6877017042998865
Ni 2.785907998708478 1.7777836050299913 4.642447197145931 0.0009664776783273677 -0.45803071532917244 0.26214427900807113
Ni 3.1209754300373667 4.2114921112880594 4.756014920277583 1.2432165673201623 0.859088869928043 0.3082333600566498
Ni 5.100265573317094 4.485395717603397 3.160666829028896 -0.170792469466951 0.13309135537175143 -0.947903514869606
Ni 7.175102004339377 5.9998262257972454 2.7590346949694537 0.19394036833832404 0.34953350435701735 -0.3450083627931542
Ni 5.089796991866643 4.7261821940780875 11.163296542355013 -0.1691798735641925 -0.3644754703788304 1.4356219870711984
Ni 5.820285502364848 7.875996290232872 12.43259656792795 -1.4088850852969863 0.3223721134508771 0.3936127540644189
Ni 1.8590289001998004 6.618883514091123 0.31556947079956466 0.06033042145894126 -0.6728163025476219 0.2519143737499468
Ni 2.807345832896142 1.5495867356387565 0.3495950914478237 0.15663109036490444 -0.5664186544169728 0.5813292529802182
Ni 0.6636461627813577 -0.033479433789974616 4.591071950944269 -0.027418758332585037 0.30806932367495976 0.20837197038262179
Ni 8.644353756238798 2.2707991726604324 1.4427835367469581 0.028352583000764077 1.1790899120435823 -0.13541460418828938
Ni 6.8141635221564165 0.6703724539411304 4.797077248283406 0.016767706376642093 0.9632938812827474 -0.6556284779144257
Ni 1.1032701443916344 7.433129779307247 2.7045953404928142 -0.8608842712655689 -0.795217782305695 0.16649847007728744
Ni 7.410581365174404 3.9485395514813257 4.005378486888694 0.6997696912080142 -1.0228897385685092 0.024520353738867448
Ni 7.785265549957523 3.9360682848838313 12.496522277821558 0.7015188126886369 -0.10102198564103247 0.5849408815908765
Ni 8.108872160376743 8.902363324978058 6.647034895078534 1.1969392815201776 0.6895912080131157 1.8676231111058288
Ni 6.9623349136946775 0.5674371683174163 0.28847314076007413 0.1283965209992434 0.5803658606256844 0.2847123941165742
Ni 1.7553535313831108 6.475837175906431 9.442469302906924 0.6835871679108808 0.19749080469374375 -1.2364170278998254
Ni 9.243939483034838 5.133655796586882 1.5732985277797447 -0.5767750579506324 -0.8058888888662958 -0.6225113836454828
Ni 6.369321635426663 1.9480664612144671 7.044003503679657 0.2040232064956228 0.250909072413884 0.41930913038925854
Ni 3.3494271866291343 4.41878823023561 0.3717284035683698 0.3255703086732006 -1.1713701748018213 1.1091733895581026
Ni 5.915121747191635 5.747305834983744 4.972932120733814 0.7437399261413772 0.4484250739186083 -0.18159290251656468
Ni 5.237567846375494 3.014250517928589 9.419392908144406 0.053505171006991724 -0.6582391760643955 -0.48271999054573644
P 0.11461731221098764 5.571715863159604 12.512150504459937 1.2735393866734195 0.6439111894774975 -0.07558889027990852
P 4.147615558211696 6.096674258885379 12.66042567150127 0.5973315419457454 0.9279278430786277 0.2638787452006746
P 2.467426441642827 8.53295894649169 1.4062108647162326 1.3643754329203857 -0.8771426421059603 -1.0110323250092912
P 6.487489162216499 7.943741666888751 5.898476702685417 -2.6548943848709374 -1.2785262983650496 0.10780352733924015
P 4.8806074251437055 1.0530300565437718 12.759631411194334 0.2770037126184068 -0.030191178871399618 0.6043488538038431
P 3.7335239916033545 6.386890646034812 8.27001640011069 0.89550906042829 -0.6380699002053721 -0.5772818223837219
P 4.774792824465401 0.9130969834513007 3.7386326593511754 0.4497229667944255 1.2841649847080658 0.8166343003082581
P 0.08501944636055438 5.623184871438607 3.76880948327139 -0.06266549735002111 -0.35366089626182967 -0.30071982528842406
Ni 1.3342252574172058 0.9179489433757274 2.321376986049001 -0.5597908646878101 1.5569479743769057 1.0191415843799867
Ni 1.7340249345671037 6.3883471443235695 5.038789511482889 0.698115957654675 0.9360705267904201 -0.5949525001906075
Ni 5.9825849273040665 5.518098519904682 9.081539923838266 -0.5952124387202137 1.2063487477595354 0.10572401910239212
Ni 8.511812411961778 2.24018539925359 10.187549195324198 0.6552402413370716 0.959186029761961 0.4857454076356216
Ni 2.1911560256082576 5.113465089058967 7.08633207488527 -0.014351126515349477 0.3803337775673256 -0.15157450177760348
Ni 0.5512008536434811 0.2522254499100279 9.316257354005986 -0.04544784792015399 -0.9882376957122787 0.12930514885644181
Ni 1.4776357201740875 1.1091416531181921 11.514872471475547 0.036093146178131384 1.215989356173093 0.36881832072855836
Ni 4.362339818431914 6.540678659099097 1.5406565805058061 -0.09121554107357194 0.7115803106896971 0.3070290553359035
Ni 5.926773733501702 8.07829479942712 8.025426642479479 -0.6857319821680254 -0.43534612924746313 0.3653133928990934
Ni 5.20122821407097 2.767774595013435 5.029689128112441 -0.2689147649626853 0.12197081997855767 -0.38772312805286124
Ni 0.9481712828674659 7.509350155380839 7.301490553657825 0.42133413123908725 0.9444646643913863 -0.6091280203600412
Ni 4.759126364746943 4.803677006154344 6.92132265281753 -0.02140340537644056 -0.16962133197698528 0.5414758684287061
Ni 8.396039004234087 7.2664153439302295 9.253344820734496 -0.7711681975556589 0.036348713832363204 0.0030133329050270686
Ni 4.538694451857652 0.3888113078726458 10.66201989849302 0.5349059285206724 -0.45472916175976524 -0.4252969725415773
Ni 8.150846620435903 7.27425312534661 4.8536749511617 1.0385798956102565 -0.9304824911796814 -1.0055355635607781
Ni 7.36654049816807 6.053935137224623 7.1856570653757235 -0.7332531676774404 1.0584182704924223 -1.1147200304079448
Ni 2.379408429430291 5.344784326656729 2.417904589513608 0.42902352946354505 -0.8430773249911352 1.355520810743233
Ni 2.4978399465349654 5.171679505037783 11.635808255325456 -1.2404750000192828 0.1942465867248332 -1.6468121436289058
Ni 1.0510637838539476 3.4579545153702504 3.8356399969396424 -1.250850429716336 0.2762694055555435 -0.903966961387656
Ni 3.98941253470961 2.659056100871919 2.2654319764663575 -0.034773656035759465 -0.6908927004333585 0.5252897455871469
Ni 1.0780090021959796 3.2319788058693724 8.332262585415075 0.13598924574483676 -0.20850309664384736 -0.4685544976786318
Ni 3.5115900648537814 2.790268390460449 7.349148087977433 -0.924485135945666 0.6631528113159288 -1.2387220218839181
Ni 4.436202487900578 7.097570779805902 6.1509279098302025 -1.43388520688575 0.6450879833944181 0.06748065935047733
Ni 0.9660589024762809 7.467357489093072 11.37627027369443 -0.7712144774125621 -0.6037230472943861 0.5384699917228469
P 0.22503080623604615 5.665086506583328 7.915362708043722 -0.21140407234072622 -1.401803752970173 1.4802383402289927
P 8.442346546702302 1.6004640414879512 8.033447396493386 -1.076109002903966 0.18066807670945015 0.4364594169162999
P 1.8330395088597662 3.213881814631548 10.540670833253678 -0.2544523096804521 0.7986766873885729 0.16093768816005832
P 3.8679314743128486 6.255377953674226 3.909730244265925 -0.07607585721865609 -0.21674862448209126 0.24782529128223774
P 6.99769140965429 4.006626523859874 10.350494031067623 0.6034065444952318 0.2751473761359584 -0.017200165928370377
P 6.224791489610297 7.746850407591518 10.318437414043478 0.6971332820264317 0.9586561254004199 -1.5148731566940428
P 2.383586758896167 8.629679535979557 5.896731635673198 0.5694240169022 -0.8990363568552581 -0.5547293910045027
P 6.8100307082620635 4.09499045441599 1.617625232575248 1.0861735862288195 -0.9330186273379737 1.410003772282462
Ni 5.492719037223066 3.220372335130828 0.2619075222845499 -0.7666366282338926 -1.0439609574165116 -0.29884214864973696
Ni 1.2140914579375452 0.8237198762730671 7.120905703014674 1.213604400880684 1.381171678542118 -0.26467013075371837
Ni 6.688358482464902 0.8341948299035319 9.339360147799988 -0.12401587543304449 -0.24485309602779123 0.16817225823528456
Ni 2.670116384752179 1.572126046657294 9.450502801280855 0.09142508598121674 0.22282542680379047 -0.6491130453934112
Ni 6.515071598559863 1.8879221850030468 2.572401735182234 -0.02744909734988821 0.4257605424415571 0.12611543827455055
Ni 4.002120482279028 6.853798481839256 10.550077081264766 0.5283503867903416 0.9535954230480608 -0.6939906226323919
Ni 8.06408483799742 7.28848129300492 13.31254911219569 0.9205055824726276 0.7214561750425124 1.1154515092573305
Ni 7.747514934935764 3.8872209735245935 8.22489044187923 -0.03914813095437128 -0.7620181556252748 -0.4786964712086401
Ni 3.138999596360753 8.347919942019228 12.497854063444343 0.9555150086682769 0.08992459017629029 0.22926783999502454
Ni 9.234836368730097 4.741948788053898 10.097683250907798 -0.2212645100745738 0.26738701546424914 1.0027788267512472
Ni 8.738015699320274 2.100316047961252 5.829994884082285 -0.45089616116692016 0.8186618722612482 -0.375365892039089
Ni 3.7105932466697134 2.6409409034054856 11.735666688314168 0.07498185282352893 0.7316613977102883 -0.658134532165731
Ni 1.2113605236461231 3.554229052257186 12.796070267444781 -0.5769930874987096 -0.6390708306660607 0.5364354777913213
Ni 3.2797610528549552 8.5362451707557 8.101688892878872 -0.7626696731663446 -0.5380318757441638 0.6529730425694497
Ni 5.740897242513206 7.848077038660232 3.7150364767618576 -1.0688101552497076 -0.1385966014606968 -0.24507369667902953
Ni 2.9488355385347234 8.68777561147241 3.581030441393203 1.3740965168628916 -0.7930657689596987 0.7287699350951062
Ni 3.3655579051771345 4.492632693475665 9.218304202841258 -0.2466364131804591 -0.5119768305283247 0.6077630216917146
Ni 7.352822104910826 6.221477956003372 11.324815830398316 0.29759310673398426 -1.1039923595777954 -0.8944757340677691
Ni 0.7944069379003722 8.832050870088242 0.06034636534898573 -1.0297137034688784 0.9720060643447648 0.472234003412748
Ni 4.839479554714888 0.026930653359144296 1.7848594557790662 -0.8566769180524407 0.3738684815579561 -1.7741167171155514
Ni 6.3371330232451 5.633562421746011 0.20114059305468515 -1.0788186885256452 0.36882731958962284 0.006629332391059551
Ni 8.23441320975342 9.029005851185609 11.2735734896655 -1.070911774973743 0.13110697795187096 0.6405276177172452
Ni 9.00617524050932 4.6101994147213885 5.913079918653082 -0.1628115081440035 0.44015692037254517 0.021735077684246436
Ni 8.203298765059817 8.68518122389556 2.4640027603528143 -0.8267528767994987 0.5631446116513914 -0.1395042008766307
P 8.694557431629443 1.7445572378176886 3.653282769941359 -1.4649035096441352 -1.161683800751993 -0.5887800528313086
P 1.9282307751444376 3.1273111975934658 1.7955720006928848 -0.2759120222161248 0.4745037732835312 -0.8502627869959809
P 4.454818356653774 1.2421836686819745 8.341056193833456 3.050911891722107 -0.6902933762864628 0.013221898006912713
P 8.793608418379323 1.818210535657344 12.616605099861111 -1.177121475463302 -1.1591828887070101 -0.3394205842927316
P 6.378188068759479 7.581392201988555 1.47445236110172 0.9890812746594966 0.6749058380867989 -0.29136975153209177
P 1.6025213453208225 3.1883566821210554 6.003571247022215 1.1858531989093446 -0.6138390526824654 0.7753984335869226
P 6.674867667065277 4.1017722745730225 6.138789817216261 0.7846875721983325 -0.9725102576746929 0.5639264841227385
P 2.4488196760039376 8.656770404150466 10.291204537289415 0.005445339385287396 -0.9494870573066421 0.06063149763912783
