# total energy = -381172.5238558063 ev
CRYSTAL
PRIMVEC
9.21925136827484 0.00000000000000 0.00000000000000

0.00000000000000 9.21925136827484 0.00000000000000

0.00000000000000 0.00000000000000 13.49330627367936

PRIMCOORD
 96 1
Ni 0.5003195454961411 8.997979990135958 6.589280969691431 1.2796043619205768 0.16743409451767938 -0.4737108450685906
Ni 2.768255350321193 4.297194414320364 11.186288200083553 0.17663118763591518 -0.26435182818235115 -0.4560820762432339
Ni 4.942744824586461 2.4093959958382047 7.958122204372432 1.9107957898385608 -0.842657463844897 -0.12107067676179151
Ni 2.374178456104742 1.5850197692867765 10.702242476874718 -1.4766611644006955 -0.20317679933492747 -1.4205591792008052
Ni 6.7688295752739105 4.383578798430977 0.2093341624858479 0.5036454278444938 -1.0634301218847169 -0.5297786345964359
Ni 4.578584400640975 4.541237213871275 9.382556445950488 -0.2646878713655313 -0.40984644231446193 0.4019354149975013
Ni 8.934699049630595 6.987528653168463 11.674637469770813 -0.30712650014571624 0.30199329268420894 0.7527472718463101
Ni 1.3197081571272018 8.909465958989106 9.35142764414158 -0.12126222394730728 1.0218420140302853 -0.8739009952402111
Ni 0.18130579486865636 4.620200100734391 11.971220782133502 0.9397407765531558 0.4284465739141524 0.23225469053749032
Ni 6.020779529731208 1.2804710238534807 13.035586103465997 -1.536346238966154 2.0336302433689943 -0.1413530811599114
Ni 5.6222036409100635 7.247548415116779 5.463777261841547 0.41291453971682435 0.4293508308959767 -0.7139755503947509
Ni 5.922907958576643 6.99430480282922 1.4991876183253874 -1.6020075857197054 0.3115493118037602 -0.6873844301697839
Ni 2.7404132115790314 4.124324234335508 2.506786322078086 0.7686446598028568 1.1424848592260388 0.7717754921223546
Ni 7.946081862254133 7.660598528383351 0.3480248904267672 -0.38130745433450464 0.15169945739124194 -0.9613136176279252
Ni 7.487378016851409 0.4806161617478806 11.645100832650899 0.5282930511898449 -1.4022120441521853 0.11351060502634643
Ni 0.46271882931736485 4.597133534134097 2.8284801090407847 -0.16745106379854385 1.275093875644733 -0.5150055900523195
Ni 7.481542230817041 6.636238303952797 7.288571317355519 -0.28415369339962676 -1.126101275661693 1.3044954687353016
Ni 3.309213355279402 1.991883764971895 12.688201029075225 -0.5051436096565752 -0.1703283853463389 -0.4559707474763502
Ni 9.25594385905795 2.707869254704916 4.07712351184143 -1.7842720603819981 -0.5421407557062148 1.5244937105029424
Ni 0.6517955310554807 0.16114329240868733 11.56132088701534 -0.1267445872181172 -0.6396051059029759 1.8810666382052443
Ni 2.7643371685445643 8.344224446267038 11.895348188285743 0.2033665467482304 -0.8662457926877986 -0.3012952381759198
Ni 1.9654798294230376 3.819342184093974 4.913277331850843 1.0837279529018047 -0.5906466737264021 -0.04762634362871153
Ni 2.5478138339424454 5.332239750937066 8.502942153674713 0.2847329629418645 0.036436131339846925 0.747432544501616
Ni 2.314843355129726 0.5529126080399845 4.6496316383901775 -0.9462934900700091 -0.5881059095824195 -0.3780778916536134
P 8.21558823372751 3.161253592142666 2.109340713458859 0.5636261792735003 0.32998077903607037 -0.682759786913579
Ni 8.274112040593483 5.470500861770241 9.592283348539123 -0.9078300438874881 1.1900937193532537 0.34426068599385223
P 2.02475039563938 5.814000943688846 3.919063137047107 1.2824765412620494 -0.9756896838439392 -1.4965015961653902
Ni 6.22534549547618 2.5356905185629945 1.7928152387408143 0.5233313363091955 -0.6637603629929407 0.31372240819567904
P 5.845982526237374 6.418396616423483 9.29543083404025 2.556025441017166 -0.14132042814976306 -0.6186261896584635
P 6.120319785360054 0.8354679077172208 6.73008290616611 0.0014290191370427002 0.7616471454391012 -0.8432292771879671
P 4.811582537207412 3.5773921545743455 12.690292877181383 0.3218206118227812 0.5949717834643172 0.12400687657197998
Ni 3.3694611621270925 1.6740777362567358 6.384344390046647 -0.19181972245089546 0.9118705325054488 1.370883923462865
Ni 0.1113528822415383 5.191397249756935 5.105192641045485 -1.4600317833741308 0.7670418340921114 0.6920201291695824
Ni 7.395923044559276 7.865514825675409 3.002678783129199 1.885002997145173 2.11454363118561 0.8514501224358627
Ni 7.04800694129713 0.6488140252047473 4.617058179912097 -0.2885716199616643 -0.106655529777726 0.19238536514637836
Ni 7.890194761242551 3.059611347231299 11.475746875088646 0.2533907011851572 -0.9153273807057978 0.5475053624522377
Ni 8.12916697261194 8.390578841497366 9.701215255405268 0.8165291421889614 -1.0931050232413302 -0.10665270156424857
Ni 3.655820324865592 6.568283203069197 2.1924467318288383 -0.8814559247693337 -0.17318796628232108 -0.695966258301524
Ni 2.7415010832252484 9.100073978358042 2.3829450421080276 0.9124747417483511 -0.8001936382537316 -0.20205811234945203
Ni 4.30641366555949 5.2986263609192115 4.512202104018771 -0.7508665098838294 -0.4141890355538738 -1.2755530746693386
Ni 8.151818672906474 7.582151919589625 5.423229151041622 -0.04234864016953997 0.34613450597779744 -1.4827976163157366
Ni 6.8627368683956504 4.042448064080829 3.7751976433856655 0.6082667008010105 -0.07806486262422685 -0.26594334103918715
Ni 5.897748621945069 8.149135870795888 7.787365076771584 -0.6198893726416034 1.7449928031664013 0.8416688746793827
Ni 8.30327253226284 3.2048698697549716 8.525799443271877 -0.16941692927566307 -1.0581706732579905 -0.037876206220483155
Ni 6.391411868046561 4.2920685106314105 8.095956463873238 -0.18729586643861293 1.1569719970986203 0.5515119125084696
Ni 1.248646168576017 1.2088374417254697 0.5868615788029429 1.7554571930328349 -1.8097015561986962 -1.246325288152473
Ni 4.697641811143051 6.163290715385621 7.391080171883363 -1.1591021560677457 0.08764607855475873 0.44682224820786276
Ni 6.392241600658083 4.859098558093868 11.335861332187136 -0.29000218176060377 -0.27328615455750355 -1.0882728919600098
Ni 0.6281527612527414 6.366833344243051 7.490094008266454 -0.7184271584082015 0.7346009399545864 0.3537969076190617
Ni 4.488982497847908 0.2386569129770128 5.085019997409153 3.610182108019757 0.4865272801069685 -1.4542838251467598
Ni 3.374116884002851 7.579635064001344 4.268175899120091 1.3721885012069015 -0.06692530106763957 -0.07867987050040644
Ni 5.169538405068967 5.959231808458801 12.966405764092718 -0.7930675687319115 1.2524067184598626 0.1748571264546279
Ni 0.552189818742837 5.9934628883096766 0.47030074153642226 -0.1485531984527764 -3.0494893003429677 -0.02500089291971178
Ni 1.1517149610478437 3.9289222043222285 7.2583865668734955 -1.035587902861468 0.15233117743796992 -1.1585935918624433
Ni 1.403262231107403 1.667218613334826 2.6973657617681797 0.828331019919896 1.485433768387003 0.17424674656413863
Ni 8.39643306603421 1.9314515730994226 0.04913584332917104 -1.3806610574542866 0.45555911386022835 1.1689430534175675
P 6.763353340037869 6.147839250308846 3.7969357158824018 -1.370588503709633 -0.9276514494887894 1.3424068990690945
Ni 4.5557667538241375 9.035474684925484 10.710945450044452 0.8518751257884233 0.5542696777592648 0.12096217620838523
P 8.06966592511462 4.584410967424103 6.752576957264455 0.6862577727645084 -0.33481059632454596 0.2545662095504971
Ni 2.8715017449481675 2.996726834529219 8.649168697578494 -0.34261826529442285 -0.5984191185829694 1.2751141873597072
P 2.048038224269413 6.08079685529792 12.21733883513834 -0.6258898131994124 1.2842827412328526 -0.1984634530196582
P 4.828776440768382 0.829672686388306 2.7491936264591756 -0.18667005992915592 0.1656150390310696 0.0036044295218066956
P -0.22066738803410577 9.046242770372784 1.5880676537464316 -0.08433526901397088 1.2270242738310158 0.40022100340955585
Ni 4.109398266579364 7.467593503692244e-05 0.42048636131605155 -2.896783770284714 1.1356477816995474 3.002259420821726
Ni 7.824332430390232 5.798392751341005 1.8160643465156427 0.32117037983329205 -1.5595072504636498 0.857919017989658
Ni 6.636570196997406 0.23856472046462152 1.4942488654365875 -0.060553593213340876 -0.3122499374152106 0.2585208233228709
Ni 6.6429775766085974 7.3425159221310174 11.211062172013332 -1.3262387739496642 0.010685761848620306 0.3912704790844875
Ni 0.19993144814706307 0.05730041222654123 3.88353583047201 -1.961976426477434 0.38211889449220643 -0.6851216022775362
Ni 6.384727910898194 0.948605636998654 9.655661091182496 -0.2137741152347996 -0.6640395847962565 -0.9974926386516433
Ni 4.50404675437264 2.549169063874597 10.540133928861293 0.49199704497228813 -0.8107611293569327 0.7264677693244908
Ni 5.976886674581729 4.884958557819618 5.974755183695242 1.2223024428753142 0.36538435534634495 -1.2941922870370808
Ni 3.9960383533430672 2.55040444354064 1.2309240019190446 -0.40485721662998664 -0.47795959304261554 1.382275453129258
Ni 0.9989980642717179 1.7771213073564496 8.17267999461037 0.44164276088945226 -0.964056727590701 -0.9492831688259523
Ni 5.133020950910788 4.5742882295635425 2.01595430803213 -0.2717157247465901 1.2326146234345996 0.29121805644557586
Ni 0.8843105788569877 7.379955301413109 2.348793247817808 0.17188904496523946 -0.8267731885144729 0.6758769437508166
Ni 8.048000684702673 0.5244029955081106 7.830678041018123 -1.3339078604591479 -0.7342127033772323 1.3668976851216073
Ni 2.454690177176032 5.987617883024071 6.131682512512277 1.008494646189102 0.2600190051349522 -0.20264715208370263
Ni 1.21337331333512 7.486760327018387 4.774511927974886 -1.5697243002059675 0.7160686854783538 1.4996643101640883
Ni 3.6088851168072003 2.455492252033836 3.870757026329457 1.3125885301560813 -0.6719400705902557 -0.29723186673982355
Ni 1.2589532914613601 3.6079539724320484 0.8719862838005238 -1.457351151218174 -1.0163863902323529 -1.4225972926767565
Ni 3.155491560118212 8.440620937223343 6.617697467785789 -0.4688221495177216 -1.004410191707083 0.0771040413728543
Ni 4.0973763629635425 6.596798347151815 10.305512282151646 -1.9285004062071753 1.1418238286032723 1.2374652666586816
Ni 1.3654817395294636 6.781349318456644 10.131111706461095 0.3847123662509955 -1.6615124259535579 0.3460131499085847
Ni 3.0964883521878037 4.808918173599305 0.10585083310202777 0.9477911576614579 -0.13906659911857985 0.590234525889648
Ni 0.7982691508924704 3.9737093268419033 9.679085364730868 1.5244980813783164 -0.26898932695436256 0.7260193689331625
Ni 5.617999662345022 2.7063019819942644 5.315242217427489 -0.33625941295593054 -1.228366132570891 0.8177540157349981
Ni 1.2147008855135544 7.921235980164688 0.014965610536473604 0.5388201759734139 2.677353228095086 0.355441128090704
Ni 8.955497680426063 1.4665616101152434 10.058072188519116 -0.6111987868461409 0.5561769220843067 -0.7142992522827569
P 6.53027223021028 2.994412802468198 9.924340495819724 -0.3376354673678508 1.3195893869539466 -1.245943993553654
Ni 3.632984239546276 4.0223224386258165 6.686769941919572 1.2146631811625017 0.1813923564699844 -0.21565076343222214
P 0.9571334443948456 2.49796534249249 12.301334511252895 0.3527952058274247 -0.02213616977740704 -0.8450856136704156
Ni 3.5504627217048577 0.5068854962286469 8.64162550621464 -0.03403729209036719 -0.07819881709892984 0.3766311319047578
P 5.337762082429303 8.387813066125627 12.742889627425722 3.1261891642988675 -2.579093121469907 -2.814916503195262
P 2.58385188703619 7.443024199139972 8.398017855322216 0.10068388557532339 0.4146315224079311 -0.10285518219502932
P 1.3054736332139911 1.915281006425995 5.906883977997919 -1.8488802832806868 0.3186851515175931 0.5319458174510838
Ni 8.215339313944053 2.149855634954323 6.3760590489580435 0.11970233565935512 1.3923582912865569 -1.96363967311247
