# total energy = -340891.1532105699 ev
CRYSTAL
PRIMVEC
9.06669396944877 0.00000000000000 0.00000000000000

0.00000000000000 9.06669396944877 0.00000000000000

0.00000000000000 0.00000000000000 13.27002309975919

PRIMCOORD
 96 1
Ni 6.723107500015601 1.6841564850743787 11.2123466902725 -1.4541899798813729 0.9310069962245836 1.500071572904836
Ni 4.656826142961677 0.27883256419169056 6.222552568474435 -0.8772192609801667 0.35375654129942946 -1.6828556675160244
Ni 2.8935627554998455 1.6738657877437473 4.899677533270891 -0.14392804097593923 -0.7335447307759302 0.28659469874095156
Ni 3.362274552155629 4.431391871218226 4.691908807500129 0.1776488302671521 -0.5033713482475007 0.5974726955093
Ni 5.010191462577556 4.745951741869258 2.4317316726803764 0.25762119432673697 -0.06952957145970605 0.4463579069769345
Ni 7.388475882663801 6.08080478609791 2.469803626126238 0.3151804807984443 -0.41059463333439605 0.6202539550698737
Ni 5.12282699820613 4.7372023824648 11.264378631982655 -0.8909445809860591 -1.346108773400714 1.8561850444722163
Ni 5.868462820033254 7.802470182940413 12.627779974612151 -1.2257150681012892 1.5068474581760887 -1.356044287346871
Ni 2.0382562068786116 6.737949677575287 0.648867000144456 -0.5374500350987647 0.2182447494116435 -0.9414526170379399
Ni 2.8128782484114865 1.571276148716353 0.35124461996333783 0.25009891780776283 -0.16816017405042652 0.6688097524913901
Ni 0.32693500085947125 0.057444757839130924 5.147030536993901 0.3812879139504788 0.2503143762526786 -1.2812339271042
Ni 8.647984702383601 2.4510446368953342 1.212731026999161 0.32162675064442026 -0.196265674037391 1.5252280175658055
Ni 6.72785844750569 0.841451734003668 4.974268315534654 0.32776191700788065 -0.10726642388884754 -1.5192720570926868
Ni 1.0289609327389266 7.592857291674453 3.050990477932401 1.0451827456387548 -0.5393647356229743 -0.18227887283999578
Ni 7.713317383951781 3.845066924101695 3.7906486286140746 0.6544745668156406 -0.068817632994346 -0.6224795019662828
Ni 7.544005946108426 3.717489477282917 12.61632783382068 0.18503021033288777 0.1669039330458222 0.8578701670295936
Ni 7.544323280387344 8.906285738729288 6.892503258110213 0.4003649851865879 -0.36771686013426347 0.5494982245125505
Ni 6.936736936583296 0.7169080028913479 0.3237117912550313 -0.5162026956842142 0.03952016958180936 0.6090974242324219
Ni 1.5831897842163083 6.4714342167524626 9.314720342439255 0.9200456121170736 0.5290407279891469 0.6807108748043503
Ni 9.361270561148439 4.978222300649973 1.1726199741439074 -0.5529501876168929 0.26616882678643194 0.05588575542402633
Ni 6.47150675030193 2.166658722822576 7.206140139344277 -0.6370982803207221 -0.13688758918939006 -1.3110312129712907
Ni 3.3623924191735126 4.148538228377959 0.4679538210638532 -0.1756001752682395 0.6994963829419696 -1.143472934170921
Ni 6.099337107986728 5.5395050398130214 4.715555651295741 -1.1551334012279848 0.8044040767906534 -0.4530800561921165
Ni 5.367011192486801 3.128054654232988 9.231981322562243 0.1879810654310956 -1.769939960030042 0.3695379725034023
P 0.11277153603382531 5.662603539952212 12.223349222832764 0.6366789333951164 0.11807174203446763 1.1199637953053874
P 4.034823756201062 6.0871696050636395 12.732215592473482 -0.06408063252999287 0.3477136775394592 0.25900779026161846
P 2.505172798185087 8.729956679975 1.415938299177816 -0.028208344113415933 -0.38563693494779394 0.03922654960079051
P 6.110507274604648 7.698593073409978 5.679888284790199 0.49385081035157535 0.08590801281772946 0.8746409587300291
P 4.892215644369473 1.318741529553293 12.702038915887103 0.3448942058127932 -1.0285479652955514 -0.3888916944396657
P 3.9663339521168433 5.720693846381598 8.029730486791696 -0.49949541023186234 1.4651835027783993 1.4711186373159117
P 4.886639627754196 1.1406172654496967 3.848213973479194 -0.7922743834066548 -0.2036892201949718 -0.14753658426280397
P 0.4254781744959753 5.50273053023325 3.332805984345922 -0.4025748483537131 0.5265832675875898 1.2370410346370695
Ni 1.4658033010976448 1.0712117253034568 2.838166163763789 -0.008752292271333314 -1.1551120610717462 -1.1399993738000238
Ni 1.7731460835767097 6.162967164256659 5.058957581222959 0.17209216211498105 2.0309935770770955 -1.8615162268771426
Ni 5.961822564890972 5.389578193064723 9.222984442420229 0.42063479117921754 1.8899809099757385 -1.5008053657470668
Ni 8.591617067754056 2.3651105141643005 10.045194839089037 0.9348276555222544 -1.0999369585614993 -0.01365590022053777
Ni 2.05874693460304 5.214001669886155 7.11716414088247 -0.07035001047847238 0.07934552910886335 0.41858022264303396
Ni 0.591924537135384 8.915914567421032 8.992855436687526 0.19903938012778624 0.32776911609673226 0.8163784755437102
Ni 1.6215328318033035 1.206441461591003 11.600640540634215 -1.0653767040881263 -1.0019655868213324 -0.2367194111770633
Ni 4.3509612315530015 7.10486063755413 1.4850881585621847 -0.2596809050692431 0.17763828874419083 0.011350649126128839
Ni 5.2578028670705415 7.953811433903318 7.982847520424328 1.2955027783183883 -1.1290547018630621 1.3383998347922306
Ni 5.211852863483195 2.895956362632257 5.009353700081212 0.3140317119059818 0.4231526725050648 -0.12208112030417685
Ni 0.46999473381198104 7.532853912877873 6.855413227590259 0.598490338140537 -0.8651641295878454 0.5244556797216258
Ni 5.21734727985532 4.430503335237256 6.9904226432213 0.39056908214208863 -0.21051781308103099 -0.35042824825714486
Ni 7.847867118213074 7.435087754890034 8.944512732637136 -0.29898098822044633 -0.2274721815471824 0.9091806443781115
Ni 4.616352422359088 0.35080760532779914 10.588097576817146 0.6722131217459842 -0.5867267698467056 -0.6159345017589135
Ni 8.043426634269801 7.093781137873044 4.7055768482278175 0.3731102632356929 0.5548337777928509 -0.15696559088618772
Ni 7.057813564031094 6.319050296015969 7.023239541008278 0.41827297581526035 -1.415108183388563 -0.37223377416801057
Ni 2.5256272591347817 5.228671580265857 2.4094910730750554 -0.6886165028046721 0.25532957007908286 1.3124915995669009
Ni 2.292676698327813 5.248627373062966 11.688315468552458 -0.6846883713948595 -0.5159615262076855 -0.5028841241984372
Ni 1.198154503564398 3.127383718900418 3.7090248120601177 -0.7868863796218641 2.05161639553377 0.9188333369765272
Ni 3.4390785143475036 2.7166806284308715 2.7936450711009417 1.1048125414862457 0.1491350390981754 -0.7514591491625059
Ni 1.3331757058972271 3.239402719358523 8.285935303557785 -1.2254394458423992 -0.5707486492508945 -0.22554591105874705
Ni 3.6450919282211633 2.655888447283839 7.065649907381635 -0.4770936454978945 0.2386991606112534 0.5206460761675484
Ni 4.00779594233092 6.688191662640922 5.970090482860842 0.271553488137113 0.7035890649541043 0.06859394701931414
Ni 1.1233270805954996 7.547415022933374 11.702514817529993 -0.4703576123256416 0.2267324751676805 -0.12013402388013504
P 0.029314434017089885 5.747213925405472 8.103657587077835 -0.7949946105512953 -0.6658619827169758 -0.6145785019516512
P 8.670687703366774 1.4792401411364073 7.920491334616913 -0.18054620641960517 0.8884434118307603 0.17679496690728908
P 1.6152133463059908 3.1224877043113954 10.571881795164428 0.6542256840296281 0.3617107631494996 -0.30088823254548824
P 4.030780010818277 6.343049834195864 3.6838112435960184 -0.3621226538759377 -1.3118742776978762 0.12338389827600042
P 6.972196775578978 3.956106721641995 10.625559341778116 0.19572214282909517 -0.9439627850543033 -2.178026482230604
P 5.9560470810146615 7.473929470629615 10.181198871017143 0.4937273973998336 1.4463892528900317 -0.13923732036848924
P 2.358210760271252 8.508493620064868 5.859445086495768 0.040381232030524 -0.6143417033504968 -1.2323204892329487
P 7.072855208851814 4.067010518777045 1.668546358559711 -0.5397799687835221 0.23003094341329416 -1.0209315864008741
Ni 5.369568000105513 3.137529349132116 0.5954687076962155 0.6700487671048138 -0.9226735366582238 -0.29744835362600386
Ni 1.7262168770715578 1.0752464039925589 7.115399762291686 -1.0415752307931545 0.9512534051784457 -0.4780909764141574
Ni 6.8958280146839055 0.765460147565824 9.073669597495558 -0.5889296910352955 -0.8974808394426801 0.4578854480005598
Ni 2.7697389198659854 1.4840092220138628 9.371156883940793 0.3586778898604468 -0.02108227459159595 -0.5379056345789446
Ni 6.601967405712021 2.0423634191171804 2.5669668489841326 0.3665020138905559 -0.05311436332647626 0.6001453572454567
Ni 3.9585003287744063 6.5318546634584775 10.513162260193415 -0.7072207481694208 1.8243643004171934 -1.3379920578308504
Ni 8.020306565377194 7.294535869410346 0.3053245364651456 1.8331273913218042 -1.1463484559465031 -1.2704712892710572
Ni 7.938869522713115 3.8073948118472694 8.132148765308473 -0.3392385501889125 0.7131849361726555 -0.5571585692712856
Ni 3.401651202822529 8.310930364704115 12.38140889381505 -0.283410387475699 0.17462469872884764 0.9609140681966614
Ni -0.005999431210289613 4.697852931878951 10.171392335129205 0.28708423678286044 0.6417242091285078 0.5152799267596286
Ni 8.576058621393383 2.288678286413445 5.751135270423532 0.6562902798681407 0.9893610106834443 0.7882891735066618
Ni 3.681286169405199 2.685835736520028 11.48684990823038 0.08520353055153713 0.38063022576182187 -0.009068537960171479
Ni 0.9160715296872173 3.451599618324245 12.695775643890627 0.49743055728303365 -0.4479090535141383 -1.0532506102485537
Ni 2.897053432567945 8.194704418376922 7.974686589439921 0.019599776508798503 -0.7394459267517136 0.5636254079425519
Ni 5.65873206174941 7.842336435066215 3.608212244994665 0.6902113580956177 0.4232514028664581 -0.5150274444291905
Ni 3.373009517476746 8.464220954808946 3.466355662293939 -1.1043386871736207 0.41964028847643214 0.9586301572584909
Ni 3.210634100301173 4.11749386920608 9.459044879160594 0.4364892417129708 1.2236792686181828 -0.1441177883892421
Ni 7.284381172484966 6.20535395722644 11.263979697460588 0.608381886222636 -0.568612319634182 0.2915173328535496
Ni 0.4281528491325712 -0.034207728598007685 0.5629791175512074 1.6364302861739495 0.4448957206091112 -0.4161153060423092
Ni 4.876022529450964 0.6809232023313986 1.7190251756419044 -0.9349035030655125 -1.005323704660288 -0.792174881714313
Ni 6.099273641130945 5.6991967156583145 0.17251651406042862 -0.20786469172890007 -1.6857407023733035 1.2519647458264374
Ni 8.009725733848695 8.723183859793519 11.252528463338484 0.16024194764461436 -0.16943492699779206 -0.08361201769470117
Ni -0.1540376856643409 4.970588144568571 5.6080048172602925 0.4259299781398858 -0.521620781375992 0.7753665519077227
Ni 8.21709915177486 8.682184270957293 2.4815341144137895 -1.4536870721030255 1.2120596821013836 0.9340511823675463
P 8.560590841969544 1.642522227680318 3.6362247017988216 -0.7832269284924059 -1.0031192408098015 -0.3066724433274331
P 1.729408353248106 3.2356400414799222 1.4898517994234302 -0.0630925575851107 -0.5567057980045832 0.47158891362958133
P 4.709485499874721 1.061392496044361 8.220195427667733 0.290176502554939 0.6787331822526891 1.1930926540805775
P 8.627013439893954 1.479666275739526 12.54059646149155 0.23848627326949892 0.27128789318055213 -1.6469977772771505
P 6.442012795749909 7.792333619402399 1.5272464708511444 -0.8593871178947522 1.111933211691427 -0.22676435684688043
P 1.5460163401144684 3.37678126204903 5.959142450238166 1.507263976888217 -0.43129021401053463 0.09905380617106811
P 7.0088262180598155 4.016690368834311 5.869264315754864 -0.19361229557494397 -0.9531897029692099 1.2708286726104758
P 2.439783803340582 8.526962475097903 10.238631842154486 0.210705760722121 -0.3328341893244655 0.262947748745973
