# total energy = -381177.070499812 ev
CRYSTAL
PRIMVEC
9.14395178069544 0.00000000000000 0.00000000000000

0.00000000000000 9.14395178069544 0.00000000000000

0.00000000000000 0.00000000000000 13.38309771586665

PRIMCOORD
 96 1
Ni 5.27397546463931 3.316026749434876 11.791486334783412 1.083633336305469 0.7479850745709764 0.4588408699352936
Ni 7.10746584960371 4.521821407585855 0.838835064131807 0.01677130592106789 0.8248271205316955 0.40132683487922494
Ni 5.95039016753964 7.780963631826163 6.6018418815666084 -0.4831714762608582 -0.35576174465491633 0.01002524544648596
Ni 2.6530079361680534 8.657694890495241 1.3269474497544875 -1.9531053492400494 0.7517260296706473 -0.4073157054728082
Ni 4.3102395029922045 7.353886211196445 0.6100561290714431 1.4303620242238397 0.7176087762719641 0.9223809451184696
Ni 3.7804297819990453 3.4315148627940446 9.998285116586377 0.09255817114439543 0.03900569183923605 -1.0354290086861007
Ni 0.2276743456625976 1.4887359639049589 4.905828985654657 0.10551473130506343 -0.48761819917830207 0.3309020052987591
Ni 5.404386507610686 3.1889806807878216 1.134864108337962 -1.5376392467459647 -0.5347969137466337 -0.3363792263632465
Ni 1.6096007210214665 5.206904576952097 1.777743367394684 1.276425707082279 1.2055010550472596 0.002145071367460822
Ni 2.0442584778328747 7.736240562749385 7.956144378029354 -1.0249558770689187 0.40858120244879315 -0.6502633569477704
Ni 1.1672986203645896 4.177807646635843 9.496123963159658 1.7212157553514615 0.7238131053104631 -0.4511401588569262
Ni 4.067659601226141 0.2531713413309037 7.46163945558566 0.4752445081042976 0.29453349397205403 0.8890813025250753
Ni 2.048007498139863 1.1800727212642539 6.609858384257185 0.6293204361475161 -1.3217825379505237 -0.3753628067152955
Ni 5.721096427983462 9.072848597758345 1.956448192686443 0.6196057799629135 -1.2137486397680322 -1.2360169642479293
Ni 7.364621210807187 4.957082665227169 11.818024826580903 -1.0425645912896173 0.6032293954874192 -0.41730675524724903
Ni 6.295583498293557 3.8683305922699627 9.649213835802719 0.5732559890537805 -0.3856577608834003 0.02520580984166627
Ni 4.2410014986885125 4.811675541027841 6.339600654278384 -0.6075588761007086 0.8083957144485496 0.4508825343201654
Ni 3.5234572998349347 8.865043145327586 5.218885897216113 0.4395681377486107 -0.22676641372940948 -0.7664718205212542
Ni 7.1466385398357515 5.672798073687095 6.171548533029653 -1.0920714397704934 -1.8923751212395281 -0.8493104503850405
Ni 5.800283052028624 3.342644793614491 7.376121559197672 -0.3766118486310482 0.6958695848226596 1.6065738649341492
Ni 3.788604475058673 7.904297255974102 9.317486803112464 0.8004921433307568 -0.9792552897080102 0.7661103234167773
Ni 7.1400914702264755 6.923462104146343 0.38050178688417063 0.014436744250620298 0.29371176940170707 -0.877853809240372
Ni 9.042755851830789 5.464361688570527 0.07565065781903493 0.8880214938019932 -0.6698988717905108 0.8645311239895369
Ni 3.1154907388188877 3.0925668512344506 7.558011222959976 0.002731797108866263 0.13660219673848734 0.28834407733189055
P 3.779277644051044 0.1795378393160677 2.9994064397913878 -0.4956346417248754 -0.6504698165316216 0.5931637837213011
Ni 2.744420023994784 2.0066768352433115 4.43829049196057 0.09849716233664974 -0.3003457297784569 0.17020651505649395
P 0.32604040896119285 1.661830974664188 9.296649565367185 1.4409449419460088 -0.7702523706096089 1.1926385972622944
Ni 8.011427797234278 4.780640968047555 8.049050587607699 0.4371986090751696 -0.18311422425709753 0.6257897972864384
P 6.483692878184675 1.9433823997189912 12.98541945844116 -0.5201444539407816 -0.31275798739988075 0.24250567884153715
P 0.911120747626521 6.3748341300024975 9.22253417708362 -0.44256013049739906 -0.21136422024172632 0.11070810258054482
P 7.644206686188813 8.887692714352974 5.567328988499552 1.1842408601169023 -0.7152582737619165 -0.5320990551994964
Ni 5.239265022967783 5.786045918814039 10.399604024521498 -1.2414214230929521 0.21593024234585392 0.6492922512837528
Ni 7.389264161361657 6.497225927097705 9.594222108665583 0.721483428736022 0.0384341356064822 0.18965176826529917
Ni 5.321359423738852 6.301179596898134 4.703275819234471 -0.0757272156299857 -0.46090520866349005 -0.39946407063887335
Ni 0.29570717709687216 4.98835498095863 4.968515348373089 -1.4016469156773343 0.9911073039505899 -0.47629943173137324
Ni 6.524895525753671 0.8154046016083284 7.120129308684559 -0.7591202652521893 0.5962179971665924 -0.35437746271288
Ni 2.298917540149015 6.175194226679399 13.230008286454652 0.5472263977592382 2.1809032895577665 1.5287432298079155
Ni 0.7270904847084454 1.482682667701968 2.4307321797475185 -0.670701055976832 0.6870152197558232 -1.1245550142204956
Ni 2.5179334776928637 0.9944047765486623 9.412065441505804 -0.46252268966225507 0.13249768765181053 -1.0141646999906857
Ni 4.332459306275085 1.0016833623154002 0.23055560492779745 -0.5986867704220593 0.3543890326771058 0.5834095325480145
Ni 0.11431677311203421 7.528956315580819 1.592709098550493 1.0710914950847166 -1.4805376166369664 1.2923264374729357
Ni 8.31836283295298 0.10793886661417038 0.5755605702711689 -2.151956524616429 1.9769937258218728 1.3500294486113589
Ni 2.709837597650811 6.305879588209822 4.939500674382592 -1.3292685619149236 0.0347541156517337 0.9690310408768408
Ni 6.134915118259198 4.345864339860559 3.1311095231758785 -0.48636967148318166 0.405537787636779 0.19508656612762532
Ni 6.846314581390104 1.4545467274956212 4.55366613471053 0.41488400473836934 0.7349025303554053 0.11798355319603553
Ni 5.521127342389507 6.044399137725358 8.074651824328443 0.5825183881923129 -0.2778462631243602 -0.07115836531238068
Ni 1.2170874388317847 8.133033214460216 5.732328858581277 -0.5694425288449613 -0.14814336460886743 -0.014475567908355715
Ni 7.202087464571301 1.7915013575261336 2.0919524169041406 0.6831310542100687 0.5840050000401684 -0.8089410454290584
Ni 8.59477535700162 5.205103218414349 2.6175202585792223 -0.8261885196555966 1.4519178960177446 0.38850011542820184
Ni 8.656853646914161 3.2414303892777814 10.643096492693996 -0.8615797546706967 -0.5209574367603802 0.08955949352738768
Ni 1.0950522558633393 5.2621523347443455 7.18881136070858 0.4468782982567787 0.9634861997992116 0.7238874101918242
Ni 1.586612825773252 9.048708564562128 3.6424777218394433 0.9639140313652496 -1.7457988440074643 -0.29808752987189957
Ni 2.0229896455546936 2.3555094588805985 11.270562706313012 -0.31046507760064596 1.1120085450140524 -1.0627762903508018
Ni 8.137660054156157 3.195225999982146 3.77213347437824 0.3919790751157378 0.5059702193229285 -0.23271671777557343
Ni 6.269395219856451 8.965032260100548 12.74881970126234 -0.6980167130726495 0.33083052863087536 -0.14781272074232607
Ni 4.41373989532098 1.2192545554482632 11.277026565959376 -0.8896366608079129 -0.6777636192505683 -1.2856377125988503
P 3.896749994987326 4.9679548241174345 1.5482100562969385 0.2527569242559002 0.19281371093304858 0.09292301068298191
Ni 7.832471513263391 2.3875864423852664 8.195742437058566 -1.968288998959023 0.08535908229279493 3.979531875771753
P 1.0820769880203733 6.82163505502776 3.4907137222317797 -0.4064376737432291 -0.2833396821387636 0.04327063776317709
Ni 1.928322310827261 8.112020412837145 10.671601848559858 -1.2735918371779098 0.3994848965744797 0.1159878629222454
P 6.296589333010066 7.13274887679596 11.679924634399416 -0.20785415020593878 -1.1487778913236022 -0.35504517820386594
P 5.481159128336227 1.7035548274953745 8.934435682419542 -1.0789418443670709 0.5199590774028529 0.3182076976605423
P 2.3958800068204815 0.5269915549965402 12.472284648257325 1.2457169651445128 -1.929898572106283 -1.1148395867049445
Ni 8.48561485840449 7.3097300671417 6.925846846819666 0.30724142845702573 -0.017622083957137394 1.3474511463612213
Ni 2.824667346468265 5.814511041291243 11.109470046907326 1.5154861076876933 -0.2922135875896258 -3.35324894089898
Ni 8.14885225136531 8.876911994982391 3.2088651187380077 -0.2002539692611777 1.409228070458702 -0.2636411752685717
Ni 8.352890395585144 2.920285652200397 13.011957950238651 0.49913082780359197 0.6773247319409367 0.7541333535605592
Ni 3.571545343236033 6.813542657535846 2.8739002126557898 0.30813848634999835 0.07236035604028183 -0.7550131850623514
Ni 4.832414024091864 1.9629596008830434 5.820617372415649 -1.2170543071024973 -0.18840992543839813 -1.1098256784301208
Ni 3.3696103079689 3.5256061285474765 13.235402303720731 -0.01337179332121568 0.9514647498583032 -0.5017631232201165
Ni 5.023330597237238 1.825416275376423 3.0637789472527666 -0.008132656409463413 1.5841268487845428 1.3289088645826597
Ni 8.907599097787886 0.5779041651606348 7.192116899345107 0.924197429501918 -0.5580548558333098 -0.5034513095558169
Ni 1.5566023754134108 2.0869058698128558 0.09890372767432914 -1.7613056813938117 0.41328400724110115 2.375095626005897
Ni 3.6482813881537 4.394382149004166 4.125393599558559 1.1082398220002396 -1.3020917443898157 -1.4757797902370067
Ni 9.096311978508908 8.448206950902323 9.220111029812031 0.30188222102764134 0.2809835232017613 -1.252731448789133
Ni 3.928049742574692 7.832992718525583 11.711669692447638 1.6463159207187776 0.6248130351954658 0.8000290876514093
Ni 0.7233752970237399 8.278275747524114 12.861411010637962 2.2078895883386234 -1.488485153618817 -0.8780486988599974
Ni 8.965937511345405 1.0163045415126535 11.895633204516344 0.814618812540126 0.9000303453374112 -1.3038969159193543
Ni 3.3107872649570607 5.510831252473241 8.569452096420711 -0.7214332922243769 0.0023337903394992066 0.28849782930093537
Ni 5.87561092834318 8.67961294336317 9.114960154152985 1.3363246974307565 -0.24710435395581315 0.516872210947413
Ni 0.6380631395550377 2.8024475431853846 7.269002905075054 1.4336165266053955 1.6147060071229804 0.17952804956773596
Ni 4.922491094931227 5.525589590950019 12.9160278357444 0.6933573599237672 -1.0669700167171754 -0.33308384344142633
Ni 7.787538133291345 2.993034934059902 6.136003248543422 -0.10722965711364114 1.266294532185548 -2.017128646169545
Ni 1.5568401181645857 3.6888805348927907 3.3139364420149304 -1.39785505273507 -1.2196560063914026 1.5853434948004632
Ni 8.103580545170438 8.212119255033727 11.14021109902943 -1.2582212682591103 -0.5245605807306062 1.1964715978551395
Ni 8.129403065528814 6.968852681716803 4.445463922279673 0.11342010219506918 -0.359516069491026 0.39182532314669294
Ni 6.60578292486493 6.912873407767094 2.6109622162275836 -0.5185642539378552 -0.7405630710752923 0.3755116735883339
Ni 6.802249876855041 1.5312187647495112 10.650282724545852 0.5749763141789969 -0.30395735838911525 0.4529998377734844
P 1.8295219098101734 3.8382287023904396 5.677203629745404 2.4522402908086995 -1.5261227614659332 -0.2143850093459211
Ni 3.039586793530332 2.5278729534823663 1.9677034831641784 0.231058356236544 -0.32792183962451266 0.19829504576259396
P 5.913119419316997 3.840679281517934 5.241838131051652 0.07255627410117181 0.3864139223231345 -1.0281083066549714
Ni 0.425233999912916 6.224919037482816 11.47010476935005 -0.1132007870954115 0.012047932303469573 -2.3399501884530154
P 9.066036353541987 3.3092236491704874 1.728038673285597 -0.28378833964040806 0.36227563451403416 -0.7677267759742779
P 1.7059322550071232 4.490238197487473 12.205077340655139 -1.9417547001139204 -2.614200506696001 -0.42232400595618236
P 3.6963694315547984 7.136287586207677 6.638792591470361 1.017064904356616 -0.07305198279066774 1.1005995318461625
Ni 5.822466279503632 8.590212524969456 4.278081138315018 -0.8233266247267691 -0.567902180941035 -0.25494056217078026
