# total energy = -340890.1617412133 ev
CRYSTAL
PRIMVEC
9.08901875885492 0.00000000000000 0.00000000000000

0.00000000000000 9.08901875885492 0.00000000000000

0.00000000000000 0.00000000000000 13.30269768567980

PRIMCOORD
 96 1
Ni 6.5841214382027315 1.9873775425219828 11.512978982847416 -0.9460186391420675 0.04329789145668673 -0.18477104313423018
Ni 4.548735699375114 0.25910610696753217 6.054243468879881 -0.46060953179994224 -0.5278909306554198 -0.8193558130044791
Ni 3.03308731180556 1.7721950268961033 4.642760688008616 0.004673751326585499 -0.13655206022684224 0.6528036068711208
Ni 3.556160332894024 4.376707844116359 4.917528082945522 0.16865922517403212 -0.9269140571021327 -0.4593201235645573
Ni 5.183640005458755 4.598098159453853 2.430149993080221 -0.6441238197089358 0.11874794216588581 0.0606572086707407
Ni 6.98239314473749 6.2745494642970305 2.4760840753387243 1.1109299672378932 -1.1678017407242725 2.088742610962106
Ni 5.079325338855239 4.591763113481678 11.478312556961516 0.1994906087325919 0.005270247260003827 0.2907141202259638
Ni 5.632292142156734 7.823327324705288 12.343945236104044 0.2435685728884128 1.5054066119645042 -0.005064044786468698
Ni 2.0349585549528797 6.356968685065583 0.3402874034012061 -1.004255925517406 1.5130754413636716 1.7612825414653601
Ni 2.6527845950656213 1.8193034103592052 0.19890862780209342 1.0527803554803545 -1.2498911511268604 0.9414906693647269
Ni 0.38010094052676485 9.1181034709982 4.863133942163489 1.01878805769531 -0.19031074200553677 -0.3219975037202777
Ni 8.76035969845186 2.3847312581769864 1.4317958285659766 1.0134409344507838 0.8264870247326217 0.18885472628530056
Ni 7.047225114492903 0.48150439446903526 4.683959391570559 -1.3207862354755253 0.3658553814454925 -0.39508908149962924
Ni 0.7747015924443625 7.570716230437492 2.938991428826889 1.266610006543438 -0.6813091705099815 -0.042872116773177774
Ni 7.534114752489217 4.209624414982228 3.821319726256776 0.3557373191748841 -0.20726433914073983 -0.1497294781490647
Ni 7.626004730650891 3.964729897515546 12.640994360166903 0.9935303115697857 -0.08087919214457039 0.24834491123113359
Ni 8.04047306835124 8.758369203375953 6.849053606100197 -0.20294488582977954 0.8793275655724211 1.193981484443434
Ni 7.0188582874065935 0.8862783849184194 0.3660729492018659 -0.5768154242702647 -1.2602871496492036 0.09465824820653376
Ni 1.9227182641201876 6.235103123523373 9.337416036681118 -0.7073978971772333 0.9123585278854609 -1.9085242201955648
Ni -0.2365771565353519 5.188057268503915 1.5060912844996224 0.7189539774459489 -0.8021263365000701 -0.38054795046066076
Ni 6.278421386225505 1.9093119616683112 6.676384066127474 0.32310204963836614 -0.018662352296193663 0.977697458302587
Ni 3.404337366008504 4.40704698824135 0.35721479166315495 -0.059778919830845434 -0.2057517591509553 0.41976035899406416
Ni 5.85527303575123 5.639445199803938 4.908349083049828 0.09002074943452239 -0.4434718436783911 -0.8605898799536017
Ni 5.051076669010878 2.8022080610377214 9.268827575533596 1.0005666495912768 -0.5241049812504265 1.212130387438319
P 0.17637967736991314 5.719164982044893 12.683137412762573 -0.3876830188435452 -0.6564484027125598 -1.1178056113118038
P 4.103628279935596 6.343971388451221 12.79586487499284 -0.08658472716977991 -0.6929637240297744 -0.6207468355458923
P 2.165704087678467 8.338474721564575 1.4462955399568094 0.9567529948404361 0.7337370492923944 0.6541212972412799
P 6.332391978740245 7.916980572477582 5.913554549793377 -1.316220984702346 -1.5320969767714967 -0.08300652290021833
P 4.95853228150918 1.1240298426583695 12.788894506619725 -1.0049372678551465 -0.26097828372442794 -0.46640197011200324
P 3.8272312239616575 6.2516814934706435 8.145972942981686 0.7361088919586806 0.5174913325886507 0.3210202274086729
P 4.998105868543397 1.009126469372525 3.7836330194862944 -0.40346547848878256 -0.6216708900220583 -0.3262022858302447
P 0.15160755714442908 5.660468099852203 3.6414535013475136 -0.027677154200294266 -0.7460132955565861 1.1976630470600793
Ni 1.6468847273001581 1.1665119156482477 2.76504579064112 -0.8651098793111422 0.25930115313232116 -1.2529641336252293
Ni 1.9286806603292932 6.472299242226165 4.9776037692615684 -0.44741308771432625 0.5968677149354494 0.2386112288831375
Ni 5.982555652385858 5.492812062545551 9.328436995194876 0.7302663171349746 1.3042429864048635 0.5511547862793669
Ni 8.626105804542256 2.5861984447182005 10.338231507435342 1.5087143361814985 -1.5199680547184466 -0.5140493967866372
Ni 2.580181514397426 4.917640786776305 6.928310757293829 -1.305963568640396 1.0625065816291832 0.8953915610138191
Ni 0.4970520697057672 -0.2919320065846146 9.063167624706924 0.1403207832406551 1.7255807171883766 3.076212575270425
Ni 1.2641370645537418 0.9398408804975058 11.232890876415372 0.21321567162816826 0.4510529984597587 0.3071486116329033
Ni 4.142620169778681 7.106585495044228 1.7850223588624308 -0.6887854242823686 -1.536507961354999 -1.3435171014141378
Ni 5.584011275292757 7.727710848912923 8.114499489333987 -0.2550151241624576 0.6700384826921686 0.0637831558942321
Ni 5.5200609403426535 2.991814078291004 4.548085834544396 -0.5094118980146258 -0.38488488727311776 -0.5678898396458607
Ni 0.9615454569416283 7.668832186348005 7.264403578605855 0.9989795076098149 -2.6790974644797023 -1.855755156023649
Ni 5.118635344349724 4.368373214049667 7.564325741451787 -0.367216009238445 0.17524819124545946 -2.1695531546522697
Ni 8.220526527043896 7.03535485618636 8.865994999459616 -0.5396035911066578 -1.4424657494659092 0.35177987718903286
Ni 4.588182040148769 0.41724503288614323 10.532357493644094 -0.002737196425504963 -0.9086736228347061 0.003706245206993617
Ni 8.123910259204274 7.047924968925984 4.935673399701405 0.38172423015694906 -0.18971373185148618 -0.5886638389684185
Ni 6.952281226077783 6.01711210114656 6.923960752986393 1.1597256485843574 -0.25172051257158584 0.8431565149685027
Ni 2.1800011139542645 5.330336765847421 2.829576913880494 0.2760086956949892 -0.5702891931159727 -1.5289167792713023
Ni 2.427176975092418 5.437596274481043 11.561294387982118 0.23585474918392285 -1.237485835483972 -0.3817777091027038
Ni 0.8321341921482007 3.4009380730478243 3.762588305793363 0.3626499871343174 -0.11492805419916335 -0.2610479606200988
Ni 4.030334433852931 2.6156559540378823 2.5065204719628587 -0.8114599551961702 -0.7971556227583562 -0.5599279044863067
Ni 1.3354676826163352 3.3005407734658405 8.275408748125365 -1.3222666766757936 0.8653381932718645 0.48947556410201504
Ni 3.517504736739563 2.538190248412566 7.135806689880012 0.13145484820959297 0.2070851332503982 -0.33314812102045854
Ni 4.13763938757961 6.822871779088079 6.082006785130391 -0.06342885787860689 0.6582612875515824 -0.10398209671062092
Ni 0.8693828082216106 7.301099582347689 11.226518565466888 -1.6769480437823376 0.5104002300698242 0.7116451024893614
P 0.29972947565137037 5.394996044249217 7.71749297418994 0.48831959612070097 1.74714995871872 2.333151163253311
P 8.518673604555016 1.5244738246412628 8.179336912500567 -0.3123394118052234 0.35417357423219004 -0.016942027170977272
P 1.9140291623276493 3.4028740340120613 10.600214288793396 -0.11530677769482078 -0.006420301704047007 -0.6806365699229892
P 4.088040613016974 5.957960768023297 3.6475867711065146 -0.48544047480069297 1.8671109473561005 1.0351618710676431
P 6.939747469412605 3.8018092389054554 10.307063444812986 -1.347544734516292 1.590909676034331 0.6852218753008263
P 6.550173953688997 7.705079192570434 10.162995228606748 -0.7102096555944155 0.49020550028950416 0.2546063187598131
P 2.286787993620092 8.854467397154725 5.908951870768543 0.9549843329757877 -1.2385070776596347 -0.9724920028422476
P 6.992718269880088 3.954686531949903 1.6238340671996814 0.6358546377216082 0.15315727288369108 -1.4699516135910038
Ni 5.336026491498184 3.2119046639670623 0.20149081798960394 1.0202260756934172 -1.223497748734996 0.592899731426637
Ni 1.4371738008783665 1.0259502428223035 7.4339992124841885 -0.2522337047625785 1.434053357032498 -1.5773175391721932
Ni 6.716193967645589 0.7523298820341602 9.349800733441068 0.6979791749664946 -0.2959817963828064 -0.983163623623481
Ni 2.7088365728423818 1.7099716054821743 9.427329153294805 0.3171026375218216 -0.647535416493646 -0.4005753014251811
Ni 6.584584978151915 1.9354156231203714 2.3959752831012007 -0.34018548748321414 0.22362401144568583 1.4293479811370289
Ni 4.07755188553937 6.881632284411048 10.427572015876507 1.3651837877542938 0.5305437948972347 -0.08615098206647098
Ni 8.228597575570857 7.531633450408294 0.17627151804843696 -0.6837154659586289 -1.1237597720127097 0.18595375058842167
Ni 7.684619811676079 3.8600789372234074 8.208841684717028 0.47879674423193025 -0.544668664334391 -0.478798286893827
Ni 3.03800447087435 8.52190929518069 12.536368849126875 0.7302616891492844 0.09540669633678409 0.8674935490519705
Ni 0.21631864295230976 4.887201663446587 10.430153297162155 -0.4707946998630602 0.14841127355827344 0.04992156742079144
Ni 8.518528180257233 2.0979818100046157 5.887148224021556 0.9680830751412747 0.5048358486081693 0.08395783106989411
Ni 3.712882280811111 2.430030926936411 11.441184824835638 0.4364249641339387 1.0894046915716078 0.6560807349604958
Ni 1.1698657635158694 3.405646184688551 12.713095727007746 -0.9363682605364971 0.8979852898829244 -0.07845387053252939
Ni 3.1092714658066636 8.589922421450106 8.247606349094827 0.9658608706789752 -0.5631263568189463 0.034616561632604896
Ni 5.45478360867528 7.7406990565086735 3.6949841853614607 0.1187944791331051 1.2075893050348556 0.8218083883100298
Ni 3.050120132683402 8.548158380930532 3.651989491721897 0.27159462578769356 -0.34197009018746266 0.4612759617393475
Ni 3.600023936712841 4.602669935815408 9.497181896931178 -0.5153760860178608 -1.3796832669220498 0.1560767605233312
Ni 7.326067116473319 6.124735170524639 11.40945778756868 0.5542766197378003 -0.1496762563136261 -0.21675505223999442
Ni 0.6263669909019135 9.244804390441695 0.1529400072728664 1.1681370125765045 -0.32173268009466527 0.8281176183575092
Ni 4.745776533852556 0.2545016101389759 1.5563090212296984 -0.3160723964850944 0.9249427923083748 -0.13030350821396913
Ni 6.160518636797884 5.823325135332013 0.2129947888461056 -0.48216360382163415 -0.6530370630381657 0.821202636405231
Ni 7.9543273499519955 8.98230444392465 11.515892013312383 0.2547626418320193 -0.3877123294195839 -0.7277350660726886
Ni -0.08690465145329873 4.483294765372734 5.931818932693069 -0.09551236867671292 0.12820651647562437 -1.3265408785711152
Ni 8.068885340530606 -0.3809698507060187 2.479676055493966 -0.7690696631554174 1.6847626547307502 -0.17655482587202498
P 8.545958838426563 1.644694273814801 3.588376359362278 0.5192432822827509 -0.2355773271528201 -0.27187050515689953
P 2.0577447246117635 3.2755005271913187 1.7079465721355451 -0.8571834253752141 -0.05957760245331675 0.5468389325128324
P 4.864188268322416 1.083038368720768 8.051737089116399 -0.5920358407644448 -1.522646115771242 1.5230127550820416
P 8.68558434233553 1.775603408875394 12.602284229900773 -0.6582718290745436 0.8791966964215117 -1.4419438155241682
P 6.400414194028274 7.847876763974792 1.4156728184511402 -1.102709379100314 1.6155917521620435 -1.5809649061167934
P 1.8433165975306338 3.1544257102683058 5.829574744529241 -0.909479406565453 -0.26524425808963353 0.15891885795781663
P 6.696198126700417 3.9074690802634637 6.057143774718793 1.021175326980564 0.9349479831502027 0.12904135367209388
P 2.517649066350708 8.365623620156951 10.431084012667966 -0.40301887786966717 1.1174443713176434 -1.2703260219424446
