# total energy = -340868.11500752793 ev
CRYSTAL
PRIMVEC
9.26001555367280 0.00000000000000 0.00000000000000
0.00000000000000 9.26001555367280 0.00000000000000
0.00000000000000 0.00000000000000 13.55296877951455
PRIMCOORD
 96 1
Ni 3.6294352352173993 1.877236611224087 4.93174897759736 0.05787141839548743 -0.5252126124923083 -1.4347097596695744
Ni 3.5933119153486848 0.3375997875184882 8.547694222457224 0.632832820176149 0.20128960961454365 -0.7756388317325029
Ni 2.301048993626376 0.4265413089250549 12.344734809454103 0.6152711571433016 -0.3359146280220021 2.079329288068006
Ni 6.929306524234452 6.143177521349417 0.6214590759705613 0.24493074334326206 0.928814102338323 0.49613703528259073
Ni 0.20382960581547596 0.4862730379209902 0.20817903502396998 1.4654210727105021 0.9597722412827342 0.910636917208664
Ni 5.1797192245689985 6.751745729955395 10.33125188842321 -1.487533331228509 3.249322637126959 0.22823939873051016
Ni 2.1386838845317744 4.740183336107474 12.105511572979259 0.8003155085435765 0.17980855692263228 0.3696089349506538
Ni 8.530807658470403 3.590302410360904 11.03874391497984 0.6065687442732973 -0.6625390889913298 1.2122396593226734
Ni 4.505238226722951 7.503557115964384 7.8020370426478625 -1.6649204231938424 -0.5917113675454906 0.583938408468291
Ni 3.7379533550690955 5.837069194023065 6.095257867930137 1.034569488899283 -0.805299334911413 -0.39405961179385035
Ni 7.5977314720435505 1.3018007375297367 7.629128480079148 0.35687837475786277 0.6123236444792034 1.6054968298198866
Ni 8.50787986047119 5.392366216997904 9.342495229714743 -0.3838631308768227 -0.09459859861319192 0.7173051289886163
Ni 2.1371930220609046 1.4590080180760496 10.306246142980125 -0.12295992336470436 0.8263247881231447 0.40031047779956863
Ni 0.927372016973091 3.2614422253269306 0.007533022484798593 -0.48035020476197915 -0.8267806447136407 -0.9732239959122657
Ni 5.380031876555677 3.0518232579164994 9.603104471633523 0.980392745746563 -0.08573883422971686 -1.0506581669310293
Ni 6.676406245092061 1.8819036589589837 5.536441869780612 -0.9769569805921369 0.3403747206758848 -0.028214000540370765
Ni 1.6878137372855007 0.06898433633067497 5.370391274577898 0.956374528455095 0.339049574106558 0.5592331924121272
Ni 5.961366380026078 2.7681519477759706 11.868944108905936 0.801782065786774 0.21710600782150996 0.8585597368974504
Ni 3.6799393589200315 6.873024150955281 12.8291854763548 0.709172986799785 1.5723221428401308 -2.2457033167522873
Ni 7.6432166674281 2.0908003451723474 13.688633428754448 0.15030052016118634 0.4837273487643282 -1.5130553867590135
Ni 3.618480637061878 3.001754354935177 12.642262806559907 -0.9329417513534513 -1.601364809929384 0.12106784854831408
Ni 2.806405071174499 5.156346945833127 3.8879267116263185 -1.5694299088940002 -0.6087888918530676 -0.6866943460812948
Ni 6.426163590354265 5.195813131242114 10.84469195936928 1.5884349892415934 -3.2544928684739887 1.0261840930490649
Ni 0.823212586345236 3.265359211818719 8.165175952493424 -0.40500274106891543 -0.3347907988302041 -0.5026010457403796
P 5.312322644338287 8.397574557657519 2.8277725565877416 -0.19165157230414734 0.21497610596270075 -0.5340086135173835
P 3.5727732013090003 3.0509991165506154 2.4997504029426736 0.06488333093694632 0.01572152450031486 1.404115688932801
P 3.486701358658474 8.006135188908402 5.474612747308577 -0.9114159614665335 -1.521578079518044 0.6731729145560922
P 7.6981655984973 2.950527950035477 9.233569669187778 -1.8916019905189292 -0.24212027047766047 0.7530735448374772
P 4.78645563279652 1.2311375604166472 13.235138067157296 -0.26265669986811535 -0.04775078502171776 -2.664722426704953
P 3.2125771243407204 8.837082666073002 10.544453555771403 1.1084964180957362 -1.2853834304961993 0.3911612072001328
P 5.845199487497745 5.1985818758308735 2.2804769435314425 -0.45571183738800874 -0.4568665198177422 1.1965034795343394
P 7.263500478108307 4.2683114740541654 12.831584746331213 -1.6918092771648865 -1.8172821967594317 0.4216485771557125
Ni 1.560784846755117 8.245302865291166 9.378355565147602 -1.8588847027915663 0.22569914880715966 -1.025768345667885
Ni 2.141258168798245 1.636105811587756 1.6891203254509648 0.13851329771827114 -0.6307643676828943 -0.6198263806141519
Ni 6.4248394081596425 3.206465514211689 3.147555148577034 0.6220411288772836 -0.19288158805650651 -0.06384460525978682
Ni 7.894089003209493 8.250544033977578 13.234338001831313 -2.5967882247568244 -1.206189853584168 -0.0134358137899317
Ni 2.986021588860594 9.080482169469352 3.425119478596205 1.456093367551673 -0.49791675289083276 -0.23410665614456458
Ni 5.135511911302338 8.70402550555171 0.5959264356542305 0.09344160219061326 -1.1775608769935655 0.6190226537659339
Ni 0.22599345254856193 9.329372861966483 7.323265543159492 1.4425403114575865 -0.4863012801390916 1.1405323634853584
Ni 9.231892680408434 1.5782399756842447 9.691470020085507 -0.8365171552751143 -1.6440183829338524 0.07592184813929505
Ni 1.4526371275173018 2.5482914033917385 3.7973924675800643 0.13087197912292944 -0.2158078578353767 1.149787306424723
Ni 0.23003915325367374 2.0879667804761604 6.123299046403973 -0.33091666058677843 0.8151407464818671 -0.8857866909342036
Ni 8.020821573248773 3.9471741418196045 7.530219478153051 -0.6971510226382445 1.070234289290744 -2.3513152357568474
Ni 7.200199013196096 0.3175851903474449 11.208617044517805 0.08114041622575703 1.2892768520133344 0.34467154827902574
Ni 4.951450586249674 1.2902812784380469 2.6522211856389877 -1.0946366293945085 -0.28075418079977454 0.7082820995543996
Ni 2.5455226588029807 3.2923428965399277 6.240016909845454 -1.31990794663563 2.2041298641858753 -0.17383228473453932
Ni 2.329810601294212 6.902758060234554 2.223052810359984 -0.05376562375722998 0.5696055367853868 -0.04446182985780085
Ni 8.868992678958824 7.132017520196007 7.867105318488285 0.19988013086152673 -0.7989183710857337 0.38361656208365547
Ni 1.5482653060059495 4.595671536601922 9.864676755148395 0.47933873277832934 0.03400181086674144 -0.1116324141670271
Ni 4.512146198171825 1.2081634623406974 10.872638685686578 0.26684682669006304 -0.2535269696527053 0.7846099248828616
Ni 0.7790274971154081 9.095779714822624 2.9195670887227245 -1.50092337938217 -0.13726399869220232 -1.0194331474784766
Ni 6.452137933402649 7.9381018561538665 6.989211415517377 2.6664998303203493 -0.27620564219714366 -0.9488481381710626
Ni 7.901043274735103 5.4987545333197865 3.17459346738879 0.244244773019831 1.1465068359012385 0.6334941079092317
Ni 0.9278535377711359 4.151042639699538 2.1389431649614905 1.5799750313996983 -0.10764951825987913 0.4248979373309456
Ni 7.610630673421945 7.234988890854841 10.815160844426108 -0.05905489718062733 0.4391701309792436 0.07283241058069392
Ni 4.314481910574394 5.052199553225223 8.732177804209712 0.18721333402713566 -0.20425640555235144 0.25007166411425324
P 3.4461795314999266 3.5018137037048063 10.528786535805786 -0.0993908777955127 0.31779657826505264 1.1596657418806997
P 0.7982123969113586 6.408421400949381 10.888142729382091 -1.7918390740959784 -0.24832408529552716 -1.629693481670748
P 8.620639067351819 7.344562652456096 5.828996312643535 -0.1691958144037925 -1.0562032651189746 -0.8444742053386616
P 2.400020037655297 5.020817361214181 7.880074895983317 -0.40975928191729427 -0.7798302441060312 -0.630587732895714
P 6.239194620482639 4.067489521223401 6.215500093212691 -1.7432660502832817 0.6226394245829148 0.17085314750155736
P 2.1580187965763464 1.4056795896925767 7.198497022375315 -1.5237699449630402 -1.1614030362867804 -1.086722259643438
P 0.4825116196870317 1.7962670370297675 11.854306802646907 0.11394794967408119 -0.510933476865475 0.9231422487645263
P 8.453180949816359 8.6680410859132 9.304316186438989 -0.674400102094974 1.1836567054786582 0.5898123507505649
Ni 2.1219232567536728 7.004155228284393 7.189903728133283 -0.9574752177184414 2.4010845938704906 0.3924734982536531
Ni 8.885660706583455 2.0613164563074444 2.1011298922919455 0.9928088600227291 0.5474161451725411 -0.36838406140461716
Ni 6.0070923358096495 9.190565231914695 9.226102392811942 0.1569977296757038 -0.6038091792502891 -0.08083856871462206
Ni 1.1420747328090346 6.967568907648327 4.306875733968353 -0.3250486318417757 0.9325789686973939 0.9905763711477844
Ni 8.64947475514243 0.03740675799581118 5.107422580748695 -0.904720551724229 0.9697427222318846 -0.7742296100898021
Ni 4.788872496802091 6.6126973395045825 3.9483723878055086 -0.5541298097472908 0.38714000185588165 -0.6648649089110292
Ni 8.755103750205858 5.58809516138781 12.424169073103888 0.6524194840588248 0.8762982918277941 0.47032264532264806
Ni 7.860373287331003 4.298489864070095 1.4069472857935834 0.9551745946097225 -3.6405265246395686 -2.0633779069450724
Ni 5.45890868728157 2.6850247900057966 0.9016884384066037 0.30550773359537065 1.9362340274060073 0.8084512502768335
Ni 7.066215851140103 0.4592995392166634 1.8222506400934981 0.37408085467907837 -0.07739123359596994 0.40596150543775894
Ni 2.8508809248862232 6.757255439086871 10.722553282943657 0.6493994662855784 -0.6065458614551619 -1.1560906229349315
Ni 0.1794415033960364 8.556920901748994 11.677468289564915 1.0902382432164965 0.7039438771903619 -2.1676389683486925
Ni 1.4874362651913928 6.849522232004551 12.836951851226345 -1.3029335235648207 1.6134543941040667 2.304342980772367
Ni 0.20354532334432252 6.182430726405423 1.504107996822163 -0.0025723887128665376 0.4801620000105731 -1.431804155987005
Ni 7.266148842497555 7.867003458319467 3.7563678215881735 0.12713359512641975 1.5902805270907645 -1.6636112174641156
Ni 4.318574837357776 6.418292577309301 1.1920538136414913 2.4894832343205575 0.05001541268617838 4.443309006666399
Ni 5.032031239799419 9.310482430658569 4.93141006103566 1.474678843863344 -0.574684493970191 0.21597960752655063
Ni 4.707514001963197 2.668356762381165 6.924983949070464 1.2774970857695869 -0.009920601547821624 0.34698502690355076
Ni 3.031191943723345 2.6672177804934822 8.619186170943872 1.4646530841962258 1.9442957213682193 -0.4129479640579211
Ni 4.680502537195948 4.108178028658195 4.527897484277102 0.8446981484240097 -0.7693190601620622 0.7713887982068973
Ni 7.92551749529727 4.0283659563822525 5.082973362227966 2.1851070432264694 -0.8872077396514462 -1.1050737655674323
Ni 6.843799542520094 6.194468746356545 5.03202753579328 -0.774093341622254 -1.3545067676564222 3.246313675097306
Ni 0.7992189605795794 5.205026846512396 6.468628168732618 -1.5310065719207955 -0.14248102411676752 -1.232745235475193
Ni 4.888065781199341 4.789511437861036 13.233416630304285 1.5125689340408983 0.3165233679795839 -0.7448904948060526
P 5.853255700849651 7.101061288890929 12.724760283286486 -0.5083217502742408 0.9999554983698393 -2.485928941310396
P 0.5859830311746034 4.911688080349582 4.16219818018809 0.08077197714274476 -1.10256616865423 0.49075134549064514
P 2.6280571755909454 5.160375052509079 0.687072766714922 -1.4383314155825617 -0.48537928254545437 -0.41602094655628996
P 2.2576010016181707 8.603350618698938 0.8320753470338663 -0.45566478620015716 0.5765336313637878 0.2947684928009956
P 6.2388334798841045 6.08141321898481 8.564514114333548 1.1787800941126474 0.5347778875832403 -0.12283059687569167
P 5.639867907192984 0.6614151161914065 7.199052623296136 -1.6689794237545643 -0.25975366728870747 -0.5517062879074628
P 8.318373646394479 7.910951491156411 1.7111304559292904 0.24200997015204126 0.7632196321325436 1.1179207967334293
P 7.950065795982212 1.7700611935977084 3.8905695200063573 0.6811564469822011 -0.20343210987884316 0.19132092843760598
