# total energy = -340890.5932134874 ev
CRYSTAL
PRIMVEC
9.10078513954385 0.00000000000000 0.00000000000000
0.00000000000000 9.10078513954385 0.00000000000000
0.00000000000000 0.00000000000000 13.31991897318158
PRIMCOORD
 96 1
Ni 6.28411925278977 2.0713386356539387 11.477373837614708 1.3388932294888813 0.6596545683546833 -0.0688626272996685
Ni 4.665417253264497 0.3682031944496543 5.985758211642397 0.5889109219822181 -0.3288291819301304 -0.3884831461473374
Ni 2.9704961804808687 1.8121846857906632 4.797328579514436 0.0643256586612634 0.22898553286791531 -0.05528206040175641
Ni 3.6838430006850102 4.539407786000594 5.0306135483942045 -0.6564825983846049 -0.012736730840378066 0.07530401204963805
Ni 3.841514098500056 2.7498385506036036 2.5675744018433573 0.11036717430135831 -0.12576114025892535 0.4116994363628006
Ni 5.229465697730929 4.578886990752205 2.429659287816877 0.8084242536936399 0.7366691353375249 0.7252809481052411
Ni 4.973806449256455 4.894511310713164 11.077883054871933 1.1079078925821177 -2.098567567472328 0.3089167592769196
Ni 5.743059390896546 8.100535803543435 12.25818750627093 -0.818477524164584 -0.5387648972554464 0.7201374562310888
Ni 2.1701003530270344 6.57979465232299 0.3207671734891138 -0.7384092579570832 0.3298311408320836 0.008861049935055708
Ni 2.6220453295058332 1.8006812937191932 0.144782566286869 0.26764155467721645 -0.21994424860125347 0.16379521221351145
Ni 7.93608462100272 8.546264943958299 7.402691260281178 0.06045100619720557 0.21769427622481222 -1.0098316198329704
Ni 9.177049443852017 2.5076666653015334 1.042878959598345 -0.7834866099116959 -0.9813715647200646 0.2555715108865598
Ni 7.003782017691381 0.8300771272179893 4.6174561170171495 0.43223972240799746 -0.004177014195825065 0.6810746859016722
Ni 0.7711176924592721 7.55772859095581 2.4234662037151082 1.4706697227039511 -0.2600172053627393 -0.025816961063103924
Ni 7.657809922134573 3.9276803296176817 3.789303805798461 1.1948322624795036 0.271813426666719 -2.1462803001672586
Ni 7.934164355395853 3.9737029986884282 12.32016567136992 0.20863473712570518 -0.5772975061130057 0.7729875101525848
Ni 8.280267203875288 7.084469576319271 9.333440061236322 0.6037698413719215 0.050550202143725846 -0.37080398370001943
Ni 6.948831478666432 0.6472368987756826 0.16901340599437606 0.2030934955925018 0.8687209937011684 -0.047020077503280314
Ni 2.0879202656810105 6.414679112487009 9.183151520105119 -0.40552930299634676 0.9355776463144017 -0.2809889225183999
Ni 0.27095584767837255 4.874607894209759 1.073400261805694 -1.0765849140991202 1.1848952058714497 1.660780947104172
Ni 6.485565125813496 2.0832788653990093 6.844973321768001 0.09196116099034485 0.8707583358461712 -1.4997771815928687
Ni 3.6028278138019196 4.6844469944207034 0.6687302223952956 1.0011356347208693 0.11484423623610546 -1.4825451339852982
Ni 6.35043667211319 5.783639790617024 4.750429504861029 0.2327174891065218 0.2910699609034858 -1.2492360340413646
Ni 5.327563057808758 3.087286552674836 9.091550300265117 -0.04568413230067616 0.04735406380393135 0.8807061910875027
P 0.2875320172345241 5.86286212288138 12.454962856501082 -0.35441654348093155 -0.5627720588033212 -0.4826513420913301
P 4.149675774870347 6.311157684628646 12.522614450885953 -0.033171344545646096 0.36299580050951036 0.2629544336141923
P 2.6868793208959856 8.499869142708018 1.2990114488858866 -0.818231983812681 0.33432182961358553 0.6945336396200554
P 6.595802932903462 7.881461710232971 5.797707783863921 0.02560998725862041 1.0770975920694805 -1.086114193745794
P 4.571078517336603 1.055308811569242 12.563972967712534 0.8115738550662153 0.34443629233976814 -0.6316763379742025
P 4.199065734341761 6.144376701162063 8.21809701221561 -1.0770855078846224 0.7303156823156712 -0.15356093608001295
P 5.009790952619265 1.3969522754640085 3.9007911506506203 -0.15406281541709596 -1.1756094096941494 -0.8163877315150907
P 0.2969549698854735 5.635542718481715 3.4605415928039784 0.14952738944058763 0.5153555171925704 -0.847344070687289
Ni 0.8221667250118804 0.12442411054012971 4.376392707311839 0.7110339512679238 0.7793075388333417 0.40331635450542797
Ni 2.349586032167487 6.664277238240282 4.82518062152039 0.20365425319197827 0.5186920377649712 -1.413862226796604
Ni 6.197343269086079 5.634523430576648 8.980315957232254 -0.06022474911901241 0.6732914424118276 2.5426724167490273
Ni 8.546201238464231 2.3813022674278295 9.94305249521622 0.7664345395254155 0.20973876882316134 0.48384407684785063
Ni 2.3174784631578773 5.492405574098739 6.96411988716395 0.012314298590978792 -0.581089111944954 -0.017820058900556407
Ni 0.6888939213458881 -0.02021466334584591 8.699611348804703 0.44379091758070666 -0.36124693613920367 1.0835045240370886
Ni 1.3163648254696514 1.085304998489784 11.246473274370008 0.7234539221988315 -0.03819579434343099 0.15414611915952162
Ni 4.503232166155583 6.833105898301865 1.6053429574194893 0.16329590397958973 0.9845594755297431 -0.06862300048503665
Ni 5.64356050994925 8.065588789655425 7.976446601886399 -1.0943584360324572 0.056751702968747424 0.836028902784786
Ni 5.539584042847554 3.330750749427974 4.668031908756691 0.15292844470233666 -1.1282093231436312 0.16810103867771695
Ni 0.9156663685750677 7.574191910779614 6.367081097555842 -1.1005887332128852 0.3171861983745634 0.8582465765324058
Ni 5.280612108681611 4.598435476645811 7.14893316576535 0.6136513621516916 0.0029099745579433756 -1.7426739252252372
Ni 0.8476643939728278 7.443877772273777 11.129004893703474 -0.1328751255958873 0.32441614046409933 0.6571551989715972
Ni 4.94715025038198 0.48591729630758873 10.39663561297102 -1.5312677960019823 -0.6803812593790733 -0.6581985526344472
Ni 8.411946460111126 7.494905873021191 4.329026762394772 -1.1688124413769743 -0.7183857636473047 0.9598108078301536
Ni 7.234641627404182 6.218739214307618 7.007968378730048 1.2722332662674865 -0.42619994397182087 -0.6144108660255354
Ni 2.344462290287552 5.31031707048642 2.5765250237597264 0.16252328747962333 1.2775562211422966 1.237744231351681
Ni 2.4756137010011234 5.431612331189388 11.326206160665386 0.6369285875120773 0.5387726105649302 -0.002366700459963666
Ni 1.1254667621063956 3.3258727287394394 3.6770965888633484 0.7238197901786825 0.7842512559918623 -0.6748649575465344
Ni 1.952436881370904 1.285303846719709 2.4408214004558473 -1.176895989716057 -0.40099284857857387 -0.30678300076336845
Ni 1.1040071113907894 3.2795861369075587 8.315012180339258 -0.17693252092641787 0.5108414313723009 -0.5818118490435915
Ni 3.7201915354424875 3.050164451203692 7.122959525755875 -1.4944567978212198 -1.4564142412262016 -0.31455981649530984
Ni 4.720094768743446 6.772094236555713 6.047588944026548 -1.6746186243182128 0.6453265817677853 0.40449700507709047
Ni 0.717352075623963 0.11410109026586669 0.30359945291662876 0.8329350943508107 0.847587811266979 -0.06063689695576654
P 0.2593295950112025 6.066273765436307 7.8389319223940515 0.5984875099270596 -1.0813568815664667 -0.2634185177348044
P 8.598275929471313 1.508837324614841 7.76284845083021 -0.1136198769107011 1.6922137116921565 -0.40240386999348765
P 1.808362356146662 3.1329633919206494 10.541144245633403 -0.5072868812518231 0.5671611890099522 -0.9218826653258122
P 4.294915200557522 6.20362281064408 3.8013450542555516 -0.03498680048783007 0.839138137837729 -0.7076969164748909
P 7.0663863167892 3.917896985886012 10.30274372558008 -0.9373205971474372 1.1835430627189292 0.15568158196744156
P 6.532006430988109 7.985347169486001 10.120713466990905 -1.2396795007011812 0.31034449286238164 -0.11327457775614042
P 2.6092132228438296 8.817677651036977 5.774863903770095 -0.25203264449536594 -0.5435142390149736 -1.5039914767845324
P 7.060862140375131 4.11572984731767 1.3565939348942768 0.8115370882910087 -0.7982048899584769 -0.2792369728242997
Ni 5.049406669143877 2.914917687300119 0.3881703164471268 1.2500739565616277 -0.4423333591985737 -0.28594395253083016
Ni 1.5379234330487164 1.3385434381897245 6.804879814037889 -0.09989121447069893 0.4897735549584081 -0.05098034770260898
Ni 6.7267723279197 1.0683866394226458 8.865790770391598 0.4607596842245613 -0.9419706943249391 1.587440486538808
Ni 2.773282172420144 1.5641973989587907 9.186814586013952 0.4876935325009279 0.03170864395719056 0.11320515797078567
Ni 6.567790717083853 2.0603721898896024 2.283766425776274 0.13661582358524213 0.6977668018453725 0.46082319047264503
Ni 4.476421253938375 6.925788291384024 10.339586432955816 -0.768808696184547 2.2006701877720487 -0.8031226389750685
Ni 8.479883819140813 7.459030579076781 0.49108836226883024 -0.013534544151325078 -1.80569063526709 -1.659205889307568
Ni 7.611759950709226 4.020262614066309 8.07089818754664 1.5350259774928339 -1.020277754866959 0.044585757030174825
Ni 2.9984082876669436 8.560079935385902 12.409142224854374 0.6655580783233118 -0.0814908575866403 -0.9079783965398942
Ni 0.16040133327504688 5.001309021123529 10.311908215940814 0.04264663102593301 -0.775039507585607 -0.3020336590038411
Ni 8.841740126224451 2.6071200423244956 5.492934329699493 -0.1811928388646686 -1.0594258858213303 1.8859566193076938
Ni 3.7889115619707074 2.7952969710126174 11.494930161701001 -0.42938322679580887 0.24253858896200164 -0.5825654393801645
Ni 1.4824632500712336 3.8538183596397935 12.59832570034875 -0.436571517014132 -0.9390573773328859 0.15554865593400305
Ni 2.889572001446445 8.49104138138735 7.954961468973166 1.665198102335261 -0.27665327125752354 -0.8897107085789581
Ni 5.9447600858965375 8.134681948363179 3.458263666351851 -0.6164487223911705 -0.49752311699683993 0.06829647038355334
Ni 3.506077369884358 8.772173726703631 3.362653550778083 -0.1322302929230368 -0.62461351759015 1.1227148756879632
Ni 3.188232458415932 4.319241598506129 9.192235923559029 0.4727027155190504 -0.488857728012358 0.26737750238255237
Ni 7.20674772178784 6.292146145042173 11.374011673491513 0.9469401225150723 -0.5055940669304325 -0.3800239596363907
Ni 8.041307895631151 0.02722863824258796 2.3227277958689725 0.7242741041072815 0.1744480639416673 0.46278339952280945
Ni 4.694712679750306 0.497021163923412 1.3194791140510258 0.12505408688957173 -0.6156982173783911 0.6505749746509183
Ni 6.172780250730938 5.486207939604538 -0.039903301326398334 -0.9197159966917966 0.6739072216189556 1.0600565774267936
Ni 8.292061821062491 9.140282272990673 10.680603762851755 -0.9992978101811822 0.13142168097881238 0.6575022978983709
Ni 0.15520296495920538 5.021703880009734 5.494826382873272 0.2850016432222189 0.8799104346590846 1.3136606801743378
Ni 7.324611986596075 6.282326398171037 2.3830532584361768 0.48128068699604853 -1.9395047277374793 0.3071151872918066
P 8.704900724969212 1.7894873283331898 3.438416674714619 -0.25882318505463814 -0.22399039364616907 -0.5460046095369951
P 2.0816953288322084 3.517189428206562 1.5229326202163387 -1.4021002011646693 -1.9848417611113816 -0.5057529611057999
P 4.666254525472231 1.2425210570614966 8.051211369723061 0.04251679031628807 -0.6108146640338449 0.12725880785037438
P 8.557768336029769 1.5256009703392461 12.313545760457906 -0.21957503818729282 0.9066308813730645 0.19408846388041412
P 6.588640615213394 7.875527998499903 1.2238071131401644 -2.3819054498388783 0.45385652934682486 -0.2263740633869972
P 1.9012813696353557 3.5481593991078375 5.861683571241147 -0.3933523013141806 -0.5974379856166226 0.34666261056712555
P 7.197419417299504 4.1181415553073375 5.886031811073434 -0.6519916524927868 -0.2066004803044958 1.0724145847715143
P 2.426642377633576 8.477108079756478 10.059601696611223 0.6393526235725376 0.6182916891371804 0.9654569503723373
