# total energy = -340875.16607260867 ev
CRYSTAL
PRIMVEC
9.24916336158931 0.00000000000000 0.00000000000000
0.00000000000000 9.24916336158931 0.00000000000000
0.00000000000000 0.00000000000000 13.53708549944622
PRIMCOORD
 96 1
Ni 1.4004528437039907 8.2956302471051 1.7400571550499202 -0.13528656325085733 0.7901128569789618 -0.7215142819739574
Ni 7.922047283772463 2.916816204515372 2.198449398271203 -1.2216054168082897 -0.3796470359129462 -0.0637841843354966
Ni 4.253523813308404 8.282376195795262 10.291636729218354 0.9094791494551369 -0.5361310591770251 -0.31556460361074035
Ni 4.769627137166718 6.1208651818339685 13.511635889009954 -0.651412125840233 0.5940587847317447 -0.09076714068224367
Ni 2.6858183458529816 2.301321369578538 8.647449928698693 0.32615574886302534 -0.15375119771394813 0.2164945994897562
Ni 6.238116827650311 6.58332335733425 10.218361156226685 -0.0688698263885201 -0.6441593009325616 0.39660731791636855
Ni 8.632734509554275 1.7536876473146155 -0.02046284934953643 1.6623148672501953 1.4755165092732911 1.0098791852414544
Ni 2.1474337870990645 0.1166902215912839 3.837898777241037 -0.04416255344982717 0.05236334409306466 0.7158807378372639
Ni 8.456981904537148 3.7715221553114815 4.925089852191945 -0.20129372337960175 0.8037900973557383 1.0170880442850678
Ni 4.412951644730371 0.6734121719201381 7.980044163561953 0.39918536305618996 -0.4413185447808141 -0.09244529971561498
Ni 3.428045219203913 8.293567683642369 13.566326192844617 -0.7378600703218324 -0.7403915784944346 -0.9392424967604986
Ni 3.4967665040832543 3.9863524761583817 0.49767991506273335 0.651343991606459 -0.6264724251757599 -0.9570751540665452
Ni 1.9773879159676115 7.645700776420515 11.299459807173552 1.505366245644872 0.02936688319789136 -0.28267556619220346
Ni 6.774993772752096 1.1310617073115672 12.51641664616984 -1.9269055509162298 -0.08554702993388492 0.09200795506788025
Ni 1.117520931932919 3.836959987144771 0.9965270745604294 0.4515240245589062 -0.07259689753112014 2.2405369420599994
Ni 0.719239927279514 6.752971514434773 13.190658468056824 -0.9565866444659008 1.086908150401999 2.3923487566593895
Ni 6.590130741677614 1.2896108682000835 8.969483604124665 0.4015176107337924 -0.13974691301505607 -0.007714080814806071
Ni 0.5618737344039274 2.026362236753091 7.463699436536029 -1.614361222189052 -1.4057804782297338 -0.6248780841054464
Ni 3.448217644819235 3.991273031145705 10.763269150004207 0.21137296199247468 -0.6320218942390793 0.06250968849844718
Ni 6.408662153611304 0.3633894602282598 6.584763452092758 0.32001826850671977 0.7571443724727411 -0.9610400522515641
Ni 6.345240639423196 4.3797656460564705 0.2999115261427402 -0.17313705843972763 0.24600057936867312 1.0260108006959943
Ni 8.100574637842591 7.705293136915482 2.3063270168701533 0.16095491455123895 0.23085858152091207 -0.7376335561333233
Ni 7.539797854230951 3.5551379749948997 12.038896207893513 0.2290364407105088 0.46890905280457307 -0.1053003013014122
Ni 1.9727448358855886 5.324900668489906 12.110480108879203 1.5332855977629594 -1.3197945609862174 0.3107185883723487
P 0.22075810974046314 4.210829674546218 3.040537640206962 0.23564623271754254 -0.585935641403978 0.6472068295096338
P 5.2489095410917 4.847190622361625 6.370796078201341 -0.18937460334451256 0.27319153796116824 0.3849370806672919
P 8.074982202410405 1.7721489776805865 5.668139901095266 0.27852272036609454 -0.8369683838799199 1.0697532358892674
P 8.216882868980912 5.497258830498859 6.357827826043962 0.17685718760379218 -0.1813126522719845 -0.8984249485235044
P 3.377600281420342 6.226111413414323 10.24184755712764 -0.018800420535954716 -0.5651850391201879 -0.026418856313160953
P 1.1251699901556935 3.797068344926117 8.300250204278347 0.2755469255672222 2.1425830538213297 0.8073461901381128
P 5.132111104287348 3.9243738314778343 2.2281096158150886 0.272991249024904 0.31774027110582054 0.42041984695493395
P 2.180592038282435 1.5789801977741194 10.678933427287276 -0.9965331029518514 -0.22962085245906907 0.6586770349327624
Ni 2.2913230238242224 -0.12415152179480542 9.028329557124374 -0.1774490555515202 2.5844135052415558 1.327001877367934
Ni 7.145376525510271 8.537033414716246 10.927568515846895 -0.013127538520893519 1.3845017713566157 -0.3023049103873568
Ni 6.395926055458025 7.1026268917670246 6.344480358182673 2.9756392471310367 0.557253442977937 1.4846066445000174
Ni 5.30006666446554 6.057628650916061 8.2533856176895 -1.0477430501667633 0.2942398739910352 -1.139390279461115
Ni 2.7148792176014194 7.042174359065628 8.2914246524571 1.608948535813913 -0.6912344000434935 0.3590126474920462
Ni 1.1827090363514388 6.911742655247529 5.0536781977225 0.1950693397364447 1.0965472161536598 0.19096740175292917
Ni 3.196520158221452 6.000117352210845 5.911645403572238 0.1675009431998728 -1.1480680097407712 1.272532799785776
Ni 6.630993546064819 4.483041805809194 3.737819128397372 -0.5183822198340363 -0.5919265688800902 -0.49533587953753405
Ni 1.07006347396308 6.206151718559731 2.5515371401820186 0.3251370777905239 -0.10757315649598892 0.12366389141026443
Ni 7.733669570564179 5.839181907136748 8.40501362952348 0.0776264895352276 0.6131083451640279 -0.03621990156398278
Ni 8.374349877738759 5.210904728229086 1.4630345338453907 -0.9609426074417515 1.259617891496321 -0.5203982218228006
Ni 5.58106550106302 2.18973946099383 1.1256638954871279 -0.1309858789929744 -1.1148341873883059 -0.08344900975427565
Ni 7.749781613398609 6.266382271336887 12.15567984603625 0.047224223094286415 -0.5291073195610242 0.06216438934388649
Ni 8.818559453633798 8.695934043818143 5.62445610183751 0.11511214518551144 0.650660335275873 -0.08423628154226138
Ni 3.4871658723598684 5.308085689228715 2.557562045292436 -0.27013218230955416 0.7984306328160378 0.19397816355479494
Ni 5.867613835766505 6.18775513233833 2.3400337434496667 0.5180194371779788 -0.10708798932945428 -0.5670645155310879
Ni 4.074450758591185 7.765014985699588 2.436485870364707 -1.0423861567302242 -2.730928590218381 0.5412071881483518
Ni 4.839245590906531 2.6421437957587353 6.396259025344386 -0.2658312409413551 0.4193484682676262 1.3199174597173269
Ni 0.5189798137099253 7.510108039363832 9.410982250194923 -1.5436209182506964 1.181858475927655 -0.5488238241533451
Ni -0.2980071233760301 0.7491859439758591 9.67739145627172 1.9545307688326659 0.10895718132770912 0.6566165528593079
Ni 1.4452465425829482 2.841962724228897 12.41475261561691 0.05643391461801248 -0.3332620208905035 -0.700083365793691
Ni 9.373657250850295 3.1816937491149133 10.347463755248395 0.8056559469198834 -0.7319951269006232 -0.8838869028083295
Ni 1.7779389540378503 4.745727298656864 4.4423704591066455 -0.009750394518544498 -1.1642281644404013 -0.1810884520763204
Ni 6.147040314567285 4.037676084475403 10.089163290820819 -0.6725198543531257 -0.45294944415152316 -0.32401144882651295
P 5.014313757823916 2.8088507188630762 8.707703604384625 -0.951712604203051 0.24650451558828515 -1.3632449188603684
P 4.9793241722655655 9.160649015214865 12.205591107085292 0.058811670821569684 -0.6204714703973185 -0.4157314403403292
P 6.17278073661563 8.237351267828554 8.405812757250743 -0.689935735836728 -0.4184377835278987 0.3492331995077792
P 7.620136088478859 1.9120333266059115 10.735030528891809 -0.669865447449414 -0.6401684346056137 0.23857086256350526
P 2.587814209300962 6.199529317486566 0.8308449587729968 0.18482400785935268 0.9033092731989991 -0.917389405441149
P -0.108636974923122 7.928521698229466 11.528114852718858 -0.6141475850618198 0.961283535720938 -0.03861616971030124
P 7.145829734522261 8.101037096018091 4.2000701226350285 -0.49505331530010865 -0.24925199642643528 1.272434840755331
P 8.102886928720093 4.980387826069216 10.334495503091016 0.06462107841449516 1.166919081009003 0.12639877384292425
Ni 8.219444887273184 8.83830641772766 7.940962748066776 0.18900924958529383 -0.9025202016388005 -0.4369011324394089
Ni 1.0279150358479845 5.4180212467086415 9.988906982954115 0.7825365872936008 -1.3290225073423885 -0.8099586880602955
Ni 8.222219636326185 6.125082800394531 4.0975949404422725 0.3753329819186246 0.32191934218417456 0.8685037354840397
Ni 4.353803244083885 4.21356742694518 4.384702849538112 -0.5721550426801177 -1.3954608414712808 0.8634970262980677
Ni 3.660772671442674 1.6074398738944067 12.519800915098152 -0.4866620059126199 0.4972603502537564 1.3948486618085785
Ni 5.628633948994979 -0.0022595706454943726 3.027393653942893 1.5529640500284931 1.4087778702951608 2.369915624466854
Ni 5.286803363992193 6.338812470783742 4.682992072401197 -0.7504060253076431 0.6708936316036123 -1.9444844403402575
Ni 2.9741332707868766 2.7120582227308674 2.7675078828897024 0.7980681072702964 1.0656225015503453 -0.9737585282594973
Ni 5.651960339367214 8.811715072636394 0.8847768311998395 0.6191761486246626 -0.7268763176168191 -2.527916598596091
Ni 3.3334725223141053 4.700156670043066 8.501614667971031 -0.12909483261784865 -0.19382518291669845 -0.5402227127478954
Ni 4.497840467425203 0.6259630381974582 5.130799572901629 -0.7448971796742719 -0.9922938680595232 -0.6119436354319654
Ni 2.3130123122551853 0.6926217596140688 6.414697232801582 0.554659714108832 0.11770150317924245 0.20045837196249994
Ni 8.192270844880788 8.65668984304519 13.615195073166083 -0.04006832877579551 -1.5283267110957874 -0.6309309751677457
Ni 6.227082575582874 2.2325260913911165 4.603664771724931 0.8314891059329034 -0.3274032481168813 -0.6575123252006999
Ni 0.919997645845941 5.952474910970806 7.478034715060186 -0.928834156942981 -1.1834574449836586 -1.084892662633867
Ni 4.298502495457562 1.4828351430876108 10.293437541353752 0.7838401365963726 -0.2860275133835719 0.19915096600498605
Ni 1.261114195425756 0.14851844306191522 12.927159048820275 0.16026791578654334 0.6230127487619336 -0.09839971752683699
Ni 2.499614186069549 3.471109324506499 6.53347129093167 -0.22781825203269154 0.8363832008004111 -0.6937800492834826
Ni 0.7712914447647726 1.8696906560571058 2.689738141348522 1.3149814558682902 0.3355865552586221 -2.0397566679817065
Ni 4.203855805259674 8.001525345813942 6.629395290610289 0.2794686292191316 0.3253882745693816 -0.170180546914565
Ni 3.400075748749656 0.46980478607627846 1.8326644046938516 -0.019484076866540637 2.310166272322363 -0.476123054054509
Ni 8.347138838692322 0.7726399728045314 3.5774182849741525 -1.6567396871552629 -0.8492250897600858 0.6899676175159278
Ni 0.9667133209022774 2.3257761578989933 4.9631020643853665 0.5722825693969177 -1.2847046592616198 0.169616703991295
Ni 7.100083371801774 3.3191363188735967 7.2973560055576305 0.08934969150942677 0.21779377791715396 -0.5637855876695
P 4.97173985818736 4.0935317829123266 12.206241323280045 0.27172575204891913 -0.013962375717363052 0.5842327997802583
P 3.2674427440161753 2.3598223287793236 4.777900513926418 -0.8389455622109487 -1.2088792274908728 1.1278064312782576
P 1.2179298509975398 8.350866251586853 7.3464413163052305 -1.805118307703388 -0.6853463166938325 -1.1616125811944251
P 7.3897764220986595 0.8128433118334728 1.5320730650331258 -0.11898551209798863 0.591626006920536 0.40220820904291377
P 2.194354793585323 1.897706372328913 0.7831377733883879 -0.39657029403084604 -0.27608454323824705 -0.5694083331729162
P -0.05978659292867632 4.554676577194187 13.019968855145077 -0.2587455377391673 0.689042020377865 -1.1354343801371607
P 6.821322832773714 6.780774499945849 0.5156963606638734 0.20812077360376416 0.46913968075814044 0.19684262958678359
P 3.40703111970918 7.665984191997957 4.491144997960309 -0.5552482396224502 0.4155105825787747 0.4989783613861277
