# total energy = -340891.21235179156 ev
CRYSTAL
PRIMVEC
9.06601452378758 0.00000000000000 0.00000000000000
0.00000000000000 9.06601452378758 0.00000000000000
0.00000000000000 0.00000000000000 13.26902866235814
PRIMCOORD
 96 1
Ni 6.3159657304506425 2.2303573562655084 11.273114529827394 -0.36311535680651014 -0.8667085912568299 1.0751109006567547
Ni 4.663195074116924 0.27384167931453446 5.894632692199219 -1.1825979251968408 -0.7566134396699356 0.012490933378159133
Ni 2.7289518742998315 1.6009402530388934 4.75239558802593 -0.2668661099637727 0.2813247085912639 0.8240876712625098
Ni 3.3201919916466998 4.410833502293457 5.029239931250076 -0.05488688184586676 -0.7848428668292742 -0.5324906342109604
Ni 5.010931115533109 4.310363932709189 2.804130890616433 0.850777007628238 0.21278809717244643 -1.22083434297022
Ni 7.2550506813843345 6.308032968008283 2.604112858492634 0.6263323000534696 -1.8399356724928893 -0.17977564680216782
Ni 4.874351611311218 4.384959097710033 11.451636135634532 2.637574662645567 1.5181621118579596 0.5102158819731599
Ni 5.727200634985791 8.069632059036962 12.506404334614803 -0.10694169355957711 -0.4780806920015122 -0.7638613794816006
Ni 1.906347074062645 6.4339871035645215 0.3593595782474416 -0.5228371702815964 0.3741487318025363 0.12020730032023168
Ni 2.5268160212542776 1.4778147139192461 0.27113638067133417 1.8865541436823767 0.25040822151806547 0.5120830170888859
Ni 0.5257825880782013 0.052820412047632055 4.7352653541575425 -0.02418122523189384 -0.3754610228560566 -0.28352325890447944
Ni 8.710118765626001 2.131873243795386 1.3242772300991448 0.06408654606726381 1.2365232144603866 0.5878469994940778
Ni 6.699594122163175 0.5193611302062886 4.700381144642442 0.6007490522677267 0.7543261862976557 0.23118691139460829
Ni 0.8278476762605197 7.250345420004237 2.4157192698015137 -0.4780891766419444 0.5981501811922989 0.2500462101929565
Ni 7.605062292369698 3.670937949783871 3.8128283251357438 0.6196700575419457 0.7007747354337609 -0.24380819970304465
Ni 7.619984951775556 3.879274956555795 12.721348652550146 0.9216096141700838 -0.18265733922533706 -0.4234627475463159
Ni 8.057139091442023 8.79637282491356 6.7104660864156065 0.046266487166707414 -0.28434858301925225 0.37187844771112083
Ni 6.94465755253967 0.7036985841354522 0.32591958479756156 -0.0788639614867545 0.7431272322580427 0.2176184286815542
Ni 1.90039976873443 6.548608721345959 9.30908584689244 1.9030387716009611 0.6904574126681529 -0.24574192639064774
Ni 0.032899659002377526 4.694672275488208 1.4465632563020354 0.26717515656375923 0.4433641144559332 -0.18588407369275084
Ni 6.582706000826777 1.818443000187076 6.891694804068787 -1.357919907103029 0.23243698175162553 1.5349403597575628
Ni 3.387271430859296 4.293682466544684 0.38322132767406053 1.10689230683341 0.7261057579993817 -0.45545729817504144
Ni 6.025545030932288 5.361169376873969 4.72467624954877 0.1367808884081967 2.0504177472399783 0.3415152620382312
Ni 5.206584768411476 3.070051593307093 9.232271321610579 0.8533100584627368 -2.137151598393113 -1.0128863474988943
P 0.07085906054084778 5.711851872911602 12.425396777756267 1.1016876227040187 -1.0860100640677617 1.877389189353657
P 4.215442763827464 6.113267784523459 12.599486009211322 0.15039925052257969 0.7120410523761995 1.3804062611310033
P 2.460489061221928 8.497149025587738 1.3756933165441239 1.4380694201704267 -0.9914639159590602 0.23014638594523593
P 6.2684416839102415 7.7127937393440575 5.985631903329441 0.28438175025003276 -0.24516085707619711 -1.5065258131706118
P 4.560241416636421 1.193005877202971 12.519725935909436 1.114596103235571 -0.586077566298481 0.5412411267100807
P 4.03654310522736 6.292593545791895 8.380930882702188 -1.788452931232565 -0.8672400382802677 -1.4705761345488804
P 4.720492283986314 1.0066811529568185 3.6941904630549165 0.16207180176450153 -0.7682461388128576 0.7965447286472346
P 0.19230013421844913 5.495872216152353 3.594725407846208 -0.7175804941371899 0.27841242004047534 -0.4509419268031912
Ni 1.564685262173753 1.0777587044403643 2.4426290132088435 -0.8338110691978609 1.2216745794833284 1.7025773143146676
Ni 1.690965774241905 6.447277880410806 4.791751155754256 0.7665638660144282 0.7830214973498192 0.19070952010585218
Ni 5.841142301700741 5.423561686734909 9.1597160098092 0.6361192042369045 1.5516509876440245 0.022212788651613358
Ni 8.586258879354547 2.571166962817735 10.491130912903625 1.1343776567378723 0.05072400871742877 -0.7652911699495918
Ni 2.2747626939142847 5.128517319964434 7.200185883130128 0.07672403232561625 0.4581703262308303 0.21879779370163607
Ni 0.854754699863583 9.185594947399732 9.378310305069451 -2.3172118663152355 -0.4736907904639326 -1.445368524935001
Ni 1.50251053665409 0.9328203351077816 11.349397786675972 -0.08086685084939621 1.2966438339013668 1.8695097866055803
Ni 4.099941742666702 6.980613364935556 1.594234122320478 0.47054376019451866 -0.3552819768050204 -0.09595485553077024
Ni 5.531392859865686 7.857985957074796 7.984969085244986 -0.17899480277208527 0.6557914858548513 0.9393538255273822
Ni 5.508265457590874 2.8469641813994895 4.849511638950278 -1.0670582055556073 -0.12072589182786306 0.20928651177709118
Ni 0.9878601074364306 7.48083976552945 7.265628906776043 -0.49850065041876085 0.14734118042254626 -1.2706641220081536
Ni 4.963679049419302 4.577339919455039 6.935111039566179 0.5921391991115286 0.5834061901139048 0.39077399906404314
Ni 8.163764484681561 7.5172760766789875 9.075790102973297 1.9852770488765874 -0.6676062191015921 -0.9197671616447062
Ni 4.603060201796725 0.46621162184247633 10.378038731721073 0.6236668374061646 -0.4974508689980077 0.14653616802274763
Ni 8.031119630631082 7.0407573032699755 4.716237603512942 0.3769360647396863 0.37424180573697485 0.9384943057405642
Ni 7.330624975920921 6.14780929870105 7.197797894984623 -0.1093680436128826 -0.3594942151141551 -1.012958081277094
Ni 2.3692758921561174 5.301469673236323 2.5582823434084982 0.6070947919800964 0.24804872014695345 0.5168868662354323
Ni 2.4460559665839425 5.524665877314565 11.511452790855614 -0.7283526450520295 -0.9793164819632489 -0.17644632531861873
Ni 1.0602884950387326 3.487777264500443 3.6804962485758486 0.15581450800088004 -1.05802926258412 0.3050040544860747
Ni 3.6754618908795718 2.4940514458637755 2.596841915088322 -0.4058386067066495 0.053408497528127374 -0.6471101560307694
Ni 1.15735830929056 3.197809865693079 8.357948536654893 -1.1858814810441192 0.28070738672223916 -0.04088722513266507
Ni 3.500560344550417 2.792685954265307 7.071967057221775 0.39802450997886935 -0.04161767554078639 -0.04087077007243284
Ni 3.8499826646114923 6.66695647097175 5.974605816835272 0.8604703236566019 1.029547610204659 0.2092397176995558
Ni 0.7768205218255719 7.485590356980646 11.399714165596084 1.1331867217535645 0.48437629520223674 -0.09132635561982336
P 0.23567738585469578 5.665624266404637 8.108782734843919 -0.30898155107658404 -0.829452535118849 -0.3782802374724066
P 8.571200229735393 1.446818011301613 8.02658118391263 -1.2669033694141405 0.9595806940972185 0.8022127255662893
P 1.837717346418456 3.3234013606805233 10.409990085636057 -1.5510156680528708 0.2588663795877477 0.06688879140274932
P 4.192813992334743 5.98966174665016 3.751260115967388 -1.6040104750823472 1.0965379601822793 -0.19159192271080552
P 6.980305120452082 4.115417428939969 10.337541752802471 0.11800206513879678 -0.5450977814520096 1.1356495814717604
P 6.542851802316361 7.748006138573916 10.191290624610854 -3.3307759566074444 0.1213853797887329 0.89434152248275
P 2.326493371052692 8.404041059549982 5.721538909105501 0.3414872370137732 0.5633641838613653 0.5729343440483036
P 6.934276966257954 4.0448929043238335 1.6407282696455054 0.20008633333506187 0.00922486103237766 0.09161251940167447
Ni 5.475473684157713 2.987750316219385 13.680765953574673 -0.6645995710647845 -0.7335699275869109 -0.38427784981673824
Ni 1.3907175153092426 0.9501001582107967 7.239674721267486 -0.09785078700190245 1.3508951390457637 -2.542701727325066
Ni 6.896181574506186 0.6502979471777505 9.306192881754889 -0.14079566599454463 0.9462505526472156 -1.0086481410478307
Ni 2.8877431133603295 1.617240946606166 9.180283169668327 -0.40206474148651394 0.868176434051608 0.8102091135082046
Ni 6.364559566668985 2.0137793425677493 2.542890064466054 0.2451444020159649 -0.3792112339271082 -0.21101326466021078
Ni 4.333518533026661 6.9543581877549 10.54552065201271 0.3784275616835483 0.4289790493788547 -0.5598294312352294
Ni 8.14393711158277 7.446107865053243 0.07564500944750134 0.5769730328940516 -0.1695637392661725 0.8219233166213393
Ni 7.668216147425104 3.9023751607879476 8.190440324922019 0.6185518847771025 -0.6547746145545625 0.09047506336312161
Ni 3.362494013996473 8.2941519011913 12.532198958273092 -0.9524757076213209 -0.0036141997138195814 -0.10022494366103385
Ni 0.22918702627471232 5.3718582076391606 10.307514207104939 -1.2638630399259199 -2.1905726943267307 -0.3111723880803157
Ni 8.470757858193785 2.0847571678948773 5.650921004542901 1.538807556022453 1.24619133367777 0.013203900284783712
Ni 3.411486754840489 2.785804849472448 11.632413365779563 0.2834250427637183 -1.2829750781650227 -0.1253955293893905
Ni 1.1915915789846758 3.1372851547614267 12.61181306874604 -1.221846329174502 1.351021637321299 -0.09478577492333352
Ni 2.963952028892305 8.611380804757722 8.03224744280003 2.2415142183716044 -1.7566005626086585 -0.14234012766352905
Ni 5.5775932683299905 7.722249592175351 3.6843184801709334 -0.8226869342602412 0.16867388046205145 -0.020918495320222042
Ni 2.927624509913406 8.523222882484 3.561340717083069 1.2531351119854548 -1.0159922401177275 0.18950058739941558
Ni 3.506308197565796 4.441186517901481 9.58448416084852 -1.502668901318367 0.806024900223528 -1.3206209135422544
Ni 7.178361267098707 6.157800046371314 11.592818455275832 -0.6838242236223513 -1.0150000514077873 -1.9976137160650693
Ni 0.7109903793724696 0.011787631688636023 0.5120466699337216 -2.2306618490381327 -0.5368334845606882 -1.5177108832531538
Ni 4.7456776714890285 0.39281317071865135 1.4689481520122425 -0.40426534868225855 -0.4106098028430477 -0.18659266972400124
Ni 6.226339113873305 5.743310942254447 0.43658660717630504 -1.3587768557866857 0.08639472264616088 0.1463155673715093
Ni 7.975354577164845 8.816952677192596 11.32930840576623 0.222866564454371 1.3294691079615042 0.5549849586587345
Ni 0.19128383402440505 4.838105686460298 5.765830921576529 -1.1182123598319194 -0.7201659954761791 0.7862556880164008
Ni 7.902046786183219 8.705041797662892 2.8758231178640843 0.23645921553714114 -0.18661349565960764 -1.5537392376316208
P 8.455336568005837 1.5921371532314288 3.4934562158077505 0.5950309188370269 0.40520431555676023 0.35249310120597355
P 1.9845777107656446 3.38930221804454 1.5846141746318056 -2.068157330611587 -1.5190954223055064 0.028015511376319496
P 4.5889444176564345 1.1363614203574104 7.87569913565752 1.536035906814587 0.005451767143190611 1.4973487746570342
P 8.594826262792296 1.564023443135705 12.499198666512873 0.10829615070494253 0.39839629149599126 -0.8968979703560167
P 6.476733360611066 7.871186073778883 1.3562938593165101 -1.2504958745903947 0.05893276978046624 0.7941050088574905
P 1.65158300847092 3.2002758215608753 6.158262413096526 -0.32645245416783775 -0.5838887861772784 -1.6972075653623222
P 6.96334260784676 4.0772857731313215 6.054949741452916 0.7517180592508473 -1.5239522361771756 0.92329342963041
P 2.5870234216882353 8.486179148381732 10.270533028500788 1.0846797752921127 -0.6199492793452613 1.0778756078860856
