# total energy = -381174.9840564778 ev
CRYSTAL
PRIMVEC
9.18200366905754 0.00000000000000 0.00000000000000
0.00000000000000 9.18200366905754 0.00000000000000
0.00000000000000 0.00000000000000 13.43879050082004
PRIMCOORD
 96 1
Ni 6.567997297452318 4.257190019148679 11.813677741278186 0.11938814685304601 -0.07639030313528133 0.7624179621668546
Ni 0.19378893875947895 1.8141802542535692 8.288534888870554 -0.1660446703693205 1.0676878687198064 0.6472564518006465
Ni 8.621736023380528 8.307931871293425 2.2870405804085587 0.2851618229491669 0.3547839541226793 -0.19507062528802532
Ni 7.488539059726798 2.7385968220108654 6.656367653870036 -0.9406105807526187 0.49700092594478273 0.13589900002387564
Ni 6.875805601244921 7.8424042931445435 6.5234306069974615 0.9444682639358121 -1.7133857177840814 1.0582184957767904
Ni 8.596935431889797 4.045122465994309 12.891845121473104 -0.712184005711967 2.5794361066316225 0.031872937449196725
Ni 2.1428408880259764 7.376426796823487 1.0116777381505484 0.3155203806363662 1.409233726885657 -0.026649998487360556
Ni 2.75151590095476 2.313111961185599 7.368193294272676 0.08601934158461315 0.03137645742875242 0.2074132060137783
Ni 2.5213598008782347 5.496586035442844 7.796634760229381 0.5160198902494468 -0.07562745682732781 0.011825788990334471
Ni 8.746556179146916 8.767977793344576 8.166618082615225 -1.3446118771402134 -1.2444884920540502 -0.45074318052882373
Ni 0.64905838258276 3.5349887147754626 6.995750113145489 0.6196379187524297 1.3061219485951312 0.19098334259252914
Ni 9.069321966663475 3.1133970234400405 4.877205724617339 -0.043809540985782616 0.2676837207690616 -0.703824320893362
Ni 5.829865216982685 0.4012875269653897 11.177108719874875 -0.14923171257703977 0.2957323993761617 0.574776796573681
Ni 1.1369248570803279 0.47314955926567387 9.879822007827002 0.46751294378799485 0.8614848809640453 0.04893580646875443
Ni 1.218405956261653 7.360000192537326 9.713544187995526 -0.7013552905275793 -1.6742964650921033 0.07195412174079865
Ni 7.505066666051609 2.1328692322100062 12.516230476332256 -2.3340106830401286 -0.8736559691089405 -0.6263150736622891
Ni 1.5322009263452427 0.16185943974064423 7.199173728191982 1.343145577007332 0.32162366532062675 0.025190640333014682
Ni 2.7159723653528998 4.236952883404298 5.769057398712646 0.9793856446382875 -0.4269599620662969 -0.8905406606794211
Ni 3.7327231604448143 8.789399407542236 4.959760200009425 -0.3262902175583606 0.6857936886438963 -1.1989349717939675
Ni 5.868604089807342 0.09626504303886954 0.3546135667041197 -0.2261418927715331 1.646400252902468 0.5840409954844263
Ni 5.443532419140197 5.733702094182818 2.4895625227099982 0.9188690753104691 -0.6882964004610921 0.7969285943492147
Ni 4.343904860332861 8.09522157789309 12.826787871976885 -1.5738264952997991 -1.4573838042283223 -0.6483093185451931
Ni 3.8606009233812935 3.916748874868086 8.832967096014793 0.07387499291259536 -1.2948669445066023 0.7414974099641036
Ni -0.07241019791005705 3.9975413237858772 2.7413247952548105 0.10700417136639637 -0.45969370485389216 -0.8540726476603743
P 6.918171365457523 7.3615794971416975 2.880470712903406 -1.3159458766640886 -1.1479895910943518 0.41390210044107434
Ni 5.977980115663545 8.984654712262866 8.70611863567221 0.7073495604378012 1.2055758741492526 -0.3834746371891525
P 4.7582244048853655 2.0547028362971576 12.518569132627215 0.18033871839448942 -1.7501679196094373 0.9678213368394557
Ni 0.7265976476556172 5.532331575122008 5.419851113877794 -0.2565711557956678 0.6702863370369165 0.19245298515952014
P 7.582920873844989 4.948668339764773 6.9668433296833925 1.3101115293704986 0.6115538561927145 -1.0648437144027918
P 2.7774734248882296 7.991070112036231 8.492146734989081 0.4723725858731413 0.4957043186205463 -0.23902157694767864
P 2.083543509333955 0.07752549206758647 2.893734116979068 1.5826078410368551 1.0825688995966969 -1.2471783801813876
Ni 2.153822564228463 2.6292024321476353 9.931964769381082 -1.0561515859454325 0.6162430341382678 -0.36065635374305627
Ni 4.566706175594846 6.942430218740942 7.946208679268582 0.7955551110404557 0.4595188698389247 0.08958674722089734
Ni 3.96979330916722 1.327249425914056 9.506815051684068 0.45479035401500384 -0.4989058562769795 0.10591145252284986
Ni 8.797452024623826 0.9417889184053766 6.135492794940763 0.031079237903307765 0.016325219522584786 -0.9447266598035214
Ni 5.56892185912444 3.8301442177260694 5.232553851602561 -0.4268424626518262 0.019414142860553662 1.2859218194981725
Ni 0.5177520595342341 2.580647997566742 0.7171466114388787 0.9631750963166962 0.6217320822772969 0.28861327183287716
Ni 9.112192741069334 7.016767719188542 0.2527594381264094 0.2606095875310996 1.1664814792509524 -0.1800427844206254
Ni 0.2778850725415297 1.4071604024945237 2.999753202350631 -1.3407174271818136 -0.29008831371650684 1.2712981560477266
Ni 7.627517864911441 5.48890988050532 4.598498862761325 -0.49591592041072013 0.03223212056082836 -0.03977753700825407
Ni 0.2451246022046975 5.715944099387158 8.115847112386104 -1.393385961220123 0.43595548069668794 -1.0408812900499234
Ni 7.737022438816837 1.2038432986887904 1.1587706798403243 -0.3172517615051762 0.5684518827969178 2.0137394179823382
Ni 7.2056415314670925 6.858515888628464 8.548118392008409 -0.335578584838822 -1.2630557135332763 0.5032160536165592
Ni 4.050246023955001 3.690504308288433 11.445965128361301 -0.12974223639386043 0.1787873147469695 -0.4121802326539611
Ni 3.3354913244314632 8.292065369221605 10.644677391323155 0.3160595409692879 0.5409971290200748 -0.7248176353155776
Ni 0.5024080134623485 6.281785065924137 2.941455743841261 0.927052896672842 -0.1282042024827792 0.09717895774585844
Ni 1.1312503789088089 8.181266132820765 4.378492549368937 -0.680686192214002 0.6124871666402614 0.34155177170312145
Ni 6.478344215143725 3.445721276614448 3.113969062258949 1.1245282747476182 0.5712839529290742 0.5930416563211399
Ni 2.5250326022837486 1.2716432126345762 11.879231737164499 0.9110827464968309 0.4701138717459516 0.020280347515590876
Ni 5.154189124413814 4.6126712851848515 0.3527441107887131 0.0006515175410698457 -0.28343944094142154 0.5543146720645873
Ni 7.990188639698907 8.842159199732443 12.8002867734354 0.23995488739522544 0.6882724892016922 -0.10570396449773407
Ni 4.004574738477436 0.1781602505786661 7.206645124451149 -0.29306050897095337 -0.04642358156986198 1.0224760480698585
Ni 1.0276222872522356 5.095690580027493 0.6354368803700605 1.2983564457170995 -0.5629353238540628 0.8973530556155642
Ni 6.178432434372977 0.21287189666217757 3.2942099548338386 0.00014989531430296765 1.06238059757428 -1.2637817930660233
Ni 5.890053250015543 5.167144931371765 9.84442446608101 -0.31823083758899384 -0.6960539329193238 -0.5093805305560583
Ni 2.2837479139485155 2.5013338512146706 2.4321391909351404 0.13530661785551534 0.37233301875003616 0.5908199660794728
P 9.259315983370707 7.656037167825257 6.298801154835883 -0.9433277225734656 0.2367451222086761 0.026587263570225176
Ni 1.6099265860894296 4.935437072701409 9.900289611859579 -2.583417202766557 -1.1001544738889442 0.8120878185881563
P 7.3154858395024975 1.9012072835572198 4.38484925040153 0.44186541842321964 -1.0068622527920015 1.0085175290072372
Ni 2.891982190708638 6.633171158393162 4.037563840701762 0.7435944017024484 -0.8952426941407807 0.6313693482567448
P 4.202869286361129 1.9701733119492564 5.599285826544174 -0.6461750458110097 0.1786335627779246 1.4210299481896367
P 5.0162295216192 5.778666365389822 11.867795551788081 -0.23920643926497512 1.2518030234375925 0.9989124018173053
P 0.30034058033484146 6.376139334031787 11.750246624604259 1.091571103095307 0.08734063149919796 -0.2644086495622156
Ni 5.438344587154908 7.30791986860714 10.261994439877395 0.39638748859607864 1.223469466600222 0.8371416762329905
Ni 6.26434844125146 6.957956986682752 0.5149175750495287 -1.844339972208172 1.1820397387005255 -0.10155806065016057
Ni 3.5274686538976727 5.740827328909514 10.222108734813865 1.3314069484141653 1.9689988805418541 -0.48182113288055084
Ni 8.151498077429077 5.490516731120231 10.412481968266217 1.7361834324048875 -0.2545153017079036 -0.7514956588273961
Ni 3.0148465797265898 0.6906950957163679 0.7789561862922713 2.0204137446787205 -0.34375546422265957 0.6347395502805585
Ni 4.471791805272853 7.80076390720953 2.5964281888055325 -1.126355557764344 1.331760989319474 -1.4594748824293962
Ni 2.2809749488873527 7.3350159609763175 6.312723826763834 0.9993582311054726 -0.6004675164715658 0.2872940388008214
Ni 8.22625795003831 8.335734977933164 10.334939948592305 -0.9174063747220135 0.23453808725502834 0.8830260974699309
Ni 4.358164511789769 1.5804523548101812 3.5304105678234894 -1.6827865048409858 -0.9409034294026893 0.9702710839315289
Ni 8.868346273753756 3.062730728050977 10.763624737642125 0.6443696171711548 -1.25258155347483 -0.26363551884161696
Ni 7.849364251807992 8.645278680389872 4.591900675036319 1.0840076889257524 -0.8354894853415483 0.03820170788070195
Ni 5.346653100066254 2.2579097560607257 7.704699950047612 -0.20102092933418927 -0.014453199310852528 0.03681691171803336
Ni 0.8049072828232808 0.3677649503369134 0.9479261695539904 -0.09496806613746869 -1.501483622761014 -1.2239026974828986
Ni 1.8356018684512287 1.7093493201366898 5.0576614760744505 0.9435151559939234 -0.3430386406612931 0.02839166376881562
Ni 4.1922457082956806 3.8906444388783967 3.304114582024159 -1.5696242842929935 0.460719060794613 -0.21113076407468157
Ni 7.82218552140719 3.850932273681278 8.914419730985225 -0.552238763372165 -0.7601201672716135 -1.9948711203229257
Ni 7.776055135753936 5.796259084122233 1.5509707779281212 0.5283822684695417 -2.526279834323617 1.527008763615312
Ni 6.056853525846955 2.7188830604667693 10.183982301623576 -0.4610268218430189 -1.1617444787865994 -0.6332645083969287
Ni 3.1699765290919815 5.61024087493647 1.9241521921378162 -0.20104895435864728 -1.2430296481203367 -0.6974472137224247
Ni 5.18100975667758 2.1927634411304235 1.6106923651824794 0.2285895829810773 0.23897426864951102 -2.8978021842469
Ni 6.019152219419355 0.5767877511261125 6.035185833955126 -0.10619453098090743 1.6993989165866863 -1.3908454541864563
Ni 2.915065747542292 5.689353017211238 12.592093107563496 0.019048274880702678 0.40905197143762456 0.6694466147444407
Ni 1.3575867655236005 8.426811270786395 11.820652391147258 -1.2789872971618683 -0.8844983111400833 2.4420494663186263
Ni 5.585936111635482 4.765799557784238 7.61935047278593 0.15542678564415813 -0.13676443334796445 -1.1301355936320665
Ni 7.200876071643438 6.835358875766699 11.936857991217012 -0.7579115896560689 0.037857437167405764 -0.09000583703618692
P 1.957263415008875 4.6107706104574975 3.639492769567251 -0.1684386245227938 -0.48742639488247025 -0.3768051955887769
Ni 3.0401797274211217 3.277580428270024 0.35013550359044693 1.1241516081344898 -0.1852037597962746 0.5493406158887636
P 0.25510452182383003 1.2998227814183811 12.320359977376201 1.4709204052621765 -0.3095901311948604 -0.6151104631957213
Ni 1.6664050897027192 3.6675125714899157 12.082601178390261 -1.126607782984466 0.23636948403681227 -0.8653235379838452
P 4.287619178793362 5.887344558978976 6.038666731487202 -0.021234741009060202 -0.26896747257749165 -0.7985352767147021
P 7.176929406479489 3.4342162262116758 1.1486052837502134 0.5309615991609435 0.4453153246450331 -1.6886460489455561
P 7.5981629996778715 1.3745091979995054 9.397463817237352 -0.5403641234217661 -0.44993379725365096 0.2765414282700076
Ni 5.53828151339894 7.3128781505045835 4.637672962552536 -0.03641659095582116 -0.8912587697923683 0.8296834201827324
