# total energy = -340868.94317443104 ev
CRYSTAL
PRIMVEC
9.27880929166412 0.00000000000000 0.00000000000000

0.00000000000000 9.27880929166412 0.00000000000000

0.00000000000000 0.00000000000000 13.58047531476709

PRIMCOORD
 96 1
Ni 7.668861470487654 2.4265384765891365 13.064973301766518 -1.0168466176982232 -1.6179772216750843 0.2656875162746392
Ni 8.514699148198646 2.240229269160726 6.845591712210268 -1.473750932732436 0.9482256740957153 -0.04601888993227558
Ni 5.010603294854258 0.6151098833569115 4.479873045468783 1.1788330588377698 -0.6798888931236872 2.3661204190904797
Ni 7.873338586086034 1.2812086783459065 10.904917582423272 2.0393699740662488 -0.278387737450127 -0.039526597339712574
Ni 3.6585973032617374 0.09693015112705534 2.7483758251371664 -1.421914664787435 -0.13813740243609113 -1.9040574426734627
Ni 0.5551075365888176 0.13712131263789548 1.1805206095432443 0.16546077284139246 0.2669090473865661 -0.7682075722654382
Ni 5.264350886643926 5.684875792757925 9.292996374648549 -0.37489820837405113 0.19550077084690845 -0.2361321712150256
Ni 7.167397512807441 6.020026376567585 4.122258464887163 -0.9866140440659266 1.3701717278871886 1.6220364793461228
Ni 5.278733040711063 4.379681392951665 3.110159374636441 -1.8072124712282553 1.088649301462822 0.6597173032718187
Ni 1.0763604103845033 2.877238069816895 10.258229128139465 1.1134059395822116 -1.0466680719350296 -1.087571752127927
Ni 4.049411462715755 3.462712364867337 7.806274137730523 -0.9545246197305497 0.24980298383389882 0.03001428697390315
Ni 5.557468465341245 8.056817756746396 3.284872854363109 1.1132023082118376 -1.3253640846541948 -0.46322794325939576
Ni 6.7573205457125365 3.8121523146533787 1.4196893365133731 0.9808118355618528 -2.1796851008799494 0.22397496702720138
Ni 2.9943923132050676 8.013225911709357 4.596013115024995 0.6494747996082041 -0.6033430382471481 -1.6007539158182627
Ni 0.8093868041385155 5.006771146706047 1.4812226867789364 0.2505768858854459 -0.15581090845645423 0.08101314661927338
Ni 0.8887085592828577 2.0322633213499306 12.626039238446584 -0.6859754656373993 -0.7535895652419473 0.12652861455256917
Ni 2.674375466997664 8.914736443873784 9.15022519516454 0.36941635932387346 -0.10937627114299872 -1.0640011638968383
Ni 7.340001919231232 3.7266666466401337 3.8673937044847966 -0.8389005679056261 -0.19473843875958718 -0.020084172344384765
Ni 8.615522687613812 7.502501702571724 11.922869745438865 0.23725882862030107 -1.1185334906167639 -0.6662749018846784
Ni 5.898019316032888 1.897303043345736 8.201466039306395 -0.8734402535537087 -1.4551703415167712 -1.0810126108531704
Ni 5.760971305986691 1.859863048725803 11.223977783414982 -2.0504344594105266 1.11357871771465 -0.4620082119196818
Ni 1.059649275239398 6.728045903079107 8.888651855800534 -0.8224277670615835 0.6764706114707575 -0.5255429992485336
Ni 2.9749439293826683 4.7184599911098735 0.744396169611394 0.4651840385445021 -0.7686516017813922 1.042368159008095
Ni 8.348858993590948 4.603773910935804 5.866874065489824 -1.4249082001981201 -0.03049019816905717 2.020596293003172
P -0.2681093324768379 2.5542705623234605 4.117613493063931 3.0815674118244347 -0.012359292896301294 0.9740722028451742
P 0.6999126310221944 5.285320995154719 10.606636346475398 0.7724486069299794 0.0919400779444223 0.15483826013053978
P 3.5025462922287676 2.77731457488206 1.4926569632027638 -0.19494515545375457 -0.950656137914079 0.21958223727614443
P 1.8899913417941854 6.046962759313971 4.408874382065229 2.5129121547674593 -0.2914772236442335 0.6036893658429732
P 3.5737889883110094 5.560697490899544 12.615446550005911 0.07656102438519073 0.8959155518380894 -3.307298185200478
P 1.8846745841938826 3.4711096870807294 7.578651960774036 0.8844849414036444 0.20580420965544555 -0.13802710211047195
P 5.480268773832486 5.111194864042534 5.270636351911718 0.1844005471686889 -0.4517045160008285 -0.212193401011241
P 6.867320827303442 6.081071661475773 11.50650545731435 -0.26837123375438937 1.2423876436609635 -0.014945308455922648
Ni 8.659346502877739 3.7309720140511993 11.444741992583713 0.015602996644579578 1.4565723640706205 0.4928622211860608
Ni 2.4937448907235047 4.258064042398142 3.066742899090932 0.43568577197506897 1.0420146323234185 0.18776123611080567
Ni 3.594545684213064 6.703976672337073 2.28461630813554 1.3912159501519976 -2.0249023765776935 2.6031424491096264
Ni 1.1878916954728787 1.289689509840979 7.933319591593254 1.3637524546244064 0.4964239703953902 0.2565048213341066
Ni 8.935687994766424 1.9808772766894132 2.1321478452866485 -0.81239506541593 1.4585798814189526 -1.4659070112079853
Ni 5.386302274324168 2.421203161370682 0.016324208806653823 -1.7853745494175577 0.38316507636853364 0.3496193792026044
Ni 3.281098234831166 3.769544023378352 5.35688659379279 0.2600269755547521 1.1341897090967823 1.371679937001599
Ni 7.355794452277855 7.696567994387313 0.5694581427050973 -2.3520287168841043 0.754400748289333 0.6214613451144136
Ni 6.134415534851237 4.323052821163449 7.263829391887137 0.41593764281386436 0.8249541330278631 -0.08875062447284715
Ni 2.965386756034829 4.720204407216082 9.95905155923489 -1.430410103852956 1.1790112362868468 -0.16149433199447671
Ni 4.795474106437121 8.092299922651382 8.35237195070696 1.2116413636170424 0.9904992380529459 0.10893378428894143
Ni 8.124553062998071 5.888536373157654 2.0893020164992873 -0.6592922999192581 0.20364679699281055 0.8140703962358237
Ni 9.260353524320688 6.935288103782008 5.25046978826687 -0.385021155740666 0.7518124187368664 0.06762926911319966
Ni 0.18754514479727638 4.782734301576361 3.9325662036697993 0.675877715081765 -0.01821678011834282 -1.5372276131298428
Ni 1.2812736300094352 2.4836309888311305 5.653184948241216 0.4479615040186285 -0.406493466681829 -0.4431131747873917
Ni 2.6907618438251246 0.8612618420373157 0.36478246059249986 1.8285454283780769 0.7350249148658825 0.8071114484194875
Ni 3.75142250925376 1.102795737440808 7.008272432327734 -0.15793129723356672 -0.3488205374503928 -0.12797897384585055
Ni 1.314668063872419 5.143271707016787 6.1521454832328395 0.538502387622679 -0.44063257445738313 1.9797594614924678
Ni 7.414223113026732 1.4744305985356176 4.773482401047109 -0.5624087619266314 -0.7262978194055298 0.7944202261050641
Ni 7.364442302336288 8.516564188822837 5.244371754942405 -0.7908325087538057 -1.296915856615831 -0.6121632076419393
Ni 0.21267494341664805 4.534600389277415 8.47717657217794 -1.3407948173869682 -0.6203277457306027 -0.0046428980886500685
Ni 3.5749210030182295 1.9985998020237556 9.685091937635903 -0.7362431035436997 -0.908687506791777 0.0964824458994661
Ni 0.4199616824031115 9.23790808516688 10.066472331902789 -0.7577364975307853 -0.8174601386436631 -0.4683922610691546
Ni 1.9250652400998474 1.929064406811419 3.1658396521371337 -1.7567720551895163 -0.6404360864447035 -0.42254563504868514
P 5.1605210130882755 0.28341658380880896 0.10182193927169692 -0.8338498928555961 -0.35611732822212216 2.108185550178066
P 0.1532543779775925 8.622723043456457 7.836287373566368 0.4226610775806269 -1.6755935866369724 -0.2554720091942181
P 8.63958263954677 0.1839895051595172 12.796297961936071 0.48701219016318703 0.6473960627023043 0.550829027508832
P 5.8673714096562755 0.008105039727512144 10.092017821168744 -1.5354818340833298 0.03791400143695406 0.23374335926787487
P 2.171872282700987 0.7805992989815532 10.86082189805343 0.4569901898798 1.3380617347265213 1.6803228737918414
P 9.123166332138357 3.4965243451387216 0.44387874067630584 0.5438795927741923 0.32773132088026136 -0.025370360443988566
P 3.146342090626634 6.7839600065685035 8.502735051776604 0.6842194021782411 -1.1941308655371048 0.3830493767262758
P 8.641559025879866 1.9856558633633326 8.927220153604056 0.841915186362234 -0.1264180571166339 0.904270608671004
Ni 7.558759121996917 5.330722207961493 13.499291157571355 0.9482084477045347 0.33677311936755544 -2.244423678708915
Ni 5.255879333957929 7.519352019852962 6.023551396135396 0.01828774256559431 0.35805182624067367 -1.4133423497373916
Ni 3.9926622664095563 2.4916849951087277 3.7548927838480237 1.6697499833720018 -0.4838438197375345 -1.6721853322863716
Ni 1.3154660414529182 5.716850568832346 12.789982804479235 -0.10650717712531979 -0.2647812024102859 -1.2066217989152637
Ni 6.988993850711418 7.427983586885805 9.697368729923793 -0.1550992271014103 -2.088344604192739 3.2054719584905955
Ni 0.1848505786417303 7.2362926701935635 0.7685683951341666 2.4151685827673823 -0.5878559983551424 -1.6116070564826823
Ni 2.4688684035918955 7.9682979181654385 6.706255547846033 -1.0120239994985991 0.006747088915846446 2.113977217159179
Ni 0.2137707707684731 0.0666663874461697 3.4998378078596084 -0.832030066038038 -0.5274530717870529 0.524832089224438
Ni 2.9047219022987396 3.248622403066664 12.083716972882998 0.910991215224289 0.5540164240978781 0.24371409732734156
Ni 0.023456829343046017 0.22965330826312969 5.876271643321563 1.4019832159708308 -0.16270814979691978 0.5887173179141733
Ni 6.88285355369595 0.768077546134069 1.4362714962123277 -0.07417632620309807 -0.6123645250194679 -0.4466456134206823
Ni 4.136186885190504 0.32211385705848206 11.84908651143173 -1.3662633939717181 -0.7564645727968972 -1.060277178078032
Ni 1.5677197449814186 8.623957125063507 12.471221381139758 -0.7740843427611894 0.8265518165322863 1.4507400736595595
Ni 4.507673285340105 7.228312894388571 0.18144432783008782 0.722237276182911 0.567636585984474 -0.01515793868736099
Ni 6.326830198651373 4.057697439220241 11.60773448068612 -1.0564552332287807 0.6270992601264812 1.213632425905142
Ni 1.1646946727839487 7.120353950794291 2.874578763135836 -0.6790265451233919 1.164879167760839 -0.8478498066791141
Ni 2.2526072004675393 7.317964747676748 10.882768137278973 0.5721054203891051 -2.065165337862798 -0.3240181336947323
Ni 7.070554582485696 3.135021943554436 9.608321854987343 0.42247852925617563 2.984992920431795 -0.4062898353114551
Ni 5.595010526861009 2.7158888588017738 5.795752921806472 -0.39056034039134024 -0.541039809332552 -0.7750978716273684
Ni 6.525396712868615 9.056423858457768 12.194859475871105 0.6830935161039139 -1.7476464387391644 -0.052637937910689984
Ni 7.14937806558268 7.322307230324116 7.5245063982944425 0.8264749405477637 -0.5507464950973547 -2.539020936039369
Ni 4.776192741178083 7.074442403488361 11.342779015414068 0.3870129893597142 -0.34849529290049014 -0.030452402952586263
Ni 7.517524094465075 0.058007402816845924 8.729501722536323 0.6136086818392142 1.8333243378239588 -1.6712409660952314
Ni 3.8935367490552206 5.768978918218909 6.5590296121248395 -1.0205266376529716 -0.060654123346947156 1.1736399446726045
P 2.5139541368900997 7.9297444664564365 1.2025225216232405 -2.1184745908088995 2.723773467230838 -1.6920090518805182
P 4.798526834622985 3.6862017602615644 9.966520072659819 1.191124474610613 -0.9180098126339673 0.5781104889326043
P 2.7781496676988615 0.8975456970464326 5.0243544899042565 -0.12527905841618422 -0.20855091916264729 -0.5725239959837624
P 7.827009492371703 7.923230742485385 2.9909229664917105 0.08895836960827906 0.5012103360404401 0.20895123992485948
P 5.837001867551927 0.27550268754825363 6.605733569725825 0.35733037469361684 0.42990593206849836 0.15510154109425545
P 7.357297619348097 5.37496356963382 8.574426842218104 1.5776417552808313 0.5995231502804256 0.1092914247386763
P 6.203579777700551 1.9582555401631687 3.089816513619157 -1.229882054994785 0.8232327794613821 -0.4009661091056966
P 5.947094937233589 5.769702665326804 1.494083116157679 -0.8711262607085515 1.2431116663111816 -0.1359470796529917
