# total energy = -340861.1727025389 ev
CRYSTAL
PRIMVEC
9.34483721078671 0.00000000000000 0.00000000000000

0.00000000000000 9.34483721078671 0.00000000000000

0.00000000000000 0.00000000000000 13.67711384860892

PRIMCOORD
 96 1
Ni 5.484363447344636 7.5594125736214455 0.7008553112610941 -0.12773986125185097 -0.29590157796417427 0.7704621726275699
Ni 2.7658662134587586 6.923216059649892 9.5994465950532 -1.6785043325258642 -0.5742245236146368 1.0033267288349172
Ni 8.849093550313778 7.880435764638848 8.727927457190885 2.951670137909949 0.7872095672892377 2.0058654145509003
Ni 8.830273048270024 6.0825358189050505 7.059619844248726 0.30728847964487727 -0.7842458566752236 0.806246786426347
Ni 6.311390880996169 4.415958869805245 8.588461369454148 -0.241299574348578 0.6079969920793916 -0.06624524428147946
Ni 4.423331946325862 2.1276699043345926 13.422705429939947 -2.1851702923642367 0.04279601211960371 -0.3601123083141282
Ni 2.7686322852586347 5.27475874980671 2.5041696556464057 0.19338089629042826 0.0917403032287904 -0.005960331348492961
Ni 0.24889786883562745 0.9929356726211421 8.030284900945999 0.9190716782395784 0.2764049026921433 0.10252556676975245
Ni 8.873876058466724 4.944007583303931 12.12212183173101 -0.3994766690443636 -1.045552727383664 -1.1274986702298517
Ni 2.2883637241679473 7.3735717969858365 7.233319808443797 0.21635498858809835 -0.19716710280573785 -0.08608516182554206
Ni 7.360302128216159 0.5279945134431479 7.742928354771213 -0.8955507122995029 -1.0670057550511172 0.1330342768815709
Ni 6.1767411223325945 2.032548806865197 6.269725990026815 -1.7269009786616971 -2.665691218376125 -1.112180808925859
Ni 3.44743191185058 9.454171756536724 11.738601304259577 0.3237000882336812 -1.9128030500765765 1.3215028019265755
Ni 2.8041333216361015 7.2786095617481905 0.9117953860294323 1.1632321190757193 -0.29335747138608187 -0.05538747563136912
Ni 5.020644592867397 9.24217478068539 2.3135246982259443 0.3478316911745623 0.8863147955235317 0.5891898866752175
Ni 0.09571916704774701 3.788976365275173 7.25621465949007 0.2782699809253401 -1.243616116751426 0.7115252890820456
Ni 4.77475389263042 7.6500481492532035 9.180475493324973 1.2581166243604462 0.6350869063176481 0.4219992756269119
Ni 7.015786016574132 2.4771200899980212 10.172175778473335 -2.1851584652896947 1.9193567920346946 -1.0246936245464675
Ni 1.276729032386155 8.038391547183812 2.378286288724265 -1.2063580037309158 0.09072214637692118 0.42389237888456677
Ni 2.7056013586026695 2.2384903282357183 11.381479007286355 1.2874202584205698 0.8034378562226422 2.1118316315710857
Ni 1.8927593877626638 2.5909869308138758 3.207434065927798 -1.0872912447730307 3.8486542402218684 0.0935696431280453
Ni 1.6469901704087886 2.591482207183448 0.033293785839862644 -0.22592206345124316 -0.2307608796007832 0.38405262117980954
Ni 3.935718343226044 5.5089403690800225 4.978209687315916 0.5844485153354902 0.2363931381858961 -0.3067619177174459
Ni 6.4785606729826135 6.290243514499141 12.749805199048213 1.300471178067257 0.2573149759402278 0.526301474681113
P 6.580503501580082 5.435732914754917 1.4407879280814544 -0.5314951030669104 1.4054758025051215 -0.08600674317912284
P 4.0287929213570175 9.193983455442275 0.2121250001204474 -0.14701027944568876 0.5499797921346593 -0.0620718296300802
P 4.6092942058445745 0.8043905001109242 4.452981245672644 0.1601568441299758 -0.8170199657824511 -0.21365970114412233
P 7.372459761363589 0.2240667675294405 2.2597601120995647 0.17209113367371653 0.5835573709797885 -0.16023346300418212
P 1.1127925540576746 5.752803239652902 8.536557340406672 -0.7224578768341494 -0.3511008488441372 0.02146871139673722
P 0.8313241897785036 8.912133821806906 10.282139280806728 0.12449461484167594 -0.5607959089135568 0.16239216121839775
P 4.08382466740253 6.730404034491621 11.5043813711539 1.7313456446966116 -0.009670690320544635 -0.8737739827440435
P 3.2147174320116614 3.786770983705001 0.9602315460061854 -0.1945255514178327 -0.420195903869586 -0.962432818834033
Ni 0.13035393702031994 7.935747855799212 0.39988614079279505 -1.20586229504142 0.022580970624309495 -0.4447671654510469
Ni 6.580204466790905 1.5281238417114007 3.7770850599868533 -0.23212716382069054 0.038186024151418106 0.6755853806523268
Ni 2.7061527039952127 0.26477100923856633 9.394645143816412 0.5802990119434909 -0.2902004138143389 -1.112025257184601
Ni 6.509155669850164 8.879127856951625 5.2581800741980596 0.6460588319481196 0.9417454656880103 1.2586686402091742
Ni 3.6856878801264132 2.794760449962872 4.771971934607367 0.2205515431679492 -0.059531065486097476 0.35189223439718104
Ni 4.274777069965613 4.873519476592895 10.346107494630017 0.7349094723339408 0.05920967759093674 0.41837967659645364
Ni 4.396783263949347 4.948558519001701 12.831061361620726 2.723383945101903 -0.030037941122986973 1.7154040337656908
Ni 5.4702153638817546 7.43048185530086 3.893218023814431 -0.05423819251827433 -1.132745777561404 -0.3589995348659237
Ni 5.913039162465332 8.206589271258048 11.414126130394626 -0.7027460002275188 -0.42134955785805495 0.5219848495836301
Ni 6.231754178703783 1.7225525236986527 0.9635284045568488 1.1530330670555304 -0.3043491945108952 2.461617104037909
Ni 1.829121046691185 7.692604537687787 4.4647024749246205 1.3936564412726902 -2.3007961439613727 1.1745354599036806
Ni 1.014391418744507 1.7142823428105092 10.210115817350015 -0.8965333879277463 1.1397862293479533 -0.9458463752302614
Ni 0.9073089297080789 9.023580349797868 6.008478918881942 0.48351780385668336 0.7658082187953263 1.3451803480491737
Ni 3.042267807028832 4.561177639298752 8.49627735430469 -2.056779170681632 1.9452981944908045 -0.3142196595470717
Ni 7.753448772447904 7.46102078314544 2.36069743621843 -0.9634844000269986 -0.37366922106295647 -0.4335360726219179
Ni 0.629419638061856 6.332650385539138 10.713406319272377 0.8762142167544201 0.10141510731439309 -1.516595024481156
Ni 4.897984260282342 1.3328541243795915 10.536834686617501 0.8444670062498101 0.42517561647236457 -0.23059812877067382
Ni 8.274647720307032 0.9319998584568397 10.74720285735154 1.6065502107850655 -3.3391646948917715 0.4634968806500663
Ni 8.478383860107382 4.064406095780424 9.42948082778796 1.2403204767192897 1.0263884957503873 1.0269685366235735
Ni 3.3343313476819887 1.6112461682651162 1.9902662221594527 1.121954857593487 -0.9874884762510799 -1.7693732888932947
Ni 8.711715099198974 8.957792696179188 4.061500785906839 0.019763812890488543 -0.6884658361594207 -0.9148409279876825
Ni 4.40183882085385 3.5071734558256114 7.092896809381697 4.1099914499476125 1.5989238045880592 -1.6632504916905873
Ni 2.529974488984847 4.39862419687021 12.103001360414362 -3.7099005443580175 0.6480617213107612 -0.10171438372236676
Ni 8.534312710520421 5.570494811464433 0.5945465747416585 -0.812859149536542 -0.07300801692660974 -0.8965483003260817
P 3.5758299744529474 7.762260953891429 3.011741027472562 -1.1733902905556437 -0.8187138085451061 -0.06251560203571813
P 3.256217853846968 2.6229649635813646 9.420071511249802 0.8269176845121372 -0.7853694287567055 0.6196392043040103
P 5.572092778619091 3.674203075254629 4.228566850200787 0.6488240533980826 0.33426937910909527 0.8435131269769731
P 3.2583017525340368 9.447069680293795 6.914765523404527 -0.5737570970599152 -0.6915210780459767 0.581426697790031
P 7.312802320923012 8.366002848400244 13.353376083036967 -0.07160342326959927 0.1016264519942508 0.08689171688723746
P 5.712480267299976 2.9682566967078166 12.005524429496493 0.07122649954615476 0.30080595724432707 -0.5608894970686276
P 9.671813014033749 3.4515436402017476 1.872793208682881 -1.010152750617815 0.46505265517296035 -0.49449024370778705
P 1.145667691192691 0.522632445879739 1.2650031307155984 0.28898968133568936 1.103443943273493 -0.166271698778462
Ni 4.94094247671488 0.9371469947655285 8.15880911885005 -0.618179074818716 -0.32009514449124227 -0.3154445330931084
Ni 8.970314777975926 1.9596123528177827 3.431724175065404 -0.012846002724732715 0.31950173388161746 -1.7681543288845292
Ni 2.3045489821320886 7.4021202745149655 12.351992677621608 -0.4971719043050082 0.28239917260236524 -1.3403672429312465
Ni 8.632601707787648 7.977528622749371 11.646705110094699 -9.590214791596386e-05 0.6397542298863304 0.6263875787714375
Ni 7.1972347197437205 3.478755806016747 2.6411191787354853 1.6809841615249244 -0.635634294180686 -1.274967634479514
Ni 6.949568500446012 4.001627479727826 6.0962727295328145 0.6314606224189706 2.6580383298165575 -0.508078523915183
Ni 8.583214243387829 1.3330690556343117 5.519576662737521 -0.1724994248557287 1.2247976984933422 2.64231037755834
Ni 6.833711209314705 7.374683832608084 8.061304153420693 -1.693845590868625 -0.7142799690090473 -0.30882522800437784
Ni 6.625209202561866 6.432060763265773 5.793762595416545 -0.6954073004742605 0.32757731180090033 1.3567235728020828
Ni 8.683129242321199 1.488894215306398 -0.052297446691985876 0.6824900781919601 0.5347166953280017 0.8082545608849951
Ni 1.2927180487698997 0.21811877867599022 12.7767220680089 -0.025995138512181038 0.7183358842459758 -0.9688366654778476
Ni 1.6936676320317012 0.5320043830692524 3.895570119328042 0.40927051520633384 -0.24886735939350688 -0.4984605412094448
Ni 6.722115163929154 1.013812038840479 12.512576228376453 -1.028441264514358 -0.40291320552973836 -1.0098257062956995
Ni 4.816899108229886 7.792566260806966 6.730192841171767 -0.8178992830636108 -0.03252445499026657 -0.3552161565640915
Ni 8.701342329949439 6.604884181735072 4.78188867580341 1.0352094364761266 2.2033773022905665 -0.8028117926028691
Ni 6.926281166238944 5.38104692768439 3.8075034394320473 -0.44242309069890257 0.3991897339315641 -0.7432794415651908
Ni 9.119000482056439 4.4331066459970465 5.094615520388617 0.6369072473558386 -1.0595158744319753 -1.3654200721348162
Ni 5.030615534118978 4.07380700196514 2.063821304426974 -0.6097245162934596 -0.2005373048295514 0.06233125393905394
Ni 2.6536440639833714 2.4674388386984543 7.414541432070355 -3.405594801490548 -3.9230827916450886 -0.4532101540120776
Ni 7.587138705480341 6.37413211770012 10.342373297700183 0.3344460138962756 1.1078238175087438 -1.6420129224680495
Ni 2.1766368510621326 4.3611420550144535 6.1257874632244675 -0.7673323687493365 0.3006961711393402 -0.7318688857354041
Ni 7.061332752900473 3.7843319812057863 13.642538051751401 -0.26435157107203505 -0.47279450390190836 -0.3346635292237204
Ni 6.543983877951984 4.752279559256424 11.178551195900496 -0.9723801598547316 -2.6328353481883693 -0.24032101248539253
Ni 0.05072938301624518 5.8170676848142175 2.5015577736596986 2.144561774814255 -1.193951659646763 2.735670218668424
P 9.067669291526977 2.8564083407188994 11.590368824781406 0.20545196852234937 -0.16932051290711486 0.5161906114993562
P 1.5936965640753606 5.51492106486354 4.266520906333212 -0.7678895268043873 -0.1229385832084657 1.1307431453090786
P 8.389804148651207 8.147436452024206 6.649799207069281 -0.8174573104301858 0.5157918333990408 -2.0059572029337582
P 1.5005939514329019 2.164479217914703 5.339955809716768 -1.2129199732191498 0.5570030175300278 0.9677706861071784
P 6.690688476554208 9.098404460951954 9.696594587702977 -0.7690840613331207 0.1885618776352301 -0.9527842400006752
P 7.568047203158898 2.640215532981945 7.782879402605102 1.0082758453100764 1.2968217542401277 0.7531869304868899
P 1.0426688959959454 6.084432820848885 13.36379837992346 0.38464346068627303 -1.0605677127352573 -0.34650603038460326
P 4.760680567864832 5.7479813036774425 7.670672204869173 0.5461565617338272 0.6407734151794642 -0.27734181268411595
