# total energy = -340859.81029535277 ev
CRYSTAL
PRIMVEC
9.38001549421136 0.00000000000000 0.00000000000000

0.00000000000000 9.38001549421136 0.00000000000000

0.00000000000000 0.00000000000000 13.72860082227696

PRIMCOORD
 96 1
Ni 0.7023295817189521 0.8884075107402963 11.672961885006714 0.05516841764202757 -1.3166673282111452 -0.21690597599556194
Ni 5.251748612287382 0.15660498302569129 10.799479854572036 -0.49382947019533663 0.2306868318297382 -1.4638820103581562
Ni 8.731621719137998 1.4558346507753803 4.789496769526559 -1.9045883754762682 -1.1795123442929816 1.361135328716533
Ni 5.413947836423097 0.9134831055750181 5.992973365345748 0.02149390820771782 1.2084542241383123 1.1646462258144263
Ni 6.122711170619188 7.434403126663274 10.83882620464618 0.3550570052784079 -1.6417146745013402 -1.0435223272171965
Ni 1.6165049324212668 3.1017271710532976 9.864630950203567 -1.6454317183416112 1.1976877296504276 -1.5429087226750202
Ni 6.513604547175264 3.381289146310114 6.317078219139071 -1.3426861208724101 0.9014508798340217 -1.1953349131475348
Ni 2.6082070473731824 6.660467446336316 1.6111339356747882 -0.970269027049 -0.3297336960222709 1.3155753806985473
Ni 0.2766354104910088 6.107543685919474 1.7645093794412885 1.1953675661576832 0.9463976197480412 -0.5473048164056574
Ni 5.619557771251624 1.6700929596874794 8.496479744217586 0.7498079867123281 -0.2592098789700955 0.09923866848836457
Ni 3.0836894016794263 6.422862279404682 10.160427855898398 -0.2763257127147757 -1.5749670366621458 0.07387473580227921
Ni 8.09472806197914 2.12886012677363 7.383941458488227 -0.29696935710705624 -1.6697656671012855 -0.5999522673980442
Ni 7.334881164595269 8.832381843222306 12.475576962037058 -0.2130475214814202 0.5216493206210823 0.5039305631850806
Ni 1.1123760114651002 1.9280902798270154 7.231925178935077 -0.3035981752774836 0.16893947541861226 1.154397808613541
Ni 8.584205399075719 8.590396209157236 10.206239850501614 -2.4672809871919057 -0.7124735119279277 3.4741468395283333
Ni 2.0555271673534916 1.6134564274568841 5.168392168544353 1.0169553753619454 0.16330515995097036 -1.168244741798962
Ni 0.12710483498574068 1.774182989194421 2.652735855886777 1.1706716060728999 -0.6238339591116483 -1.3570110221355145
Ni 5.755108371990996 5.776991947627627 6.144482186072519 -0.021148866163473255 0.5475429005583925 -0.1344967203597103
Ni 7.652854302403309 5.166578073590164 4.06966501730594 -2.880063886426872 -0.6873641184548098 1.3886461325422925
Ni 0.6976611481165725 8.92167020862526 4.940621009627054 0.673288357088034 0.8238770979136004 -0.15063064980709542
Ni 6.759135827014294 1.1764884158698896 1.9715647746236966 1.2272960394351637 -1.2726513276415115 1.5483116388581464
Ni 4.536963308284725 4.867430626439097 4.1940046237886035 0.543928957954889 2.675251865481367 0.40838168484347737
Ni 2.242217611372295 3.034397421409175 12.172408302337589 0.658344334183692 1.3330419129144266 -0.3118401035713016
Ni 1.3711612528877384 9.239043025455699 0.11958487673975392 -0.2120432485866219 -1.5593126179543402 0.2655250225548459
P 1.6168613730017178 5.99308873953363 3.517542310193585 -0.40661790807483517 0.5831529364525183 -0.3751067248404314
P 8.128655577228901 7.226269967725766 0.4209000454208785 -0.08890129111809851 0.303780980712251 -0.16637351446364895
P 6.74016005611292 3.722909302626489 8.367815012691608 0.502595903534057 -0.3984099183427461 1.461630238209502
P 1.5043668498083544 0.600434475786366 8.952832495371945 0.2866777453730611 0.7119297236093158 0.38082537249176346
P 8.071906484815006 6.34976382036642 10.04707037129973 0.11634473204103189 -0.059383227054323535 1.4766580790769022
P 5.960352486223797 2.693068045566325 0.7809716297847535 -1.5143679349228498 -1.3580641459903773 -0.18651862195295618
P 6.051151034086029 2.5516267952342377 4.418330503095386 -0.3801681985237388 -1.575678203796557 0.15789375912741194
P 2.5809862430450634 1.2432366045669605 2.905232735069039 -0.39176927309777687 0.2474774210245157 -0.5917082822216971
Ni 5.5361319153955595 2.558671186705781 10.728900867636645 0.13386011521697594 -0.07228862226208196 0.625141107958846
Ni 6.639202951707836 6.245861391164979 12.867927054965346 0.5305756765764346 0.15753303335388352 0.3708158107745614
Ni 5.195008899888761 0.10731112675238495 3.847810772024127 -0.23725034397986883 0.059461645700742756 -1.2418878212064095
Ni 4.460553703854379 1.056508640487057 1.5262082153762482 -1.3648156057815979 0.035401519427745484 0.5387972931552785
Ni 0.7561389773456548 5.185535084460986 6.80470394122036 0.7616399463502496 -1.6390697806793255 -3.1365746212982497
Ni 2.018607427230997 4.192491627324743 4.675700300213022 0.8309018659708658 -0.06733719179407757 1.5188521959464487
Ni 3.4515548407353185 8.88858689475025 5.94799900610659 0.5837314346638076 -0.36904483491706763 -0.8420509406091498
Ni 9.336285643811872 3.097487404148987 11.92155949183915 -0.8434177390496895 -2.007484181101246 -1.1211120499772176
Ni 7.234111660495685 4.30859745639899 10.844990750684925 1.755773438721673 0.6892279111364258 0.031302923878339634
Ni 9.080417587139767 3.887612990840636 8.36431439099097 -0.6286645477310722 0.2823899166309846 1.7831050366570904
Ni 3.4014655591666902 1.0575123021214845 7.734171530825547 -0.3041494197952633 0.7306237004743933 -0.27470206106842365
Ni 2.8282059256335965 8.572743020409641 3.5325334506061288 0.4093533047281273 -0.49104419414071565 -0.12137072450071355
Ni 1.828540177713185 4.733024387563277 0.06541997853412762 -0.23667570242332142 0.39986670539393065 -0.25987656601981696
Ni 8.668287856001035 0.9252287607024031 0.3769912559169635 -0.22089555677092926 0.7216400089185443 -0.5688820283558009
Ni 6.761705951199651 7.8431466722877206 5.002839588947816 0.14480581559520223 0.08743576231616555 -0.21619378041988574
Ni 3.060098663262741 5.506022066362733 6.804854959466288 1.0272130485342115 -0.020953976543847782 0.3464291544000808
Ni 9.324682564916667 7.502502037559948 12.091135159987145 -1.3444820364305685 0.6924423043086655 0.9486977286361274
Ni 4.037064774217594 3.743188895651091 8.180914456330644 -0.9756729716733906 -1.5173879526960965 -1.2734234299208458
Ni 3.951594075031575 3.240054256314077 0.6259556213466514 -0.5448429851287262 1.6371743634288254 -0.2547515860884258
Ni 1.1717984082323774 7.992448375420279 9.643682814397323 2.471187778445479 -0.0924974931097891 1.2583811908757425
Ni 5.0769614076525835 0.8765858774891835 12.771785650402459 -0.5942025093984605 1.034885477477805 2.447348767044353
Ni 8.6446408374927 9.27502476405069 8.229486051427774 0.9587090901255423 2.167713787450686 -1.176429848712916
Ni 9.429166555065159 4.111767215867886 3.2448643281471092 -0.42765981634679895 -0.2550464916210253 0.36464387763589456
Ni 2.148042258011054 4.174866578622972 2.3136952037710334 1.2549479968244772 -0.532707892428089 -0.9083411791959518
P 1.456903972516733 6.200274516928361 12.166861899305466 2.555130697117038 -1.3924066280259892 -0.17338928365984976
P 4.042261302679957 3.031714737040518 6.022764293859224 -0.9011192075262159 0.130139214721963 -0.10855480368296788
P 7.432095642905617 0.14878955429854124 6.233581075166917 -0.6201629380179642 2.9958262636018724 0.01603905574073367
P 7.579164902402719 1.6234930438011599 11.955249692702452 0.2109423022129593 0.23784863968550005 0.30362182942656746
P 4.280879511261293 6.836633513216542 8.045453903737911 0.4333818064322407 -0.008471784916437023 0.5947396128488531
P 3.556686051937788 3.7219900611295365 10.619346979232002 1.2751715229602039 0.45889486310168065 -0.27646892316085936
P 8.229922222138063 5.788332386095131 6.017987052079655 -1.1732121131065665 1.014915462113781 0.2954819739282524
P 0.254076473754576 3.1064265587060844 5.457846307910209 1.5351676452770207 2.4313061117591936 0.9145568210883604
Ni 6.262332697987921 7.012649499852368 2.8444014600074534 -1.1377110919864795 0.041897411564734297 -0.3670668852550904
Ni 8.630720894824565 7.995872080995662 6.579294670149313 1.805170501097562 -4.572150842733178 -2.231392299446254
Ni 1.792230138583567 2.15042478189091 0.47050344219826057 -1.233257142114605 0.6960673026557626 2.7615362878019085
Ni 8.511360200449884 1.607162437207343 9.90878174410158 -0.2492550817502288 1.171435480822118 0.014041308584414526
Ni 5.85434893360075 8.610769602334589 0.786022768010354 2.0035529643676395 -0.9233661918498742 0.07938743809039232
Ni 6.2455518506609025 3.550720362222873 2.662991964588488 -0.20114562783751164 1.9079277242621462 -0.2700257386386769
Ni 7.5993225552287464 5.432548406713469 1.8012471472674476 -1.4197539096906904 -1.009030464087914 -1.7201374346856182
Ni 7.191479491070701 3.5998153621723485 13.243088269902152 1.0970542376970656 0.370361239735646 -1.2832920951848092
Ni 8.960250211451434 7.015913745168076 4.0348079425424235 0.30962741219069906 0.4356796013274819 0.08009269168753302
Ni 3.6102740792040007 8.608856079218484 9.466968016623506 -0.19466053433380023 -0.07950236640170179 -1.2370790869638566
Ni 0.7348819867293954 8.563963326112217 2.3787821917628977 -0.22975737803693336 0.30785695055383755 -0.38577808851134854
Ni 3.664687547814415 8.253691180844973 0.5180038395509823 -0.8117286354765245 2.275551767572287 -0.21592175770542169
Ni 1.6615571457872071 8.297233211751635 7.365943085178511 -0.12340061044654878 0.5762189283368463 0.06909325525323584
Ni 6.811513832310028 6.023958369803735 8.345012195558025 0.34712412358457634 -0.45310319612056804 -0.40484821776892216
Ni 0.08177122116154953 6.548601384166379 8.313697014562356 -3.2123622578525257 2.1203268135262903 0.852138663862455
Ni 4.153123703215466 6.034857947553313 13.7074862601579 0.02254626073163214 -0.9409566512381279 -1.2323986507690516
Ni 5.297344866539273 4.744468006198806 9.662902465695845 -0.5299264730282099 1.857830807605755 0.7026827510897511
Ni 3.0334406598511228 1.4675502898538852 10.510506909989788 1.4146219877807635 -1.7300310396502463 -0.22906472284528293
Ni 3.960176789008222 2.8902453466626055 3.5638073595345863 -0.6645219237493136 -2.587849784616614 -0.42585824436168596
Ni 6.167406943404678 8.07084654308893 7.394251971278534 -0.9492813690537393 0.723892809508463 0.6230171196373078
Ni 5.108224998564238 4.680008541228841 12.088979632476944 -0.7393222566896558 -1.2224628797125783 -0.3475540120331434
Ni 9.034952653101724 5.004772810095998 12.673571262463794 -0.44768768153195154 3.256896849929791 1.1798882395751615
Ni 2.4643645131306893 8.198874371577734 11.845022319201062 0.09247898116702782 0.3029242891389105 -0.08800089079101618
Ni 2.0121164566606806 7.091638608483345 5.317210800890247 0.11804448834095799 -1.3409753088288907 -0.17746911015617825
P 6.709787566652392 9.215761827543087 9.314622498534204 -0.45975978220513725 0.1487527160580922 -0.7028100206962348
P 4.572307205841016 5.712729462978437 1.9649743758914648 1.0016915072243393 -0.8319416200892897 1.8040250746392092
P 9.15594547013426 3.4345488730417 1.1609710566004172 0.5127810715971749 0.33599741754379553 -1.095133880745901
P 8.251402457117868 9.341763572732486 3.336503325377984 -0.054825432480312034 -1.3029690047884463 -0.7611113275402892
P 4.57412692880437 7.772759037663941 12.394592724157082 1.4347007608085098 0.0630835587240462 -0.786617956451826
P 1.4875109623591365 5.2414024554390295 8.906292611583385 2.346107723413979 -1.6106655185050198 0.4915162486811277
P 4.620867544919815 7.4435955416327975 4.625522846500809 -0.2560805893124945 -0.44869812507433693 -0.011370189510154612
P 2.7422849857143765 1.041247355634593 12.683181088113056 1.1897759310025187 -1.3838677373170425 -0.27150797961115825
