# total energy = -340869.45318665035 ev
CRYSTAL
PRIMVEC
9.24107115748285 0.00000000000000 0.00000000000000

0.00000000000000 9.24107115748285 0.00000000000000

0.00000000000000 0.00000000000000 13.52524174076251

PRIMCOORD
 96 1
Ni 3.5191016150618437 0.20113931040099436 11.44404570646759 -0.873610717693302 0.5899488763284292 0.07563645568839232
Ni 4.250172009218414 8.70188254311937 7.235138777175694 -0.3439418692018528 1.103063677115939 -0.39376727736441214
Ni 0.4978571733759996 6.401123772486267 12.527484619268415 0.5045010909765698 -1.6456731449284558 -0.03528402001327472
Ni 5.826652573124065 2.076043639049564 1.0732062745147544 0.15036222663705714 -1.1662199980594496 -0.4010309009053609
Ni 7.4601043417923325 2.2772956905208104 2.722198752842274 0.581260861636128 -0.08731646312948188 0.4338898564169108
Ni 7.294301039951158 4.326632633420502 0.5336848069306889 -0.4163960705075216 -0.1947798335204839 0.5573688855098788
Ni 0.7052314346047859 7.856915944794229 1.0086074894745947 -1.0013253821341723 1.471869142328691 -1.9067923251061227
Ni 1.4536574848302393 -0.4096437546537008 4.011018627785546 0.020499662615248562 0.20987786550418694 0.21192086407614472
Ni 2.8427660864055118 7.42149514576667 12.242886421345506 0.35826934156811846 -1.7209645585726037 0.7674190149258718
Ni 9.166884011481095 0.8595222097803862 0.026817589005857158 -0.5531551045388473 0.4793963254891421 0.9905455179098489
Ni 5.69944922623722 3.7098742916424485 11.823049765012462 -0.23562283567877487 0.878347461047339 -0.05205404038276197
Ni 5.18907409763471 1.9885029703202444 4.18557507239252 -0.44575755438877424 -0.7726586660582565 -0.6371633292307026
Ni 8.185500718150971 6.326363505409291 9.17902677921152 -0.23531558885100118 0.2672780006902107 -0.40121602033297354
Ni 2.1277197099388654 4.782799637588706 3.969821007679753 -0.5359508248454189 -0.47151563718948475 -1.1326143941898623
Ni 7.808511213156504 6.720356581654887 4.151099407573723 0.4239977941141795 -0.2732313900601681 0.06648769930958871
Ni 4.958721912538569 8.498514286313064 9.509733302546119 0.7147520235494593 -1.3761294881325203 0.6290730960234004
Ni 2.058596496374492 7.995901657629548 6.346097813239067 -0.6534479253233391 1.055600341427653 -1.0063287488860346
Ni 5.37489355998129 6.279224800544068 8.202923834040579 1.6381356989008302 0.8714982993359893 0.003276870979058873
Ni 9.63816016727734 3.4392125533955324 3.297995121833504 -1.716310347630044 0.41009635354173885 -1.2428252454190143
Ni 8.83171035426454 1.6749534200208875 4.743153593359578 -1.205360415704337 -0.42336376007460635 0.059578888004897385
Ni 0.5693636592369308 5.06574275963603 1.2967311561107138 -0.8718991343188339 0.9993705724006465 0.5993956235636259
Ni 0.9252899903440611 8.688131828977152 12.02311526292466 -0.6869334586752943 1.3317843863582417 -1.2504429098652723
Ni 5.563771816938807 6.364168728229058 3.4353978391496267 -0.3041435062579923 -0.04878565404413533 1.0558589944056782
Ni 7.463089207832612 2.516916670163083 12.741211192930912 0.7468848995282621 -0.846692038925587 -0.17615347666854825
P 3.379293446877966 6.4207887722810515 4.353667387602665 0.6353527583845252 1.3535860556143657 -0.07375826482907297
P 0.16469252506705206 7.075269167236883 7.217366348789731 0.1665288090945906 -0.7104572528288474 0.07640855796772647
P 0.8198456700158624 3.215587868229186 7.344057740324775 -0.4132873496752108 1.0501871408318815 1.3455518724559794
P 4.2657616965557255 3.3694701880519062 1.4779171452913613 -1.7832428477865352 0.1842809908716891 -2.2865424622558357
P 3.93494982500794 3.199083314829992 10.615867362431539 0.3673281093362771 -1.7197052322442061 1.4421747005880516
P 5.3038389625085 9.252345439160683 2.8482672961695323 -0.9937403706980628 -0.10521031269076718 -0.9980266567782424
P 8.227852548066148 7.871267328573037 10.739420486142192 1.0060580117231512 -0.7124398304765149 0.25816061176997473
P 0.010420232034115965 3.1048336283135423 0.6751203277761555 -0.6559064141661607 -1.78989043501004 -0.609625271711434
Ni 7.854448578748549 7.762767910062434 12.974169360142715 -0.7575200106446052 0.1616218587112765 -1.5335072268554621
Ni 7.929088711898208 0.7988878443417124 11.198765494741515 -0.5087256705808787 -2.2158659216758805 0.09473383863947556
Ni 3.0747631821987738 6.719931492373608 7.880928868650783 0.6389330195366157 -2.146389314941297 0.5191386383840866
Ni 5.541417665386372 7.405119967366127 1.4362315966192314 -0.3503241185791128 -0.557877192604865 -2.018336807545034
Ni 8.949718835175911 4.3827259364065645 5.179301664700977 -1.6358682430228926 -0.0019604661604804945 1.1787273864978411
Ni 1.3101713702561715 5.279174543123031 8.690238793240878 -1.0489710090365933 -0.05835709978265434 -0.6645350363754362
Ni 9.366195437972593 1.761948865541611 8.994691432920881 2.2572449988432997 -0.8833942794426269 2.481413569938546
Ni 4.398315623743877 0.06991424927040417 0.358339174831951 0.5515059989711987 -0.15858410032621723 -0.30913324616309984
Ni 3.334649831272419 2.9000792108074167 7.464283154248724 -1.336411857827924 0.03915790114638417 -0.15440862879228892
Ni 4.15620879591326 4.199096607965701 4.8940547435705515 0.2525895454401005 0.3176315134420981 0.7252220698428478
Ni 3.8377152724512107 4.752766155759265 9.25040019364527 0.7372399202393303 -0.023231973944747086 -1.3855615800796974
Ni 1.8754939089995595 3.0952968426987786 9.689293787279444 0.5637336513856421 -0.04879156758140629 0.2995934249934647
Ni 5.223737356201551 7.6837937144580035 12.07905516412661 0.19648884579179066 1.108424170096904 0.011458892569218976
Ni 5.390002711609331 1.7386521247132973 7.582426554801543 0.38343067132509445 -3.2378411188499205 0.04033726616646601
Ni 0.8773168167375462 6.297420469997043 5.121238165306903 -1.1439447316010172 2.9184139469599804 -0.23127741422588555
Ni 3.558782775362033 7.752260811957795 2.5009933801506805 -0.1244845875393469 1.1891763497453067 0.4617382460877467
Ni 0.5915061902558605 2.1464421204577717 11.721042199112684 0.642032741507862 -0.24604685922557626 -0.7407206796990792
Ni 6.587349841971461 8.950485844096479 4.594457362768453 0.02811861261308706 1.04842799204893 -0.22204561121497243
Ni 5.701500744072955 7.037796622985073 5.776671314717078 -0.29488110711945986 -1.2187993148180623 -0.04134462438505783
Ni 7.737031526402436 5.189887311911938 11.697994967210338 0.9878576866650406 -0.4488014834214206 -0.0269346196073149
Ni 8.583310356856739 9.047119727016618 8.025324304643933 -1.0904393034837092 -1.9282576940687497 0.5910446804957692
Ni 5.956489625340569 5.900303911641185 10.522516832155707 -1.2843285068691235 0.15520644210323592 -0.963285139531999
Ni 0.47622382538747043 1.2973077989618391 2.3617369039253315 -0.40350378792588576 -0.9872403647960158 -0.10686173225126112
Ni 5.41136806852923 1.4318670386290637 10.999511362892276 1.379674010950669 -0.09459834150287579 0.01301440998179694
P 7.096514390229461 0.967235213120624 9.140669864433226 -1.3723227127919204 0.6668454296761677 0.7257825703320081
P 2.8970666215531407 2.657020552629589 3.687941532942758 0.22530242758937327 -0.650916160040421 -0.4366751324715318
P 2.898887112605571 1.0533435157934625 6.190421801470778 3.1850365734543793 -1.1655383986113927 -1.230533315425539
P 6.838485196493575 2.1935531021089982 5.536800826148837 0.12678443931711714 0.23954171111720685 0.24924094068284175
P 3.516393981161528 6.826018991266524 10.172347688488497 1.0276632486977526 1.2375477990701589 -0.6192705081106818
P 2.2357016284548683 0.4628797183838668 -0.05433287889729054 0.08266842283450924 0.012856544247693986 0.3564844817535538
P 0.3025073941645881 4.256335803796948 11.182318235984582 1.078722015046781 -0.01850294390019394 -0.889080531194127
P 7.74055237457998 4.65689004068836 2.87184126913781 1.3629266162890012 0.3381250054097596 0.9904125918764104
Ni 3.9464087534597883 4.9616790553648515 13.074472872488847 0.3952145513339 0.2674075842895395 0.39834538365339783
Ni 5.755949136361897 4.007566163535861 2.7855915780735896 -0.2447762200432688 0.12660934719183356 0.12995743772846005
Ni 1.1357553899334467 1.0262117303623126 7.0925019170570485 -1.2144127557145925 -0.2655443058285556 -0.34027907563828497
Ni 6.428680647198695 4.5657361130681755 5.0369087688655005 1.1546171237131988 -0.3694520976578153 -0.6903674240575077
Ni 7.667880589624066 6.362107969321991 1.493633435305924 0.5120184823995376 0.634099088483082 0.6506405377815311
Ni 1.710808776789573 3.915959423420402 12.807132375278702 0.17436218909608037 0.6535705669441324 1.0450395351926711
Ni 1.1165247204912727 7.111226175790222 10.242151969010049 -0.3480584624733877 0.36723786361531596 -0.2586920587934125
Ni 3.806914781701203 5.355210078043842 2.1447787276179873 -1.1344725304445236 0.43084669871521286 -0.6090580863540543
Ni 4.216691607782087 8.536661428772119 4.8401025968121445 -1.7789380497635943 0.6065108944521683 -0.7665353267693379
Ni 7.861527239388965 2.9407584068114767 10.21365435323601 -1.5845238271126454 1.840206923876405 0.5005511051898863
Ni 1.9998972112727673 3.2488926893102024 1.6927517234065805 2.41098076993828 -0.5915758704088909 -0.2154713004315644
Ni 2.2732850655626633 8.584982990767855 8.759799109479262 -0.8135291790203731 1.2777115157732384 0.5043956757469571
Ni 2.021539800332629 4.934898430644323 6.417254062496509 1.1272976099626393 -0.6857044713641998 0.870487855793604
Ni 2.8495952381199605 0.8575899017648366 2.056593956216818 0.47503599163791743 0.382599947893683 0.49838340811460624
Ni 3.7977753621537214 1.1780979787772914 9.211095144948297 -1.2792960866515388 1.6039675376595537 0.11141592728084683
Ni 3.710474961279037 2.347130466577758 12.845626057912712 -0.1877643214345992 0.21148403364904222 0.14262166345968985
Ni 7.410054699457487 5.835699581958226 6.771209273088496 1.8064791926066563 -0.08002275768154606 0.6362858117217559
Ni 7.356511932159093 8.748716292630633 1.4755495828160683 0.9136060271393169 2.1462083092787427 1.9814561324686006
Ni 2.3499027879773986 5.157515839035468 10.853384150131486 -0.8005067986187762 -0.04867098284314198 2.249379222941978
Ni 1.4920264130012657 6.856070955238629 2.673223847103355 0.3101357192856852 -1.8334379805836876 2.0924506559413127
Ni 1.4629724847330319 2.81683564024754 5.333706105053962 1.8293800084642302 -0.8539731459680324 0.29118823164890495
Ni 7.866720721477625 2.270059931667748 7.581073661958518 -0.6597039335353799 0.5481715352813269 -2.512143394922235
Ni 6.10717453448237 3.6988127292578823 7.275606352646248 -0.3421518671809656 1.8506170634661356 -2.3461977120246242
Ni 8.666036427422016 8.783231694056157 5.71164189575284 0.8535121471712139 -1.5077332032151516 0.26198358506049074
P 4.338562856510289 4.810735396225751 7.090837600110131 -1.9684682048493645 0.5658602108103417 -1.7519630638366472
P 6.183893908681759 5.998111410620506 12.857054490829164 -0.6434566184385822 -0.5828945405848089 1.496316733848094
P 6.878434347862397 4.510613122571987 8.913662023052185 1.521212725758825 1.6530378128236436 2.3232128210936764
P 6.298298371773596 8.21081201252969 7.421544123444731 1.371554467167328 0.21722453567724526 0.6693219162411183
P 1.7115110982108155 0.8497969063104468 10.266051227689218 0.05001464135523 -0.2763154283021306 -0.15510874018310705
P 8.532928035953937 8.8523456665492 3.477799570849997 0.7665828921778217 -0.01503786816972894 -0.500328447656119
P 6.672404662512436 0.4888304948987697 13.149686876168232 -0.8400789044844436 0.020401189364171315 -0.4345169484779485
P 2.2252869410635516 6.087749802542221 0.39819221905891844 0.423321079762129 0.17345587523172706 0.5932745982675525
