# total energy = -340857.2925092705 ev
CRYSTAL
PRIMVEC
9.47666979529478 0.00000000000000 0.00000000000000
0.00000000000000 9.47666979529478 0.00000000000000
0.00000000000000 0.00000000000000 13.87006416187736
PRIMCOORD
 96 1
Ni 3.715887397889527 7.92454265603082 13.700862697570399 0.23450234892108646 -1.0463932210070883 1.9545119997795888
Ni 7.153369199439264 0.15673084606253807 1.0566922410521373 -1.0599336786956843 0.8890836165179206 -1.398792734057991
Ni 4.357590595879604 6.51323912858488 2.3725439103724977 -0.43687285030463474 0.5154213374334995 1.12905084520832
Ni 2.70456565969791 7.561188194363578 9.407259521768603 0.16646890239093265 -2.6828916414148116 -1.1595042766021708
Ni 8.555859424257523 1.4966883195700291 8.131407926707572 -1.598991681711517 -0.6047268059685521 -0.42510902490048724
Ni 1.3322112438646243 0.6245826468855962 5.334398303780885 0.35654413134689567 0.9395158050265432 0.6637521354628246
Ni 7.29319745779564 3.48150093134068 8.49761960422669 -0.5601991558698224 -1.2774608332150128 2.1725369198709426
Ni 4.299337508511483 0.7657783886496857 12.172978129699226 -0.8804457383372642 0.8824177744619706 0.16482828146371614
Ni 2.8393333765454885 2.481522766531143 10.642735766458413 0.7121894050286057 0.0209892006571574 1.115612460315227
Ni 8.456449161285082 0.6576856010885548 4.336225444509598 -0.48304497798532287 1.3124484050337915 -0.5824674803497194
Ni 0.8075629197743845 9.101431286919437 7.774323229576325 -0.508944214349588 -0.7145296231260082 -0.28451236229062615
Ni 1.8226288900823417 7.023548304066579 3.7641824009553186 -0.11200393857383291 2.587981167988156 -1.0834191634121342
Ni 0.5612112103247748 7.842531558245929 10.653276665934508 -0.13172455693121185 0.07689321091362886 -0.07756015507366641
Ni 7.098082309622178 7.340429178544415 5.373803243196109 0.3471387788725957 0.195117933586193 -1.2845557923885813
Ni 7.6519557347591975 6.780661264983292 12.734271787048582 -0.3719198424720175 -0.784856493676029 -0.69665788505191
Ni 6.336015932412561 7.180984214339331 7.505937315890563 0.5729181460983874 0.4289790493788547 0.05873865149178917
Ni 7.7023147564403756 2.8365472357148023 0.013409487331363679 -0.13055830453725256 -0.9824375440907339 1.1251949617973398
Ni 7.211262173366685 4.887753393947315 3.122428976616933 -0.11821983757655771 -0.4005601319165295 0.5665837192399275
Ni 5.417641368599753 8.972378001775613 5.946554193961451 0.2730722387744845 0.9423383620770028 -0.227791255449498
Ni 1.3112298976090486 1.931212569123165 8.054179704015358 0.871005675970287 0.7708306117105822 -0.6729571990008604
Ni 2.446506472757723 0.17854898223426852 9.901214808707731 -0.0710668340398389 1.1864579223728793 0.04293922256568734
Ni 8.863908042768694 5.809037295294206 4.919794961167155 0.06497434798885585 -0.5410724623427005 0.42942513577733793
Ni 3.2703891650645045 8.621466407151539 6.664773916764884 -2.3496496751289664 0.7261489525324913 -1.6791867033048693
Ni 6.198064054615627 7.461474677967389 0.9156225389922931 -1.6563645632040314 0.23521762982055622 -0.6505510633915184
P 7.670681633675647 6.389729695093953 1.7506659049599556 1.2436685672559162 -0.04747516276282791 0.0916297457928551
P 8.541464363298978 1.441486719778373 1.9033606374857956 1.1461815913513358 0.35687194699995956 0.49691736509204093
P 4.3020857426642 1.3815657385796363 9.562910027509037 1.348271842490304 -1.4562340068945954 -0.2522254772324624
P 8.152011153850411 3.2264174186210224 4.326502381610673 -0.35791221533901585 -0.5336275760288809 0.7669680434313824
P 5.455434326534367 3.394524058741913 0.8651905469560259 -0.05544943921755612 -0.37696563242604114 -0.48993810556073036
P 3.4704321813738725 1.0767960477127416 5.134364764141009 0.8236981491335749 -0.6356206673339312 -0.18355799666273548
P 3.045545704694233 6.584171999733472 7.1885901892737145 -0.9720019505797067 0.1491936602502527 0.14793484814248717
P 1.5838357722196548 4.158125656409257 10.99043003178991 -0.30761166731225087 1.026711940528077 0.4905376868179423
Ni 0.6929151199255473 6.785636516466659 8.4691298927325 -1.1667473313178294 -0.7529455039000452 0.6285079675485499
Ni 1.601377087449587 4.898073487024244 4.214765814629818 0.468918822996586 -0.9720996524998355 2.1544818621414445
Ni 3.9914879000596457 4.979999294783706 10.546213992347171 -0.279577386882854 1.5936440442463586 -0.5365090113417341
Ni 0.5929893261327337 1.8086887092594188 11.417406114092563 1.6668551783227097 1.5106568046198499 1.1724996604205744
Ni 0.29931965824197077 3.6307774291807093 2.7912392788729297 -1.7987571413720504 -0.4431414569221659 -0.6376564668170374
Ni 4.671543179484373 4.1191102081101585 2.7509056258474756 -0.3275737122564745 -0.2787770024687457 0.35255789300563795
Ni 1.0164296630478749 4.665980374492493 7.537464299956981 -2.3922181446187962 0.7682296837526253 -2.120578267415464
Ni 2.9664818511213937 4.485544587362342 6.32974237720877 0.7368390852564859 -0.8152209649004992 -0.5230531429471443
Ni 4.642525617499472 0.42575833027291593 0.7387831479344048 -0.330901748188443 0.4660867528644296 0.33749739912808974
Ni 0.20873406990060037 5.998930798577502 2.3963445658019817 -2.191874958077922 -0.30496008862201673 0.9886400733570198
Ni 4.33594588275958 5.2730842521668055 8.260205341775109 1.699010422899016 0.42573714540278934 -0.10852163645218729
Ni 7.8589830564842655 8.34787495891375 2.878246476814072 0.14614073235654185 -1.136514757685533 0.5708352954274297
Ni 0.7776820331987501 8.862912992472022 2.300599878589096 -2.047260175447603 -0.12638309011364038 0.932181476148659
Ni 2.528233270457851 3.888476502680195 8.745879914912015 1.5298387768649395 -0.5269992720790859 2.0658464230902225
Ni 6.129850987611277 0.6943972710341164 8.073223071359793 0.7157051314913481 0.9378610430319397 1.2009733423802347
Ni 8.607175589557405 3.3389812988485406 6.501800788507879 1.5990202209566076 0.3360709510942083 -1.0667771839800788
Ni 3.9768559223637974 8.55380298697773 3.628422476811915 -1.0259570646399236 -0.7625118074322417 2.2689710290309764
Ni 8.913423640865073 7.842351501525578 0.5172489405507847 -1.6423301965981523 0.08877607839414389 2.2865242074233914
Ni 3.819704312175809 5.263721302708581 0.4921774637424061 0.5121341820417954 0.2983148153913572 -0.19516318500183163
Ni 5.946932313074187 -0.02046581543520353 10.527419861410381 -1.8148604746918162 1.496636579081358 -0.8504939291701805
Ni 6.722986254454189 2.5149375031603927 2.713455723348477 0.5348169683512919 -0.3420215122506884 -0.8004330079580473
Ni 1.630707379527729 -0.2501073135693407 12.185405834071204 0.9771747530298976 1.3110533244584777 0.34351583740802777
Ni 4.539457360103068 8.707381892767186 8.410557441602494 0.17347181607132703 -0.6973425698237603 2.0268193910947483
Ni 5.752527915112636 3.1406440830477553 4.9510575461547415 0.20973491216841947 0.9596022913637732 -0.2466592959985945
P 0.2975134050367708 0.7074400112561346 9.60854208644754 0.559538896578004 -0.9973280880493212 1.0977708041481158
P 7.444738879644287 3.8246890403286695 10.909803475417817 1.5408173873636302 0.0021602408761124087 -1.1733134145711213
P 6.919627146415883 1.1775140910750972 12.680497373682442 -0.353623615265991 -1.2295336705164308 0.12825896698011457
P 5.520908636055491 5.487882442875419 4.375893835336704 0.3876192554851453 0.25178504726093415 0.08762293862630716
P 0.28223701381545757 8.400612624637454 4.583154283131279 -0.7368403708080665 -1.2446869812181014 -0.5794199517726473
P 7.907607847648384 8.981598801191454 6.97629573464492 -0.6280307708018151 0.434748090652148 -0.039356390310435446
P 6.010170128595169 8.971894691631514 3.8620081647886764 2.3500479390086495 -0.943068298264492 0.23593111094781302
P 2.413935159713273 4.900433177727785 2.3100869724176674 0.5690735755413168 -0.4333442683260859 -1.6970962365954385
Ni 7.081479184671967 1.5629586693284927 6.2819600619625025 0.10535789401222499 -0.09249980710263424 -1.6745903421834385
Ni 9.071049084527669 0.5747799057036064 13.392323187579532 -0.1568285510876912 0.15248621495859546 -0.19741495715048582
Ni 3.537906068157837 8.046393672360624 11.534456249657655 1.1317307060333284 -0.672104621192578 -1.7973870004974013
Ni 1.3820206187152584 4.531070507602533 -0.1783660825130704 0.6369625260738062 -0.7401028436094221 0.7926302240841768
Ni 7.978114268669829 1.3915162415463724 10.806693520675648 -1.6376579879334636 0.46260650762531297 -1.0148655827124522
Ni 2.1490812007472293 2.4973961879304607 3.565938056515557 1.996303481894078 1.1744917511499384 0.9928394561503483
Ni 8.861093471929532 4.592839439352235 12.66031680599895 -0.4383077829789484 -0.3147004558382322 -1.2475787009435997
Ni 8.601129474421427 5.901406392833995 10.448193956789225 0.29935945460578767 -1.383614740765972 0.04691620493556436
Ni 3.9769222590502427 3.992179696932572 12.483404444585972 -0.3712755240197993 -1.6347899223570492 0.817863801839985
Ni 3.1157109656139617 2.976072240647429 1.0950812814978061 1.1047559772166973 0.9513683334897551 -0.7549543067999579
Ni 4.9090759003046065 1.077629994628049 3.150016509175472 -0.9344530457916551 2.2840037549943824 0.00254642057093755
Ni 6.3772678747118015 4.387205188042511 12.685588240533614 -0.6536811243800678 -0.02893005277078889 0.189791379166957
Ni 6.685098529824654 4.809021223806701 6.9189704132200776 -3.069028913037792 1.0607021814305926 -2.9518699126255807
Ni 3.638216614732031 2.0278177379259366 7.5510841693510695 0.07662273086106158 -1.2636627509896559 -0.5449016062808035
Ni 2.1716451508079904 1.1724819795747763 2.0267212872656972 2.103094508808404 -4.430163470423376 -1.7239092430232246
Ni 7.447382870432592 7.867995369171282 10.397568640695319 0.32619585807234147 -0.8221809411581001 -0.07444217826997503
Ni 1.0845195333488273 7.0816687180618105 6.20427411613382 0.4057735577966689 -0.07854077381938086 -0.7445958463837692
Ni 0.7491875833698142 2.3215376321650076 0.8351068596532598 -1.9361633220690717 1.1089471324799096 -0.614952083240986
Ni 3.641827225808533 6.323298241954122 4.9072146824163525 0.6071058477236899 0.2682488492439122 0.7499643097845342
Ni 1.6852456124549358 6.679042938019183 0.9717064167136664 1.5001163100998423 0.6512655729600397 -1.4305872528607684
Ni 2.286748778459399 6.00825584135776 12.182034982732855 -0.3266820536801406 0.3062839496397628 -0.42279143251090406
Ni 5.999025565272425 8.59362395218366 12.650579528095786 -0.06140231436688134 -0.17291851467101835 0.6219904781450062
Ni 5.498572126062542 3.134048321081233 10.215884776193054 -0.34493174391894793 -0.26165242697331714 0.3632346559931938
Ni 0.033551200669936374 3.5530118793282917 9.385885841396053 0.018346877938303887 0.09605255745089909 1.5013866921718335
P 1.475953366721249 3.0238820382352243 5.373387217405405 -1.509973148289264 0.40798162119158127 3.220209778921402
P 8.452506866776357 5.512692363605815 7.3398710027113285 3.4620711393107215 1.5682052924582799 0.5456058314366796
P 0.7640185711249973 7.51665732442006 12.957649206648421 0.862727752232211 -1.4295487842939252 -2.057535846341999
P 2.105261081015621 1.465955480407052 13.387843565910602 1.4033235320488089 0.2696315885240518 -0.6321003128854985
P 4.968058691223622 3.513171960783378 6.981621622899497 0.16612900255301066 0.11259040720492221 -0.06304164974251725
P 2.769803052481732 8.335934355353666 1.9813526797390748 0.9557080985156894 0.2637882423693973 -1.8933236011957266
P 5.319396735974843 6.233611041880605 12.923875304245419 -0.4165053423918762 1.712525169555999 0.17980495737820645
P 5.65687988992857 6.944503403832724 9.435915074978904 -0.9427183711242411 0.4419803467345291 1.243278273796033
