# total energy = -340854.166095009 ev
CRYSTAL
PRIMVEC
9.38676573275406 0.00000000000000 0.00000000000000

0.00000000000000 9.38676573275406 0.00000000000000

0.00000000000000 0.00000000000000 13.73848047870288

PRIMCOORD
 96 1
Ni 3.1111777041910003 2.9945846904186277 10.776971706988109 0.35199173608952283 -1.8679396139049829 0.2657389383378649
Ni 3.4533159184240896 8.617163333000814 7.86648868038036 -0.08059739923809346 -0.33646741520167855 3.006713599938338
Ni 2.856552304336772 0.3580497203634771 1.157601260731515 2.399024626017668 0.9173513531143621 0.4664888733988547
Ni 4.949219022345399 2.407808594780212 7.695128583534572 0.9422373177227643 -0.3995023800759765 -1.0776274964310215
Ni 0.645806647583535 7.881240920976501 11.78475831363301 0.41140684482304635 0.16407957622314967 -0.09318500609511693
Ni 2.075657898996024 3.176312469714428 13.175284649829495 -0.841879448028292 0.014351897846297864 0.9348626225252481
Ni 1.024387101360017 3.6128721577045653 9.69958692784379 -0.009042055597610234 -1.333154270122575 -2.262112868458562
Ni 4.233966267862891 1.10276659294679 9.38971571987771 0.05816092461144822 -0.07292239919133892 0.7344790696647415
Ni 0.6911231351923331 5.3374931888119 1.4324701589756879 0.47463027155906645 0.8362513032082372 0.37170438402710176
Ni 1.250889751897602 5.144679639508437 7.354002262618016 0.5593653471146173 0.247369948912374 1.7015355033137145
Ni -0.22290094863077742 5.565920126268681 12.684134349956581 2.781068187187249 -0.7478241235130798 0.08816724116555139
Ni 4.166832121296591 1.1290119891715347 3.3236818713988425 -0.36410291753076 0.9537103513593702 -0.8169978542952638
Ni 4.796299226244785 4.920392265619293 2.665910852560637 -0.31824832109049067 0.5954502657626325 0.5675517395801516
Ni 6.176792048841618 5.827519892859314 8.035884127215478 -0.2502518984458594 -0.25680152663891903 -1.4270784683765618
Ni 0.7519456206636691 6.88640335728297 5.459314630945211 0.5926575335088439 -1.2707582243838567 -0.1293930805845578
Ni 1.293092649403486 1.8677973646609936 1.7727723218848999 -1.6487985779313152 0.9869017505096744 -0.5975727114222741
Ni 4.831706105557996 7.197461991079676 9.904345136194458 1.1040728351067437 -0.5599759841154227 -0.8014905026882841
Ni 3.504173413683627 8.91427323332471 11.004728429391083 0.6838147105406547 3.2208597538005757 0.30641019080498194
Ni 2.3213095510709763 2.22018592677585 4.524507309718235 -0.5125005642422786 2.269160262223647 0.4075049386654788
Ni 3.1193535769062195 5.268575556808297 0.8509159209623879 -0.6811870431098204 0.43518080731419245 -0.5266909968100477
Ni 8.719807613300379 7.876153294097455 2.749014703203173 1.7413860596517492 -0.20756310132808126 -0.030261112877386594
Ni 4.084941979427968 7.7944884345998595 2.2136123749245664 1.8834613636896662 0.13207319851988222 -0.3269450775335402
Ni 1.9335704302356667 4.829556536267773 11.383937796453349 0.07175948923148932 0.49693124904911185 1.4692694999223146
Ni 2.408015103620321 3.771311371895361 2.695998251887952 0.819439116746905 0.8516820359410107 -0.031878336765835416
P 0.4670985907360543 5.799791387691969 3.6639427325400327 -0.5019215031748517 -1.272258463078467 -0.5864046106205965
P 7.669212662777455 8.657085246500042 6.407050344239546 0.37576981234572704 -0.2852235294250378 0.04907438892914774
P 5.895264179180481 4.015648876805984 1.0821701521755687 -0.2157957736505187 0.5316154306948586 -1.1178524053893393
P 1.9667244858385988 6.438006958048412 12.811339102080911 -0.3464659211752872 -1.1000909676408603 1.0956668704312356
P 9.070853867954527 4.00385909938886 11.25946740910737 -0.7562907662231944 0.019215910806818517 -0.2666372817824182
P 3.883652180914583 8.56438155082208 13.187662977440931 1.0035722691868199 -0.4457398137769614 0.28752003876869836
P 7.926456970194883 7.651584317244526 11.105871765893674 -0.4161798407316575 -0.8716759625644342 -0.6823201282729991
P 5.204388854596278 6.3150966511218 5.583826320059211 -0.2852716090541539 -0.6070348852764383 1.174036665890391
Ni 4.174294599836888 6.139160506114508 12.430480480327411 0.8390959717458839 0.79003726654602 1.2353376787927177
Ni 5.9618538933501295 1.9290835563460285 0.18198122196320615 -4.174591188205868 1.3709055207294196 -1.0740881158191953
Ni 6.4656979161539185 8.50485068427797 1.2059064944626159 -0.004693805931243529 0.3251010823462659 0.8639284574085315
Ni -0.2449626634902257 0.7400685463277716 7.33232258911277 -0.6548995701682011 1.4737699588958297 -0.6376446397424953
Ni 8.122630981532843 3.139347387334942 8.64139432935795 0.07561871507657944 0.6973641670903151 -0.09172076284476462
Ni 9.374938135014828 9.025346829006901 4.837510881318147 -1.382954995694786 0.39234622864716945 0.869198190447903
Ni 6.133087268862215 2.986061507381408 3.7214385483325247 -2.4133287013451663 -1.194803466124097 1.2608232246583317
Ni 5.3078310099599 6.315077877590881 0.8246705247376432 1.4068917090160415 -0.14777106887111324 -0.6901532511641726
Ni 7.065221239286327 4.966246614888921 4.027036900661442 1.1431687726669408 1.1127857894997093 -0.681116337772885
Ni 2.7972091731018525 7.021920090221682 10.864403795184018 -3.0867286443104005 -1.6430243944516993 -1.0705533631930595
Ni 0.8863246776286904 0.847000701089233 13.073702951379945 0.023225031966211614 -0.4831856173282452 2.331293541219282
Ni 0.8122236737383545 8.237975555499103 9.270794788271383 1.43723638274617 0.5304314376890865 0.7255066909628022
Ni 6.833893791302562 0.1204791346726028 10.456288822565785 -0.5879621849157035 0.8264908813873637 -0.5271111150666019
Ni 7.014542092570521 5.593826979979756 12.540127287659756 -2.609373260510687 0.25935488918839206 -0.41543833457994256
Ni 1.228098685361951 8.432910513796411 6.939141021664045 0.40928131383961125 -0.6859284144495478 1.535750257253368
Ni 0.39676918920734305 5.968734392431938 9.94360997611152 1.5675368056363455 0.542239228957292 -0.2259449462693786
Ni 4.235533857694627 4.273268654841791 9.099902152345477 -0.15914151549158398 0.6443523907799742 -0.7377474560033681
Ni 8.934980437928354 1.0799098190529226 3.0545726924406154 -1.7468429690012623 -0.367727915877857 0.4521284909121246
Ni 2.364413578060972 1.0840493826205595 7.0766224046134285 -0.030428491693186305 1.5391605684864975 1.1283936712402955
Ni 7.773828163823514 6.8183586944671 5.288229566327384 -0.5100407898478764 0.5277760023441104 0.06558472787934512
Ni 6.033212084373201 8.486368143088228 12.42936814862046 -2.3195060616660506 -0.9093644782541437 0.11197334244621361
Ni 7.6235742091133964 5.533836161928131 9.857167252995042 -1.0523324693096585 0.7164355818994693 0.3614271704708098
Ni 1.9199596203194005 8.065719022551932 0.43939636851199626 -2.3565708277288318 -2.9071180623311865 -0.768022967058458
Ni 7.639343975085345 5.303569418441289 1.740583225771204 -0.11967611040711003 0.4923364305895779 -0.9418138570321006
P 9.143610687031064 2.018792873842411 5.323317295614972 0.5561280711242422 -0.21140895743673271 -0.8303963870893569
P 2.6451717329544313 9.047039643983792 3.141784191648226 -1.2748395935420818 -0.8777669059535206 0.29438128466490593
P 9.181749115092988 3.712709795131741 0.5281717028451588 -0.3763048589135906 -1.620235678691958 -0.31566256264118536
P 1.671548259199357 1.1201884296396105 11.280625178453068 1.13841634558362 0.43180314909121115 -2.8690189414666203
P 6.2742923816693805 0.9831041068691633 2.7860126392617683 1.6085063060701716 -0.24093936279568184 -3.889007190117619
P 2.611726687622255 2.658585420796048 8.324927979980032 1.0111637083808327 1.8637921673955127 1.6098859600265178
P 5.758208016706411 1.7843865667879315 11.484297338040074 -0.8605891086226534 -0.4923333452657843 1.134553263083788
P -0.025719737359012985 9.368517587440536 1.1824883919942708 0.9108130377752122 -1.5924932184713672 0.33890584943984214
Ni 8.441931195402985 7.175525120200839 0.3279801558905347 0.33769537407150874 -1.1295380692573838 2.132105808439089
Ni 8.15625437540875 8.86940449442833 12.891090938777861 0.9251207126471358 2.284285033680227 -1.5354656361334136
Ni 9.062236817262713 1.2963874040797685 9.954518336251997 0.6321607338097888 -0.3594147680264713 -0.05002646842977191
Ni 3.1164436796137767 7.711406173517879 4.892478841172397 2.4444089676897387 -3.791588091336496 -0.745546897443129
Ni 8.919069870474512 6.796947482453995 7.772888548601018 -0.11092613212862186 -2.244445790196102 -1.476524381712515
Ni 2.1978454249822548 0.13714909145211782 5.195921053475269 -1.6273856594731777 1.492699705920797 -2.0046523680794057
Ni 6.983096428281216 2.4013692736749994 6.028623833416601 3.293944389601392 -3.3570202350159537 1.627095896146901
Ni 3.2111467563346094 6.65592071819056 6.95847118777478 0.38323963836021097 -2.07571817367798 -0.9339218558785335
Ni 2.102682396753907 6.859435180117845 2.7098606271185326 -0.7431776258800039 -0.14208353156803274 0.3965414976754396
Ni -0.03336431914922473 3.3363286605024185 3.321854268163879 1.0866512971961866 1.4491004811736077 0.5908402777944469
Ni 2.2138310865597726 4.896427853401205 4.92922896662286 3.2063679879423037 1.1484521325530674 -1.038880714680127
Ni 7.770111004701554 1.170858189589958 0.5421026014635935 3.053535188277567 -0.34751158883098215 1.448157657644364
Ni 5.948759355534136 0.7274395920785687 4.710677845106012 0.7489911472379874 1.3804725955925645 4.514097133123554
Ni 3.6245492939361754 4.080126568747247 6.843824050482161 -1.040533934012834 0.47432225340034445 -1.082719052021316
Ni 5.649828422711097 8.047630725511489 4.354589958723571 -0.7946796504140379 -2.5753881618144936 -0.5714230496100998
Ni 5.749750541027408 9.254684282713255 7.485397266843464 1.4356502692059727 -0.44436607335788636 0.7808463440753712
Ni 4.513945321223212 3.7989741697044894 13.040606155046317 0.46675061170067356 -0.06497974730549455 -0.32323394723054005
Ni 3.563516544918547 1.304666531215042 12.669475038338488 0.7059130851015907 0.7606457007577803 -0.09075274250454049
Ni 0.31441252509538237 4.283387588007126 5.511232830701671 -3.772870460322335 -1.3011314373590752 0.2186000758685332
Ni 7.523426808426057 2.9566152241349757 2.084539656473797 0.47593510641341896 -0.5949105912090786 -2.3770386086648805
Ni 5.932623505709266 4.089119090057443 5.799163413082729 -2.7709380407317825 4.257924498317886 1.1445396848725387
Ni 8.036347833429176 8.533339517447533 8.659735130389256 -1.9025967989675359 1.1883685091320308 0.7087158446577085
Ni 6.969016280091975 3.4906095375946586 10.872564649074501 -1.0127667912018945 0.3450646699523863 0.0645711990131662
Ni 8.538211248721012 2.0955109079428533 12.17223835974164 -0.5800393305242011 0.28306020322513187 0.09857532387275281
P 7.944385692222515 4.532925360982309 6.936970801489809 -0.07632936799035887 1.0843750995675003 0.16063609775923948
P 6.836174775309219 1.4718260505177074 8.351168682822047 0.707709000659749 -0.08162944004703362 0.8777954451986109
P 5.007961400590911 5.02282065031329 10.873814966233706 1.7010752758478447 -0.3783226606745678 0.487669878351844
P 3.328087080428983 2.3471325428500442 1.3258580929163952 1.1805793521049153 2.2165153823344212 -1.1960000575353598
P 6.877898947776669 6.998115253016406 2.952371467470739 -1.5131392047220715 -0.7574788729940244 -0.6147736486815929
P 4.1869948935035834 0.06562006129768325 6.147063223954855 -0.2787566907537715 0.6932311187585481 -2.318181429317356
P 4.167301459569566 3.793745741343551 4.389911418471099 -1.5235704273577244 -1.0014665356977268 0.8959631172465731
P 2.7313610134035033 6.169123061461212 8.964192990714846 -0.46957985361935256 -0.6111568778646119 -0.49351913804376946
