# total energy = -340888.2505123879 ev
CRYSTAL
PRIMVEC
9.07092395736802 0.00000000000000 0.00000000000000
0.00000000000000 9.07092395736802 0.00000000000000
0.00000000000000 0.00000000000000 13.27621411465821
PRIMCOORD
 96 1
Ni 6.356948841945815 2.457612632037308 11.597862001213143 1.063427807891872 0.9521008407804056 -2.083401401254851
Ni 4.96983222610901 0.3138829947954416 5.829200673747564 -0.24830943000750785 0.403344379529886 0.16601356002106893
Ni 2.8720359334435175 1.5417305141551196 4.811259776589399 0.624663396991479 -0.3008499231083851 -0.6072138340564639
Ni 3.541234275158703 4.260549471564923 4.547421976185976 -0.02829858983437707 0.5859598097736941 -0.3292413297668845
Ni 4.0392914951624395 2.841666480139339 2.373853534689602 -0.3222870099362385 -0.13193872982454696 0.8371817854423066
Ni 5.368263488633718 4.893282699097672 2.6860438950804557 -0.3467729108927447 -0.8480742639850943 -0.8939293746459959
Ni 5.4819403072740895 2.945628339254986 0.3921514618907526 -1.0364188834031958 2.0187001044217237 0.646795453003828
Ni 5.997087147954371 8.132083299640305 12.125697250281084 -0.9702957665218774 0.352441936253064 -0.04645212081495226
Ni 2.3833671197031685 6.615805798021483 0.24507912972449716 -1.841010907834939 1.1435438966181724 0.4363524590247904
Ni 0.46622462667029835 0.06413687471102815 0.13299153695595806 1.405319222322599 0.9025232869625941 0.5323183702991542
Ni 8.234711732938832 9.196737640832477 6.871197661157425 -0.5153807140035511 -0.37812648550336164 0.5683832343425114
Ni 8.729784618970923 2.9853227023550706 1.2599894311989925 2.200469898835785 -1.528666353823393 0.6428480383203058
Ni 7.089942991632412 0.7516566685719064 4.5539938605703485 -0.20800944483688047 0.18304223336858153 0.331817575134493
Ni 0.9273840494203299 7.386580345859782 2.351058302863616 0.7637292247791104 0.3461838711584941 0.12145968467009403
Ni 7.834602349487818 4.060680733779899 3.528326350412035 0.33337977741529035 0.14865578546891173 0.7496591198392895
Ni 7.946546621658327 4.2058608712151955 12.448707408730845 -0.44151292017980737 -0.9978438513434751 0.04712137896783498
Ni 8.464333101201069 7.203293257011448 8.745931770651557 0.28515256697778635 0.22595857311613343 -0.3197238771947526
Ni 7.181305337414875 1.2201662609791588 0.3284499915281715 -0.5039580739889062 -1.358961460993666 0.9893352996518318
Ni 2.4243404830768163 6.833018142352979 9.223954948072377 -1.5816231085260828 0.09406663736912187 -1.2406678327563794
Ni 0.42935041381880057 5.1993175305123565 1.6350186170870669 0.05384429951396533 -0.702822619101725 -1.3960429392269957
Ni 6.458797175786709 2.0766701108418877 6.953323992198455 1.1993859432884568 0.818797626508164 -0.6066067966000843
Ni 3.7840719795810904 4.695799614305181 0.2874657430458125 -0.05041007702143576 -0.836046900506915 0.0019447824311966508
Ni 6.121839564708362 6.0949714880396115 4.582497424822952 0.5880521735263485 -0.014939137808335563 0.40769082942403984
Ni 5.396991104707294 3.128906357179395 9.069181401492965 0.42639791891523987 0.6072842822830832 0.5457133035488214
P 0.3812300694838738 5.701837645087676 12.267473977059351 1.646878220980151 1.2284031564564135 -0.5416633018491639
P 4.300461536839231 6.540489916664078 12.35580028460379 -0.248007839606689 0.30278853489199464 -0.001121772309269036
P 2.746040800111667 8.819722829697007 1.1060993926099711 -1.7908486851582512 -0.09311995718513641 -0.4008352399547871
P 6.712646981855236 7.981025203500974 5.98637801516736 -0.4748570428578919 -0.3097785930565826 -1.356167957408929
P 4.919316250765233 1.219676431087156 12.627869948470037 -0.4506099973850691 0.16544020401610218 -0.14704576066931452
P 4.348002249135288 6.558758757450999 8.081988215166692 -1.0772796261732995 -1.9679321298402368 3.0943303679170575
P 4.733942849413923 1.1603979432308824 3.716689528289347 1.6693630323462283 -0.24572855665420906 -1.187391232820426
P 0.37687511890701114 5.663803261066046 3.7318905826045032 0.0768782985152934 1.4465268069091604 -0.956151099590379
Ni 1.1751291236866723 -0.14163249908784578 4.296448560094378 -0.31724327686474396 0.21721553681618075 1.0141086499417697
Ni 2.2377878616151294 6.7026054690691765 4.7324524966128845 0.23540532035133008 -0.9218752091266446 -0.7591331207679958
Ni 6.303285255999723 5.872135170874008 8.965759262350915 -0.30232702187454386 -0.9377931659084818 0.9244164874912595
Ni 8.955505489944988 2.2715498404676238 10.097928490324149 0.18116661361242348 2.259798618503089 0.9932428622363539
Ni 2.7527986384365213 5.159078911976713 6.644771979394312 -0.631875598469202 -0.10204991268491456 0.6590562726490521
Ni 0.6343142895730475 0.3565190585247214 8.831961320257937 0.06137120401862979 -1.3868890406418697 1.0203422895563072
Ni 1.5901873897677001 1.35798080818656 11.56248086243986 -0.4401746609843581 0.5505284655492777 -0.9418290265407522
Ni 4.442339857965472 7.188162955902915 1.4282151579606315 0.06602721473340241 -0.3280899897712608 -0.48702144613456766
Ni 5.988061578648022 7.991701680961851 8.10175647967858 0.22611643885023638 2.037958181320387 0.10457087933455539
Ni 5.354031208993858 2.84301804780431 4.8436538601138555 0.7361204619229065 0.051089876697279754 0.05094743758214451
Ni 0.8370612315197853 7.655161332384099 6.502623344735078 0.5595118999948107 -0.5578118865845684 1.067941122381193
Ni 5.210284277538865 4.802609743533585 6.870453845395494 -0.24037037766608924 -0.856815243402518 0.06624087340610528
Ni 0.7357653169459836 7.659651439727459 11.134641664547129 -0.31698359544545407 0.07398220791442098 -0.08501121203507295
Ni 4.637264942210837 0.8618511595170937 10.697482092320453 0.021565899096233826 -0.16633289103370064 -2.100753262269737
Ni 8.40626104622695 7.542509528147364 4.659871498819163 -0.784316819122475 -0.7758604608250057 -0.7877698106680819
Ni 7.22280481437623 5.983698464239626 6.772820769903004 1.507713919941442 1.7485465819559303 -0.3146667743868194
Ni 2.6815556019218816 5.441021369443997 2.4117300846349203 0.4691473940676243 0.39970498300508583 0.9534108178410807
Ni 2.5914269017933527 5.679795299947546 11.345865384902694 -0.4770571358330042 -0.9344628159836681 -0.8081748566869953
Ni 1.314104749156599 3.4599950804776336 3.650772938304042 -0.9079040916585331 0.46895224733768265 0.02940467841436226
Ni 1.5834658351385495 1.3246270209107347 2.5525380367378943 -0.04906873250219291 0.0024662021523054302 -1.6722917759572489
Ni 1.4522639914731872 3.4010250040348433 8.03889406977915 -0.7581404178374234 0.528808814483999 -0.10691778230017715
Ni 3.979677383120905 2.8162951059183756 6.9890507331733165 -0.9510646862064073 -0.4211808934906746 -0.36969712378908587
Ni 4.505183218924655 6.995342326008376 6.140965607806289 -0.13216781511621753 0.6606251597980687 -2.6777928867356655
Ni 8.38884487228907 7.142862761816574 13.430483439288524 -0.13741800777156332 -0.03902883176768762 0.5161967821469432
P 0.8572612720105481 5.726310997839968 7.613058638981667 -0.7246255739094294 0.39150444947216445 1.3349908091106815
P 8.52693154721425 1.9795205155946511 8.045690913076887 -0.23472603489611832 -0.0691197376157971 -1.5941369247223771
P 1.8858813679067685 3.6573783851069397 10.226761008660047 1.5043953970911705 -0.6386977635973582 0.6206113384092925
P 4.170674757306322 6.501820567967628 3.669160608194394 0.5646679902744534 -0.30208559528769907 -0.042647659467197514
P 7.1688056042448745 4.2293454932595544 10.170562099476642 -0.23407991667168715 -0.74811234417746 0.18072746919247584
P 6.991351119480945 8.006160733699863 10.155387350840872 0.047464621239866646 0.36128987356199715 -0.685431163098155
P 2.798570520567012 8.489523056943513 5.847854121708947 -1.1602748362196083 1.1875712100417162 -1.681116059117098
P 7.085652444615425 4.1925356839679315 1.2879768598802086 -1.2739278803610898 1.7469715241593269 0.9558111997524571
Ni 2.7676568118272753 1.9646623422038973 0.239509582433946 0.8298657113968677 -1.6992202249169768 1.115188228293615
Ni 1.8339956830501678 1.1949672343127888 7.019519059548289 0.3654319207548287 -0.12180858336908054 -0.6491192160409982
Ni 6.84743184047136 1.3629244617262186 9.37786584978643 -0.012654455539216916 -2.125258960720585 -0.3383918859179011
Ni 3.08059461634963 1.9218657231211278 9.191800336939567 -0.10433433784371708 0.12163220569221633 -0.14210718571711656
Ni 6.61860871351461 2.2989621725719327 2.3796679969261545 -1.0492633434660317 -0.5660538148783865 1.327943415345597
Ni 4.275235297401084 7.629789958163136 10.336913773355173 1.302346026492467 -1.0800623311247592 -0.6592146526037873
Ni 7.229462872537897 6.156372572094565 11.297221648257239 1.5887034124116317 0.6123002474404358 -0.5160342884271499
Ni 8.0593163479061 4.106933374878467 7.967029674975581 -0.2582935378034132 -0.0679686547304894 0.42254486371773675
Ni 2.9867105537157457 8.598637200849117 12.134552286217625 0.44873951983523364 -0.18271930281152401 0.7976839844580004
Ni 0.5554380705746959 5.325475940474875 9.898094222050045 -0.9848638941440394 -0.3432240171992218 -0.1419287511577233
Ni 9.078906339034008 1.9716197408551233 5.812339640353954 -0.4792909102595294 1.690634797240811 -1.4753234194258786
Ni 3.684182965308208 3.0159279996813244 11.5765934058839 0.150797771512579 0.5208553639648772 -0.8746039348445067
Ni 1.4131592384282914 3.6773162758962417 12.548266241372824 -0.35189017751465207 0.836206823123547 0.1566729993464334
Ni 3.419448050528507 8.629777682687003 7.8047671736028805 0.5200624357499366 0.0711982174113806 2.052051426188659
Ni 5.967778992749532 8.088488439252048 3.139837727602592 -0.2670975092482884 0.6507577800856857 0.14827834752483496
Ni 3.4268589953760316 8.586636368495045 3.1326290643586168 -0.6507474956730406 -0.0801158316159846 1.1657659412411665
Ni 3.649931156563711 4.568334991297321 9.008906926189619 -0.7544151464670362 0.7864204957290392 0.20024548462074546
Ni 5.19865535306576 4.94226568829796 11.135106095852137 -0.6051703212638739 -0.8172649919137215 0.025024547068795613
Ni 8.269643860977778 8.911511508903988 2.356620593415027 -0.7464074456712113 0.4058005543798624 -0.24692566228610377
Ni 4.877254376520468 0.6754618146860741 1.3186855657392185 -0.0984807072764175 -0.9510194347907686 1.423168591799194
Ni 6.075160590185273 5.773516085950763 0.18435201531724457 0.4054416283785469 0.26035659098002906 0.16133003850247055
Ni 7.863883291920879 0.49633193027301575 11.544345364234651 0.803917366962222 -1.278711160682346 -1.8542042665967615
Ni 0.23425116783405586 4.8071542764205 5.661110103752422 -0.2548929967622965 -0.47605929069610914 0.8054181198774644
Ni 7.462630972055192 6.246637336081983 2.4406590752196533 0.04110679734263888 0.49658235035012543 -0.43924109342649514
P 8.542533536366935 1.8387851308830847 3.25253942192092 1.1209076472758954 -0.5675100877089387 1.1494288946440399
P 2.1668895202096765 3.554659242569152 1.5538746671072206 -0.6495213365754234 -0.2589710234864121 -0.5240265626040073
P 4.937621375247859 1.0893635379665396 8.120966882369016 0.2768854418729877 0.940905229174902 0.5741327352317789
P -0.2596987378159978 2.150915623176027 12.550337133305122 0.6222563302118832 -0.8103296982464689 -0.9955103181142919
P 6.513984676952367 7.964996880923769 0.9072992096634269 0.8882891456410831 0.16778196477540136 2.440688838525674
P 1.92781624921657 3.2144088861056743 5.763961681779529 0.8893741511751457 0.2112894011397329 0.8341296288795442
P 6.948128166973655 4.176244304596873 5.636230373608247 0.35152739485859463 -0.3875922589019518 0.19647701871724874
P 2.415968020293138 9.09577825753633 9.998237222192854 0.35369149238944897 -1.6705735077145618 0.47752121995361635
