# total energy = -340874.0566623115 ev
CRYSTAL
PRIMVEC
9.25501369956314 0.00000000000000 0.00000000000000
0.00000000000000 9.25501369956314 0.00000000000000
0.00000000000000 0.00000000000000 13.54564806043189
PRIMCOORD
 96 1
Ni 0.00967241467578235 6.258230916992966 12.379557045839812 0.39975409107546633 1.010034479872396 0.1589257999363521
Ni 6.0981839674299545 7.2955235822374505 2.535393381344073 -1.160820167200117 1.3631050508483942 -0.6653976414860475
Ni 5.471156798465976 4.831968541678843 3.319916818132814 0.30355060986899984 0.6800948384869061 0.6306651231008688
Ni 3.831529340446382 1.6806826981896923 11.57909092268565 2.279321261917049 2.5439091173696062 0.20064940492738348
Ni 7.683826931330479 6.728478156182041 0.7226712556388782 -0.9212252342474715 -0.21007918288171565 -0.4434088516509396
Ni 7.144694626184226 0.2845555725414522 3.8430490558295474 0.36524268756215805 -0.5500885497983817 -0.978125289868625
Ni 7.928603530072314 0.975441409595978 7.6279608929538405 -0.45662406478963297 -0.5870586992648277 0.40368582202970477
Ni 6.984286731092216 3.273026291910585 2.3540978461393722 1.2292858161716829 -0.24915558005788704 -0.07914035507659273
Ni 6.683239649880994 6.284774295894644 8.040032967882047 -0.3662716430473047 0.903732990999979 -0.6709895337515284
Ni 2.4888675026562677 1.1530913949578019 8.738555116628266 0.5952456059509943 0.23609643288108373 2.10749726586179
Ni 5.522003842986833 8.176138122856234 9.38010340187423 0.7374916312388201 -1.2174224890751937 0.20195244000952312
Ni 6.084560587463681 1.080485813547877 5.907176220991145 0.47872886710847223 -0.5012435032712206 -0.21070241828801134
Ni 6.578824586851449 6.830468405657806 11.264723100451699 0.29732751177742345 -0.02184794911302689 0.09518403880301672
Ni 3.341522647298074 8.187854970028313 8.61940699750612 -1.1464063057676321 -0.5462666049491302 0.5195597850819051
Ni 4.135871206486404 3.5358594221158697 1.0822442661250453 -0.3706281202437875 -0.8347520929548914 -0.35170351542514267
Ni 6.157332759117759 4.693411733611541 9.755630204742094 0.5971286819063201 -0.007306303853426126 -0.23323710905541764
Ni 4.414345309614923 1.2424670609457746 0.22452570356235024 0.4622159570551137 0.4214169207608807 -0.32809333220537046
Ni 3.8327695122639645 6.072982565495062 4.418888595773512 -1.1140183763552298 0.7919229136045071 0.7253477967874347
Ni 5.771898464229584 5.26375194449575 1.079725976934269 0.42209440644387947 0.06562380864739667 -1.0439162202215053
Ni 6.774096118039213 9.233708522819537 0.19688745655604573 -0.49681015009021534 -0.4160659408616125 0.40905222854794066
Ni 5.560865644942253 4.439796596916044 12.106558208735782 -0.13265015406927477 0.8664504524994369 0.7876248004497856
Ni 4.312114429786493 7.675626989312736 6.557501961101249 1.2010939271184993 -0.27441255485246285 0.03830609466905016
Ni 0.4834143469866393 4.290716838426424 6.933908915759055 0.43200215247589474 -1.2904883558229323 -0.9492600288975006
Ni 1.6180262563611147 1.6827743312551664 11.331475811283722 -0.6980845901961074 0.09963384704425421 -0.8322558088955988
P 8.949894276864566 0.5919192005101344 5.029701906474642 -0.17476225274797644 1.1225585526157569 1.3250252132575375
P 8.820361107022206 1.7245792275239529 11.944904588818051 -0.37991880151709406 -0.33063126813587573 0.25016190983521436
P 8.399470855170179 8.700443896272889 2.0095512756757867 -1.8313235053438461 1.4240571650517346 0.08876219443707294
P 3.1815034627757544 0.019930671710168685 10.60804379352988 -0.5828492891691703 0.34018857280700765 -1.3705951885778525
P 7.655090114214122 4.3291436547443345 7.792011561384658 0.08835930257169944 0.08773272473129407 0.1358753458747918
P 1.36109782480969 7.281576276796436 8.767718589869924 -1.050383573113404 0.047806835070633796 0.8868187317431437
P 2.689562471792561 4.2301057545955 5.656594877741942 0.7073678152702462 0.053694404199662364 0.48259092116703983
P 4.767405567056072 9.397078022252042 1.9054666166304794 0.7330104555390151 -1.7283299977987396 2.0958293426055583
Ni 3.21005517962083 3.6604133946607735 3.3786093376519117 0.36329430558653564 -1.652803071105018 1.797088752530692
Ni 1.3108708661976234 2.4156881104053722 0.06931634958926369 1.179589220277504 0.5025925610999474 -0.010467218079911005
Ni 5.950492460974941 2.8220942660296706 7.546226166164343 0.507022571846843 1.7486167730722335 0.6519188902733224
Ni 3.432360605429166 3.3718513267474464 7.754707378212066 -0.7883267116128165 -2.3302553297627546 0.6160229477076616
Ni 8.627403329225453 4.077749721304208 4.05612260560775 -0.11179927876219456 0.3673476497203028 -0.08758334363762336
Ni 6.587681634832239 0.8892763078133722 9.864685731572651 1.289410035157089 0.9509651845140653 -1.2184198199914564
Ni 3.6870400686845275 7.914415594278635 0.8011232291172098 0.7971386534774917 -0.15099163269094 -0.49628513082468073
Ni 2.688442615151312 0.7249489144769895 6.468303991373706 1.4890078588915068 1.4755687026674653 1.423706209470219
Ni 7.566214218958608 7.758302025480341 5.8144826326404635 1.040244427796873 0.25725095547151183 0.19915430843909573
Ni 8.15182520222349 8.92086129931416 11.253236703117363 -0.7503929126815205 0.6237030899607388 0.913150170548821
Ni 3.7796364793927872 7.696746930265884 11.767388801152906 -0.17469488984515075 -1.7522767384223241 0.5485592576380488
Ni 3.5758873557803597 5.671203916652785 13.490354879812648 -0.7990582390977077 -0.3054637677313126 -0.6569739361987267
Ni 8.485014945542638 7.766927698122029 9.24490431272796 -0.16403972412414974 1.5283089704839743 -0.3840863026312224
Ni 8.136147209246 3.7745369669189994 13.201953849135332 0.36753225492728314 -0.02622653779669677 2.2786394053586756
Ni 7.97796051740936 6.488699264764789 3.7226959339413637 0.40502305278388956 -0.6134811551224144 -0.2651864082685046
Ni 2.036778600079848 6.888034590026159 6.628481436627971 0.30440190212570156 -0.19033131083082702 -1.1230822863297112
Ni 0.4303849702673802 7.122399298508444 1.799146871809455 1.5325775159523412 -1.6205030734207317 0.3563497559479024
Ni 2.248718410696455 0.053896571490210037 13.057530287969783 0.6999190723016849 0.365678489547996 -0.8028573011288237
Ni 4.831570576095589 8.816770161759358 4.570382987301991 -0.5051382103399366 0.30497114436561024 -1.9973923440828822
Ni 8.949922041905257 5.549898453868861 9.878475701783076 0.3331977433114713 0.034961860787165594 -1.4091123708164441
Ni 0.5753194081816652 8.942749406393123 6.891375649922778 -0.49826693714139997 -0.5913100183420138 -0.005990413255480005
Ni 1.3923427506019024 4.862935817064134 0.8500581878357358 -0.09816651847010835 0.02148439512602106 -0.5557290359136107
Ni 3.7231716416385554 3.9678001601633657 10.246104276075387 -0.2930808206859275 0.23441364586202212 0.22327614118796388
Ni 6.866451898394808 5.1869630969548775 5.707553907926925 -0.16282899164550022 -0.5926385073454503 -0.017078295638525427
P 0.43599535948990364 5.851787741314412 5.271342906620979 -1.135975083131979 0.43063535403535513 -0.46307933349667346
P 3.4098061373735904 5.396579899166909 2.2433079297669147 0.7829068261488258 1.8410155358206293 -0.9808648002869753
P 4.5839249231489 6.129382618154346 8.994297055440779 -0.43911510937159215 -0.6298747659890894 -0.34371098413796936
P 6.157314249090631 3.1759597096508916 4.5072462102694395 0.9831163153253134 -0.19960913658832719 1.3228636868298442
P 1.0240209757936447 3.296598811458205 9.302880494197202 0.9070332590178056 -0.6764089049948867 -1.2389822175238403
P 5.917701947917533 6.919103670560654 4.682689800397595 -0.453734916167296 -0.8982717107750917 -0.3640224420018118
P 2.676966398331897 8.539378895217832 5.142198447348309 -0.3862637698985154 -3.33094693496767 -2.0313121367587788
P 1.657239748831969 7.118077207174036 13.497113816218466 1.3751288147821477 0.03614456824135711 -0.41266411426891514
Ni 5.0865461997849994 1.8550193886955886 3.1573821209237862 -0.6037981235066956 -0.07317513863209332 0.047502159346021415
Ni 4.813865735147573 0.9076104896837432 8.057479593951626 -0.5157974898259956 -0.13675440604563546 -0.28344458314774407
Ni 9.127507242172133 1.6562402073670521 3.0693623144229463 0.6528704555533144 0.39954840282256354 1.742915351812082
Ni 4.150244242551365 2.3878490296047277 5.6101606236884205 0.36374244886754775 0.9257971698888702 -0.5506477647359614
Ni 8.04776182970938 2.992127375228286 9.843717572841951 -0.3100318467179693 0.2812156938172254 -0.28619232109621034
Ni 1.5141572391318492 5.323974317756984 3.321107938378506 -1.1884980927313595 0.7638503237380071 0.5101770583154246
Ni 0.6273409139237998 3.9608496449767685 11.311049070846522 0.21148171965619705 -0.9518632708483027 1.1962977912814365
Ni 2.2005738301362983 5.200956677463712 8.507669367744704 -0.41543370659425227 0.3205592286118543 0.8823200725418417
Ni 2.561676694364601 7.881865711573891 2.7984088353165695 0.798067078829032 -0.4099983945112939 1.4113854831213368
Ni 2.6186320478377283 1.1090005103386964 3.9926341380597647 0.05438731650162891 -0.02531251062285963 -1.0162367520283662
Ni 1.1823187277930527 2.827166013462767 4.956772399589975 -0.00024734012411570304 -0.4439629243821967 0.20030744820693247
Ni 0.5418310671015285 8.044541084989092 4.06014576000404 0.5146217243503396 0.4025771623465583 1.1564467207227695
Ni 6.669514464765516 2.3571871696670503 12.001091776165362 -0.05312310507722464 -1.7227332204372525 -1.152794725792479
Ni 4.518047736600035 4.967600765459907 6.691888460056592 0.8191552669578989 1.5111501993165009 -0.12374102450510302
Ni 5.576756503231717 9.199973998378598 11.629778780973206 -0.1823719467744343 -0.25323232123042194 0.8936833200734609
Ni 2.251698525064077 5.761208923563114 11.144248737885826 -0.07534077882484444 0.43232354037105547 0.12614757706406662
Ni 1.252703105947607 8.288845678039161 11.131759097081149 0.053529853597340075 -0.8372967137536161 -1.0021219098935386
Ni 1.328483157009999 0.3418626165300125 1.5948100548357105 0.6795392230937523 0.0571193707208113 0.8682731075304724
Ni 7.90172697068233 2.7033616970165504 5.9519843691614644 0.26654832161303776 0.1463271373357351 -0.2357763305375036
Ni 0.20439512355919823 0.9887316090739451 9.544818580278946 -0.6073135928591218 -0.1540263057522057 -0.32519878426639476
Ni 1.021318511832944 2.0389535282673985 7.330078100880165 -1.7625452102278678 0.7553618266510216 0.007456970498677481
Ni 9.136271740017284 6.3426644057377395 7.493141259363699 -1.2086712252451248 1.149911490707413 -0.9774382911039295
Ni 8.589568833775642 1.5210522242370619 0.9254347203067357 -2.0838210052907726 0.13041869363559475 -1.480887029556585
Ni 9.243398522021092 8.588893217785467 13.38312721816099 -0.6520129926490255 0.09223292659449277 -0.2939922767566034
P 6.358397928796615 8.597287515088054 7.342188286128716 -0.3148290109962965 0.6376392404258567 1.367467184471832
P 8.779490967123389 4.56060228896751 1.914501360871699 -0.19259876670876508 1.0360288470536287 0.21436726873410825
P 1.8798968651557386 2.4467664459534317 2.2423602163779566 -0.6348897027051775 -0.994696821074061 -0.2786949842779006
P 6.239239629159549 2.532865837139733 0.5383919040611297 -0.8662864161177469 0.015132741876380388 -0.4799789374654895
P 2.615985113958412 3.8452822906025514 12.343335699254213 0.8922941530354181 -0.2000701353851458 0.07870429598043865
P 7.856146028879413 4.98998864327133 11.56604598106713 -3.035096779066721 -0.5899241937380808 -1.1837744620034452
P 5.39536749239002 6.931847824238342 13.155925890177274 1.5744787841718173 -0.08737174184744953 -0.004915177913430245
P 5.392387378022397 2.65893763190914 9.852034128030601 -0.22011599829242737 -0.63195144601246 0.11984503188480651
