# total energy = -381173.4534939599 ev
CRYSTAL
PRIMVEC
9.23262515925578 0.00000000000000 0.00000000000000

0.00000000000000 9.23262515925578 0.00000000000000

0.00000000000000 0.00000000000000 13.51288016862125

PRIMCOORD
 96 1
Ni 1.788193301341473 3.608506905526612 8.573381539381444 0.4455798911603294 0.44998213399308307 -0.17113211219455687
Ni 2.212183145402896 4.856803986865476 10.838140791876476 -1.0550354700631184 -0.3203653674334934 -0.4778377227527706
Ni 5.921842691905423 7.885492801306981 7.087492082825877 0.6408292081180641 -0.1618792261377212 -0.37918038068917276
Ni 5.716139803904019 4.3368594697789815 6.951404111602722 -0.990715724939126 -0.5671743016360749 0.06222429604754444
Ni 2.793552317510635 0.296146607083566 4.741953823239701 0.12779385441823798 -0.272487312805292 0.434993888114367
Ni 2.5519991461111404 7.335726905035364 3.594764143013592 1.5033253039554433 0.7029506600391571 1.6981509031121982
Ni 6.989060296477162 6.49666593279265 10.379756649400706 0.9046094800676614 2.276927564873892 4.657522266321147
Ni 4.010430775516071 2.346250094984063 4.624594232102312 0.31173314567979216 -0.012293215545056246 -0.3216966846504073
Ni 1.9986232934118504 1.335619249862979 2.567852486729956 0.8957947099895089 0.35318215685319815 1.543802438133883
Ni 8.053665068135777 8.333672123221351 1.108240927832809 1.2192415445618034 -1.507615703800681 -0.06820108245626964
Ni 9.122876919736614 5.108863885668274 9.191582422939094 0.46880286624401196 0.18307462926841375 0.400863007868929
Ni 5.702337029327623 2.7014107186662004 9.300888395171473 -0.13781010100365942 1.2862902585811846 1.7987386294292893
Ni 3.4082512663546884 5.337112844248648 13.627874495631394 -0.8321082275741412 -0.36091269272823645 -0.2968112342626372
Ni 0.8532829080002244 0.11408108595205359 10.270397127942546 -2.148816436325551 0.10235150308573342 1.39207649838008
Ni 3.3677569725138374 0.3800554740953776 0.9192389354375868 -0.5411976750666551 -0.29014796330984866 -1.7625328689326933
Ni 7.813367533754604 7.487474331749506 3.330897563188523 -0.4391318215421405 1.0113850803630196 -0.5426799160391363
Ni 6.739557834836679 5.208834750626947 8.94099974415785 -2.3491768492576055 -2.829267629710611 -1.7249819072621133
Ni 4.772445491009604 0.3125640610981125 9.333089945116326 0.4096968041104751 1.063746367573555 -0.31215274971571405
Ni 0.1593246421622009 1.6682799660918213 8.292286881055 0.7137559781847772 -0.0800924345772169 0.9993888272330919
Ni 3.8059188961570447 0.5056311783401488 11.824634785107879 -1.3977822905156057 0.4845953531915784 -0.4861025338647242
Ni 8.706476293535925 4.23851354684402 5.228849235393977 -0.14823438166077696 -0.4824273990059821 2.1124399545790458
Ni 8.258010760242378 0.22951382822382915 12.617962872008306 0.10303053143062901 0.46687736708652494 -2.8010741979955305
Ni 5.275919004855771 7.991391011602138 11.073264363132157 0.6469409774427568 0.4943352061871616 2.267975497886926
Ni 6.498641714571479 5.927585384739214 1.888654418694798 -0.08921830813788506 0.5044224152198344 -0.3628065673168397
P 5.015503580306057 1.5978904320647698 13.179368338787254 1.701621635269618 -1.022181142537259 1.621882727377078
Ni 6.245926299384117 3.541081044167804 2.902012581280675 -0.3729014896589965 0.8341823364943504 -0.40563960332196586
P 7.378353935282334 5.542788034374649 7.009658283152707 1.8919079517951225 1.288072290182272 -1.7134944754478039
Ni 2.0618852408349038 6.324495939280524 8.81558653411545 -0.1350921878518641 0.11739785589589459 -0.6102927300921037
P 2.738415080206129 4.008925857619113 3.3006967231103634 -0.14976341671079368 -1.4783601493696732 0.11501675725822774
P 7.093342797373745 7.716757344344967 12.533993992933118 -0.6652328337734091 -1.0576276562703268 -0.4545332436988753
P 1.7904922250000164 9.090756616892948 8.22199336632935 0.17579249378470369 -1.0444458674727304 0.12973889395975077
Ni 6.171012779041056 1.0343586917172956 11.252350516132697 -0.5071953499792814 0.04487989123182593 0.8755457299324858
Ni 1.5130703049521619 2.7112526970598037 4.55886717376829 -0.3185954200172642 0.06519314886788127 0.8273804830811685
Ni 4.237544121204875 7.42865327701625 5.112733278862232 0.5882799732664384 -0.15244019221200844 1.633684605108012
Ni 0.5372427635388926 9.066299392911093 4.574245034192668 -0.7299187039875686 0.09450475334780499 -1.1249283383995143
Ni 4.878519121182321 7.248580156388809 9.080682899608462 -0.3568400653207596 -1.240007059243929 -1.5512573517500317
Ni 1.830487957083593 5.6185878867306425 1.9755288048998796 1.7583795088859526 -0.19303174048112562 0.23689244641981783
Ni 5.3767577365771055 6.500986801355697 13.351387840509686 0.7221819974649434 0.6216881164132391 -0.433800382026898
Ni 8.547896724222095 2.689131327237032 12.612746438807191 -0.8410417826183451 0.07035952356016915 -0.5694371295283225
Ni 7.998213921576692 1.9057061540560996 10.204346004466295 -0.6585528506500722 -0.033201683562949266 -0.36532984795932566
Ni 4.861872698064434 2.091549665392736 7.375640466755242 -0.6112617788735925 -1.6372607524950449 -2.017343076173197
Ni 4.184271874177582 5.85152701887945 10.990714538540175 1.0594341133514464 0.7208671353082617 0.29764478590752613
Ni 4.553623042691773 4.696599475527938 5.010291763417512 -1.0526978230688775 0.36595051226246006 -1.0009595141543213
Ni 3.6207955295809153 7.331221383969623 1.6169373377176826 0.9166918651534922 -0.27105340857224286 -1.246709668075085
Ni 2.250286189333856 1.3389152970360716 6.690389489681765 -0.6899442204771602 1.624086677006932 0.38952829958240015
Ni 7.555177171862355 5.38270354716386 12.885490187699288 0.16291589493235167 0.24576378076751867 -0.7510984233889774
Ni 0.18509659196323863 7.203026383974134 10.500223942158442 1.45120492911112 -2.199863118489721 0.6257548302834449
Ni 1.2020046989134132 8.208773170398954 2.213504334059673 -1.8697003053498316 1.2932486921768889 -2.343091048074842
Ni 1.89217112560861 5.515200950472126 4.707982379056525 0.27713766709310983 -1.7035121674241112 0.9317698425325373
Ni 3.281321136002655 7.478684872621259 12.632353764805782 -0.6023539348610013 0.5767269783215164 -0.26900861022807215
Ni 9.266231890203303 9.131906427118365 6.841409385535292 0.922635998552069 -1.4840512862171795 0.5001330438158613
Ni 6.966440364897116 1.1555184313601334 7.9979895687859175 0.16079576326555534 -1.4937751983731629 0.0029750234679239086
Ni 3.258581180295857 3.639149988348725 6.688119187161139 -0.9704844854939157 0.3672291218645675 -0.3427303653922549
Ni 6.3836586011437655 6.1785650664012515 4.894635591617476 -0.17889041598373706 0.018219608331820236 0.08488214265637639
Ni 8.016300634215593 3.8323888324182667 1.177698889983768 -0.9607567166831905 -0.03459136482162429 -0.4598883373632015
Ni 2.047593137126368 7.678912813917779 6.180831675871823 -0.800616327613447 -1.0871326077079793 0.3663189513454723
P 0.5147899424737841 6.551516958717981 3.4858228594740335 -0.9114352447402432 0.3318440574970543 -0.23204360296794874
Ni 8.338777764920849 1.7593321151703605 5.972571350708104 -0.20843624796165394 0.28285425786191287 -0.8470306532119284
P 3.537277202612302 5.839524606204323 6.8108567824395 -0.6340862329672757 0.67724348508104 -0.7182029582125373
Ni 2.7647003639646575 3.11181937115446 1.0548615823539527 0.3381692283841337 0.04675293988482271 1.4019605902630115
P 7.9442769255396986 4.107391804680827 10.732280435344371 -0.2944077670274671 -0.24710281129391637 0.7468329632444041
P 5.48948808947195 0.6939878102384546 5.411773390663018 -0.5865344513302415 0.05433126645271288 1.3036128090200323
P 0.5751916226301031 3.1120778846582318 6.746589402139277 1.6130589584378605 0.35271678718100546 -0.050785972303615756
Ni 0.9331691202408416 8.272256700825242 13.132506303390993 1.1963011337155462 -1.4441979016656676 -0.586331591290816
Ni 2.8077336297175544 8.047340719918498 10.173522885454057 0.6651222763374739 0.23903880333885932 0.1551352225456683
Ni 4.7819273970229546 2.0040982401167353 1.8648582506725888 0.5531872433283633 0.17909276180253025 -0.46996217665943574
Ni 7.785577332099118 3.3995356682275197 7.8881305623079685 0.3864915696386053 -0.0665684319488531 -0.7301470179482908
Ni 9.111474627695245 6.049492967017964 1.0212511338135437 -0.8046023088443884 0.5142640839006046 -0.5444825164655139
Ni 7.491702874061204 1.272098788936154 0.9289036474286044 -0.9815836807308708 2.530904477579822 1.3357947930692156
Ni 1.0106216124959486 5.308159331826188 6.857164860327679 -0.04265871521079105 -0.1764445255464058 0.9439671559296775
Ni 8.606920896708315 6.697789438727238 5.47368922134143 1.5701865845543668 0.017875080508207925 0.6551538522708523
Ni 7.422421255050319 8.706513224036463 5.397922606435921 -1.0810653184679768 1.0370169219985108 0.06514198391497167
Ni 8.290066434710102 7.364625021707015 7.897197000190257 -0.2727973878465431 -1.0702751698310082 0.8780438137639911
Ni 0.702371033860774 3.555834779133075 2.229381679503839 1.1696269668584696 -0.612184804908494 0.24767462463698633
Ni 3.817884378331633 8.874777817116609 7.174704383110889 0.35053803436213177 0.45884241259719044 0.34376317753214347
Ni 5.621339209020785 4.06016692711677 0.47398727895343373 0.21124466394472652 -0.021256338275615006 0.8601435364448026
Ni 3.9525606811716902 3.232739062543795 12.572843032974962 -1.6209902974697954 0.5812814304614182 -1.2937721687805266
Ni 6.366088915512407 1.1727280446112385 3.5242268869843856 0.36488581844337153 -0.8252351546033917 -0.7051281273064501
Ni 5.901272403105282 8.824496940632962 1.569898959181347 -0.7807689538702167 -0.7540245958968369 -0.39045543938235977
Ni 4.24300060265949 -0.020760480877915533 3.071882727871746 -0.5704000076622241 0.6013082672053063 1.2117213249253582
Ni 0.7857462551397992 2.919097554092462 10.59612506595773 -0.24443786286724356 0.21368875460984488 1.1486107696181187
Ni 2.385470286556323 1.499045947372533 9.638615976074249 3.0161942857352635 1.1882607799095728 -0.4106231725794864
Ni 5.855967911569246 4.3155321057177956 11.588848311367526 0.495465720247179 -0.5389348471744074 -1.1537072103044195
Ni 8.305678803812901 2.5605854874864233 3.59354820628335 -0.07837365211389728 -0.3385134990974299 -0.112601977169148
Ni 8.089746167162236 5.076678954448665 3.321911449144907 0.5123115881599242 0.20480045098127955 -1.1579698422355154
Ni 7.770555851004939 8.615442609707657 10.158496788047312 -1.2706520378232955 1.8299024566266036 -0.3665891742877235
Ni 1.2596716755048303 3.924770479516204 13.001147282761838 -0.27740763292504483 1.0100506778223122 0.22675587220644816
Ni 4.116412079437441 5.0132969828988605 8.72086164675832 0.1855079213002547 -1.0925293532435185 0.3300244877898123
P 1.3295534151494726 6.183005959091049 12.31551776805784 0.2443460744843856 0.46618548322582287 0.9191434120177784
Ni 0.7411351337513797 1.1314582102590718 0.6149537692977713 0.08089950385954454 1.1702126641586104 -0.41021899516253224
P 5.261257596141847 7.334369709140561 3.2374560107251202 1.0025839371316216 -1.3030435667801237 -1.1911388727883165
Ni 4.374463951952667 5.116074565898486 2.616323768687199 -0.041018865614522906 0.3506053972649575 -0.8199906183750006
P 9.102343561437014 0.8767688598179072 2.5757445346951084 -0.6255159747997615 -0.8774953974596887 0.4892739896141703
P 3.798320445671176 3.3306510520974264 10.41872756009433 0.3498443507292168 -0.027938378281480918 -1.4061082938827978
P 1.6191808656254179 1.330245862034576 12.18998268736366 -0.02424807391408727 0.07211430146774676 -1.2494152399317062
Ni 6.435684443777872 2.884290557334594 5.151596167841779 -0.5335923519155714 0.27326584284252936 0.9433603755836141
