# total energy = -381161.0949506349 ev
CRYSTAL
PRIMVEC
9.31778099117455 0.00000000000000 0.00000000000000
0.00000000000000 9.31778099117455 0.00000000000000
0.00000000000000 0.00000000000000 13.63751433632516
PRIMCOORD
 96 1
Ni 0.3261996676901843 8.125076956802749 12.747816260750321 -0.9018247182336727 -1.5840592287714008 -1.3190376282155347
Ni 5.909849099523195 7.510699758000751 7.050595193345878 -2.0617910220739266 0.7746476714638272 1.6005765097001337
Ni 3.200825445554247 9.201914255261093 3.1220501308273647 1.6431143830623445 -0.7239357469312565 0.9508008910220592
Ni 1.5141859786962923 4.307973485151011 11.795699322662708 -0.06475014779319171 0.38794141471125443 0.42896850785589347
Ni 1.2264529057315126 1.7782518882760154 11.857859170559578 0.8985673876386396 -0.9082707309693325 -0.3481412519951811
Ni 2.119972183545132 6.020590925047367 2.627498662110203 -0.5093643326061421 -0.14470374279969916 -0.2871045484978346
Ni 7.032063990770997 5.436999674207662 10.916652422081242 -3.198654164237814 -0.3200154402932424 -0.6279986320122991
Ni 7.961987838405646 6.272012605999719 3.2564749599640543 0.131886793540689 0.21515891139746815 0.7313754910387533
Ni 9.254923110575103 2.158147131729611 9.999734332971343 -0.37361728477909845 0.04191309529401814 -1.3103460139788077
Ni 8.770966890474142 3.77859308335629 7.777883397056317 -0.04564170909851494 -1.6030769075244842 -1.2695053258133622
Ni 1.6388206154831089 8.343513693509786 1.3398093005650722 2.646835519122203 2.916769983598654 0.09719438436482616
Ni 3.213991469909792 7.067713820342346 4.490765051177131 0.17724079619545605 0.4054112893612437 -0.3682213105745078
Ni 9.04169501336895 8.624332973076255 7.568602311822568 1.1337860459004603 -2.710248950381842 0.3752625336920053
Ni 3.8823186198926867 1.5581006798906902 1.9785851085496573 3.1620596529432317 1.046306831940869 -1.9690397610821186
Ni 1.160809139570992 8.896337631948919 3.758608306967208 -2.0945080526909736 -0.2188862396503843 0.6369255021882837
Ni 3.8749668907939427 4.395001558385824 7.747772056428306 2.1650154146829164 0.8594022874034037 2.18133806310234
Ni 7.402315331034226 2.8577540720603927 5.5995222715284605 0.019515701435424453 0.3368903616717101 -0.1624996333305395
Ni 5.85808882684446 8.887811862461781 5.214112765361764 0.19880283863694792 -2.2929355102663735 2.1320803545177927
Ni 1.6606242226961132 7.842804103422081 5.9839916136063565 -3.303622021900472 0.7664779911688412 0.5311459472576078
Ni 0.8588161347776732 4.48606423073313 0.7181763458071909 0.79079702753018 -0.03257741971538906 -0.4110175798044276
Ni 4.347471558217646 2.7484471847887013 6.215720164710555 -0.13021223405174348 0.04545350434710881 -1.9679838090137785
Ni 4.554354246657964 3.388299196462646 12.011172073278097 1.7396677914090621 -0.09808552872052785 2.3428545065840036
Ni 1.7446892416173647 1.498131442274067 2.1112237190954355 -2.6506358667048993 0.3816239571336589 0.11780486152632615
Ni 5.915980199329245 7.961261051498545 3.2906367399320198 -0.6318167202068087 -1.7891489288583249 -2.7203091628313216
P 8.834644604873148 1.363452237719892 7.675329105574054 -0.40259053208299694 2.5470360930343623 0.37817996444911645
Ni 1.4588104070437766 0.7760052891602126 8.421751372281033 1.0552555564937247 0.45024695761869554 -0.011919634255721408
P 3.9277800727098877 7.284389496466795 2.4948740282357154 0.20499919725564694 0.8224722471462739 -2.839360495170239
Ni 6.663778702269283 5.065471797966579 7.998183689935406 -0.456788101171323 -0.7244692508372232 -0.4878349431747985
P 5.7179773560487535 4.33495777852232 5.734806200060467 0.49936119864684325 -1.7004584681994521 0.5996247088552964
P 2.7856996726680148 0.4591224705522006 10.347845694132511 0.37371678647144024 0.5135925117548769 -0.1136108780496366
P 6.856256101499641 3.1226958530409803 10.674259670782481 1.3312843067933717 -0.8920324147335993 0.6331773479997611
Ni 2.846442286096039 7.947862082621494 8.393481225151008 -0.047554609850511645 0.17574415704527155 0.6446298128110769
Ni 5.0914590887858395 1.7305914391757937 9.958848842334614 1.021815531667724 -0.013137822933538662 0.30619164703627266
Ni 1.5824573590594058 4.024219104613562 9.288401897206011 -0.002289053144492832 0.5013224361382721 -2.252390498964476
Ni 5.545085932186659 3.5417444116693817 1.2947792610017015 -0.4361966501732165 -0.33823067774968846 -1.3112492425193676
Ni 8.680537827225335 2.873743384016596 12.585284345648661 1.500671411272364 -0.21731658117041927 -2.6146360515715226
Ni 2.1328214033514286 3.796902522746698 6.625813404154161 -1.4405690466638286 -0.7458942534802185 0.297378676730333
Ni 0.35835253410467804 6.765472962578144 1.2030895020025008 -3.015940774963561 -2.260543209978597 0.33674535145341356
Ni 8.679401057960382 9.102912833620847 1.9479827208703104 1.2488876495630106 -0.11232712624120654 -0.4334951920816534
Ni 3.49372056911561 2.168965075308371 8.416596775909138 -0.7342970355609224 -0.20393347499529393 -0.4365553190642159
Ni 0.07945644450776752 5.9653923912311955 7.134506468882936 1.5211093674117415 1.0848628378371963 1.0645801763287601
Ni 7.576054672954603 9.137397940584663 13.243703899242842 -0.5599176200736615 -0.07765040079462755 0.9775704458064196
Ni 8.858265179353902 5.288343798363099 12.355929033329573 0.00045919902460566075 1.3960663362657633 0.33423081256167597
Ni 7.646469142915576 5.462800609409718 5.830023670893362 -1.0851531153841052 -3.1241096560620196 -0.6716932446867722
Ni 3.0138082659080005 6.171725330600757 6.711661846332065 0.0928330220723369 -0.9529585607950104 0.3904636669124759
Ni 6.795336450235272 1.9094276072267333 13.358245515801826 -1.0984459758382694 0.24680867709226526 -0.9437550399188713
Ni 2.466370004806099 9.125200965438585 12.64936738351509 -0.23301419441133417 1.8265050009092803 -0.412933822990534
Ni 2.9200900260155214 4.739880581366569 4.5716769330552705 -0.1931052740315384 -1.6757452817234884 0.13533284310776048
Ni 2.7970580475366695 0.7283979514108944 6.055288477414797 1.4624159673355912 0.2704065190168633 0.2140260833446056
Ni 8.521846701394272 2.9129432880957036 1.1148678210394882 0.18770621450315414 -0.3641191154806761 1.809035383369607
Ni 5.679439014410725 1.3055701830159667 4.0750121916390025 -0.2014580168716079 1.4512640644838295 -0.7240745865019659
Ni 0.8934428720105654 1.773881849052554 5.961053100684573 -1.0627546930842473 1.5055387666669942 -0.554895998489354
Ni 8.792798451029727 4.41682380116055 9.9311647836207 -0.6287167411252462 0.9046400761952806 1.058165016831036
Ni 0.2672246372913508 4.222706472498786 5.327563269782012 -0.05041881877218414 0.08348500519853363 1.9645346741229133
Ni 0.310212219290153 4.268391552056634 3.25279257296808 -0.023904317421423345 0.10163699351721205 -3.015623757943774
Ni 7.509469810927197 0.9029824160552979 11.064810728427867 -0.7848600932204548 0.3037961502209026 -0.18012454550115428
P 2.838279910062453 2.288568110430648 4.41345449160148 -0.08047090096255818 0.4806132286153787 -0.23156332089742054
Ni 7.231054518822676 7.033452340119176 8.718872109462522 1.411615596854272 1.466151008897991 1.3017747273700289
P 7.457849304961365 0.004339290546622339 3.7220183133070592 0.9007762223645004 1.0797625404961533 -0.3689183366415324
Ni 5.135066303211849 0.4038261000369971 11.970314535983952 0.4041517059225298 -0.5049176096886981 0.4154565894123877
P 0.6072192795451478 6.809760375006952 4.192731171471335 0.47114771232710473 -0.6537662278947063 0.40900800557356654
P 3.7690423579745254 8.179977321631393 6.277265970848733 2.1265877068343375 0.08162866871608522 0.8699762062645082
P 4.678457769935745 5.856970693141229 11.935743705436222 0.29144611329598197 0.057305261479372274 -0.28188469485979195
Ni 8.285501189873818 0.5369669389711434 5.6219837140702005 -0.5452273650513385 -0.1911167828465999 -0.041039177329497065
Ni 6.272180326055204 2.8205202197428 7.872786858674221 -0.10405665870229822 -0.9366778213571159 0.43974657230800396
Ni 5.196284123463746 5.882697086096402 0.9851018823329274 0.703326298211021 0.8824149462484933 -0.9888673588764777
Ni 2.8026859871762655 3.825433567740809 1.9402228729698874 0.20659842342196677 -0.405567869543766 1.3682752821954243
Ni 2.8592449169980343 5.971225322049717 10.184140670420545 -0.5388975661785688 -0.8078948635527312 -0.04590241895906933
Ni 5.362438791763874 6.253339773155761 5.258679711216381 0.07858114013901304 1.350687651020648 0.2077443641009519
Ni 2.604384974908246 2.450408646192476 13.605956856415627 0.21303132353150409 0.15617883331883425 -0.10044657275353668
Ni 7.2071637286969725 0.25762452767102656 8.56339095913782 -1.1155970336962595 0.5631497538577139 0.19959062464556593
Ni 5.133789767233993 4.070081222007754 9.932978955554193 -0.5552011884345986 1.2557144426768567 -1.6259723240654191
Ni 5.356121336340619 8.596901426223653 0.7193392048585511 -0.5028162470749793 0.31939297621789514 0.06969977848898319
Ni 5.194979634143309 8.80915115643948 9.64297700294994 0.34551769832940493 -0.7317153908766753 -0.828852953861637
Ni 4.840587156904242 5.540492266222552 3.2148664095325707 0.2911810325600533 -1.0402799090204986 -0.39920773165369317
Ni 3.814718119751512 7.870449959234468 11.211277857548355 0.16825196243328444 -0.7807172746966747 -0.2758755125512346
Ni 9.06592124360562 1.684132983806545 3.5215201683121906 0.14158962265074967 0.018673408039787197 0.6144190935556515
Ni 6.951847215345032 4.246131373581476 12.923153602088234 -2.0209158811261196 0.6805712639026923 1.0133383474346482
Ni 2.947307263908336 3.0710194403899873 10.642157120384631 0.22649027724988735 -2.359301082175801 -0.8081146928730211
Ni 8.65805402200953 6.876587499336725 10.542698195704148 0.23061664071343507 0.8493837268251372 1.1720769710608587
Ni 5.192920404573193 0.757918544732365 6.86483777767194 -0.32857232872431796 -0.2923861086117481 2.2209713612232456
Ni 6.634874946040762 0.9379091858318905 1.7800231984175507 -0.7893644088487115 0.17851323514997644 0.8665435264338753
Ni 0.52061889245182 9.122657211263734 10.432780062008023 0.0003722957377541975 -0.7135127518257196 -0.0674174102127097
Ni 7.261355942180236 7.305932205815712 1.202960916626629 0.06262744502323407 -0.9911625826685575 -0.4652871397812697
Ni 6.83925115142967 7.618394669183617 11.851313429505247 -1.3495589367328433 -0.4959424027732813 -0.503161803339856
Ni 7.787829196346556 7.532028158389882 5.828578483081935 1.3119169580103536 1.8981942990244662 -1.033752392314626
Ni 4.930214890999068 6.290927701146043 9.102658458203361 -0.021293105050821395 0.9926250261466969 0.04448625533783306
Ni 3.367846667474379 4.793355325723592 13.542828891087376 -0.669967263134601 0.8786235975268609 -0.6746530986460445
P 4.6774700851645585 1.7427790965410117 13.532723757744424 -0.6787133847583473 0.04580625970083724 1.09028915105909
Ni 7.1730792863101485 2.9220281244344553 2.984829035654511 -0.10557078135397947 0.46534550382303086 1.9156315206643075
P 0.9634771765124396 7.056187725418206 9.411425489682088 1.9344489104811262 0.0943880252642826 -2.0030765389518534
Ni 3.5695766230989734 7.441272972810966 13.55683444749843 -0.5063332590893022 -2.0600791815891424 0.5138923023834827
P 1.3656325984411926 6.301018857817703 12.967462445413021 1.517011028972652 -1.2847092872473103 0.34324227203166696
P 7.3821236999100455 4.708777828855026 1.8869139851121768 -0.08129339686385355 0.7390906002948238 -1.0424427209997724
P 0.1443892639886503 0.7069726461008161 13.511558418520348 1.2473169626417808 2.3530268191313155 1.0196277799877858
Ni 4.726006405665644 3.191600842502591 3.366775122675449 -1.0741446800887438 0.8279558959686644 2.1858084401688673
