# total energy = -381162.7438015827 ev
CRYSTAL
PRIMVEC
9.29491693275691 0.00000000000000 0.00000000000000

0.00000000000000 9.29491693275691 0.00000000000000

0.00000000000000 0.00000000000000 13.60405047568697

PRIMCOORD
 96 1
Ni 3.1852564143010644 8.619631707400545 0.9451099185937545 -1.8639361491725448 0.4850815487993774 -0.6303913006141918
Ni 0.17275067433931868 8.575322839488704 0.9464028415068103 1.1587141766007076 -1.0901914491389613 0.7548743454916419
Ni 2.0773395232543117 3.4768100664493207 6.951520411215972 2.800711929560106 -1.5449231820018878 0.04917106240801209
Ni 5.723605216072582 4.037516621497345 11.261010942831723 -0.008794458363178402 -0.9419503826099649 -0.97623552904508
Ni 1.9263343065360867 2.028336722408658 4.736495286875418 0.5831153983463635 -0.5611970010067174 2.397169832197117
Ni 9.262774878666342 5.43075957050294 4.5083143767919704 -0.7756933391195221 0.4793695860162647 -0.4513828709953516
Ni 4.785785300647121 3.286803379255306 1.1926326208395173 -0.1024504905574429 -0.40465487081119345 0.2628911844764247
Ni 2.799173459307533 4.429390309595361 13.448215451995656 0.43177666672864995 0.6009940783989971 0.38589995880119343
Ni 3.100635492658647 6.105524048384237 8.753498956706173 0.7052667097668435 -0.7294222239671244 -2.2882309057018526
Ni 1.660629817732247 7.022709248734327 3.55724176913477 -0.496605490278577 0.04902759485161234 0.33361966134023835
Ni 9.035700063670268 3.588218938022917 10.223769809901452 -0.8674159017364997 -2.1913180571331874 -2.032993895336576
Ni 6.331390524209231 2.20384333954971 13.037509333170522 3.197621866318557 0.2984616253818666 0.9512071253215425
Ni 5.335319365821004 3.660672813704227 6.591557101642844 -0.4424038074251929 0.51446694394003 0.5316208300114973
Ni 9.054754642906532 0.27493062312087224 8.382815819702223 -1.1081225796960852 -0.12381121562140614 -0.4874328226403734
Ni 3.714601920401207 8.370379221156798 3.1792937252376183 0.1655708160566955 0.20145338888591757 0.11513065712827268
Ni 8.96269778790362 1.793760909635185 3.743141032638782 0.7668302323019374 -0.48346098247681896 -0.05794829438000988
Ni 1.592275000315909 4.51327693281843 9.082785323200584 -0.8931811836260618 -0.24861076329801055 -0.7677766553756068
Ni 5.156382924417425 5.271770020338885 13.053575596687539 -2.1554822783815006 -0.04186218745142467 1.8657531477766256
Ni 7.2476183481391585 1.6228738660943403 9.399011402238957 -0.5713086355194226 0.34695185967277026 -0.06895338724126189
Ni 6.933868434909829 7.798063315149703 5.144915785683874 -0.2647570340405698 -2.988730533097356 0.49017721815473
Ni 0.9706588561287406 8.723428042196335 10.198970042652535 0.09006368685731586 1.9830263051691976 -0.10987506515628818
Ni 5.000274798430562 0.6672039926370147 0.7733630952581024 0.07612316551682373 0.6430640109858538 -1.129050588098004
Ni 0.031152842813788193 0.8736236437409787 5.844898302065615 0.02396165302192002 -0.3418135100049403 0.7719369574008834
Ni 6.990613901367097 3.626300211745345 8.357838519544325 0.8725835619803681 1.2518814420840119 0.08852205340180884
P 7.014139335536359 6.30453750986115 9.498742140469897 0.04631893767119765 0.9050218850147317 -0.08896428314555001
Ni 7.443676026105275 3.4533775814470644 3.609372309450181 -0.6094046710601956 0.3396766661675956 -0.33724568812859984
P 0.6039948411061383 5.165956688619061 2.2330916539315417 0.8227890070557442 2.23536002584475 0.33296840090948465
Ni 5.536108156387734 2.2922101126224765 4.7465207840287045 0.5297015015015974 1.0399016997454735 -0.4310138204206964
P 2.89010562938967 1.339657754226538 13.554204457641124 -0.010125261359459983 -0.6542570514881958 0.7859242728189109
P 0.3929035648684443 3.655235287434366 5.6877584403249815 -1.1077819085272147 -1.4455731847466393 -1.0197979870170628
P 4.001582473532759 3.346922900474897 3.6722096643130326 1.0388082095709787 -0.21126189033590712 1.536384034182625
Ni 2.2440066746130762 6.406753708817835 1.3455897700648718 0.20123433089657602 0.8085065289948011 -0.8622127602690054
Ni 7.803110454918137 5.107064096403951 11.194133087679111 -1.2052719697555887 0.15247284522215676 0.6277273806287834
Ni 8.324192780071431 1.7309737473225169 11.590500868001877 -0.6442696012581807 1.4052541734126185 -0.27412073464365694
Ni 1.4794254166537169 3.7208388095073213 3.4987442108794364 -1.3858096915347617 0.8643912559775628 0.9480850347527929
Ni 3.3440786559645086 5.048180799105542 2.8265274696657787 1.4896601477635247 1.3105635293062525 -2.3450417440433093
Ni 5.991066444132839 5.076604654376029 2.305261105161813 -0.9410713224391212 0.008999632395449016 -0.6728782661338089
Ni 4.321652930118508 2.4569067416407107 12.424225152313786 -2.543305936567968 0.5470726457901933 -0.8814294424067722
Ni 5.112603866757518 7.659020656225171 6.747417982845471 -0.6355502191073119 1.418463215903725 -0.7144604604509696
Ni 2.808087284423425 3.3949032604834826 10.51912787145527 1.8399225598667668 -0.35325311930044967 0.18546961186315153
Ni 3.3688217242215512 8.44740619585481 7.980449100140881 -0.7276101104590501 1.3109173131012455 0.5745585099152879
Ni 3.848207053055877 1.7004399459609898 8.808037809938712 0.2272670075149118 -0.0195169869870051 0.7704020088135958
Ni 1.276591744412851 2.64487784207729 12.937070322286994 -0.9422398888259257 -0.5562944214987774 -1.126471257406602
Ni 7.214017224266428 0.4364558265608557 4.48857476219487 0.7110774029113496 2.984190222024841 0.5370998508481976
Ni 8.961907719984067 6.9273526983026965 10.812676212727476 1.0426635787613268 0.4185146595124212 0.8456078047224728
Ni 7.766200340699987 5.38150580690637 6.651863450688118 0.4306027010252068 -0.2113333670037909 -0.6684019755300102
Ni 1.6853078215723851 1.103185778446139 7.703810071330436 2.0530803816738064 -0.4792685416620262 -0.8435267538237279
Ni 0.9517344057262842 5.3868596789259255 6.7840678393960046 -0.2862848808100167 1.9138273775760328 -0.006974631545620245
Ni 1.0664708574787014 4.685799881698584 11.61570961158562 0.620028726432945 1.583898791934137 0.9939036357488045
Ni 4.844547764028422 3.9763095950237815 9.102660643581512 -1.382727195954696 0.23612728611901915 0.04081651979572971
Ni 8.732490585979438 3.6680529775645168 1.3501405612814938 -1.3349848955734105 1.6227769570565729 -0.8363613464235403
Ni 2.6750026671039895 5.224440304499343 4.906531845538158 -0.5882234089968901 -0.25975006774428167 1.903396412050696
Ni 3.533378929489276 8.836547178442846 10.30493209303957 0.5997172685691026 -0.9860563717902439 0.7588788386653447
Ni 2.0527544685811794 9.03362729724603 4.944732094194353 0.19681306190042877 0.14638293027433502 1.5490821984755836
Ni 7.209193162498808 5.2167348185545315 0.029423058815803354 1.813298786631651 0.32401890502568065 0.01994816098715274
Ni 1.7825419451775404 8.11480619155663 12.359075222175822 0.03173281232690664 -0.0018020862057452837 0.48064768139773995
P 8.5978816023211 3.7147320492350158 12.649277393435806 0.08443965580231909 -0.681160303636943 -0.011050087166574516
Ni 7.594420985155883 2.6521650567705732 6.256421444068734 -0.5543735503269807 -0.2583835264140582 -1.0582377790505
P 6.885860190151143 2.394872467580792 1.6209089207038299 -0.5268288079394927 -0.548399849242049 0.6305316828467978
Ni 0.011313772607991105 2.7694204309488577 7.830001578424692 -0.8184798381574292 0.33606118090219544 0.8273722555510525
P 5.924170928638498 0.6894281384681902 6.784843035448836 0.8104063171206752 0.278861591762752 1.3763621729686166
P 1.3016043652542115 2.1478042867616898 9.5740681454117 -0.5950823409002526 -0.1008785180846327 -1.0379425191365736
P 7.70493754472622 7.5757846771711455 13.283987286779135 0.7512454904898029 0.0382389888765406 0.3281622377700929
Ni 1.2339001920069168 7.443369293854154 8.229416232441919 -1.1548207550835725 1.088869387893428 0.3295238940043099
Ni 4.846685594869564 6.606873265382121 9.993562607977267 0.3496224645263979 0.2023530178820515 -1.0672528380649169
Ni 8.592211703133724 8.301392349404818 3.305593982857274 0.8740871431090882 -0.04672311508815179 0.37590942324738486
Ni 0.09260804356325811 1.6722205788579163 1.4848006669816838 0.26110683888249225 -3.4305383588097627 -0.3876891894911323
Ni 5.577182393287761 0.7837343633126509 2.962010175493974 -0.3009998184226881 0.4953204529185664 -0.8251284538221982
Ni 9.175588560014553 7.656399489715597 5.964573143061069 0.786828015580103 -0.2420819610405573 -0.23019369424340355
Ni 3.467747522666219 5.259277652293256 11.46462259960043 -0.1278221365530121 1.03788698330829 -1.7367963833985378
Ni 2.44122621716677 1.3239679348358964 11.121134529879145 -0.511167447253152 -1.570925005382288 1.7111851105883369
Ni 6.161999962257186 6.955386167071758 11.650154713894766 2.134976188008349 -0.05540033114717556 1.4707005759418865
Ni 5.74028959155019 5.819854078507472 7.669705162972531 1.158308970742489 -1.1907267249515623 2.0338971238771357
Ni 3.0713750948851044 1.8533878002696436 2.672175153443662 0.8654739475187805 -3.599801793226697 -0.7156236275211353
Ni 5.4467189424779 8.941328774408902 8.89007009728001 1.4290155374982745 0.7096944065208939 0.04106360280952928
Ni 6.579694928949516 5.489921715302367 4.519864240284157 0.41397871931528063 0.17114136816593753 0.3210865618702341
Ni 6.022873649082349 7.525722255821623 2.7016010007344753 -0.3609515163859719 0.2902461794506098 -0.0038304294896837256
Ni 4.6122399109299 6.742458215294023 4.64507606315817 -0.33933136701303496 -0.2283687252195228 -0.0013948234649975978
Ni 6.0719601041783084 9.251565209125397 11.863602251516069 -0.2531379617444028 0.7425356214206309 0.5613456107694398
Ni 1.8547076784411314 3.144033458733828 1.4597694563069221 0.07726602087201533 0.9901739935030431 -1.7353367681338758
Ni 9.017872413438484 5.808597934383024 8.66323602062648 -1.8803428726653422 -0.4674784910056336 0.7527166757186907
Ni 7.398084459688748 7.931017803635329 7.568626661820001 0.07136739599939322 -0.3306662351388692 0.6870548147445071
Ni 3.8808879801752467 1.6631115604913116 6.365444310525283 -0.834327346712647 0.09671101697050441 0.802905637868256
Ni 9.072647357555221 9.192812040660797 12.364680056946293 -0.661843348475886 -1.5280225495918072 0.32517255901414965
Ni 8.012627172266747 6.249743975911011 2.1083826860510326 0.6710666668463668 0.19253603179162967 -0.09699563809045876
Ni 7.366435268323147 0.1563265565293283 1.5224023230023602 -0.2668591679852372 0.009096305874313365 -0.5084711313679114
Ni 2.3620242319608113 7.2726030842304175 6.3187410720713615 1.2467788307501237 -1.1852664731679394 -1.286584392782836
Ni 3.8516554671518057 7.231724040581104 12.549531783338145 1.0604317013780253 0.760271091027181 0.35600291413144497
P 5.339827400420804 1.594236227739739 10.648488945144436 0.08754400575925568 0.28553746112103084 -1.1003758458711308
Ni 7.79289534146416 8.849987627991938 10.24813457504878 -0.45847243085228134 -0.7444369522084018 -0.19353413403884087
P 2.2405768503505485 7.022960211485244 10.410023209731756 -0.19055165437174926 -0.5171840857608769 1.3655601972571063
Ni 4.909519231765737 0.06255757787016311 5.087098615331025 -1.197028241689558 -1.7201639170481793 -1.2880249818841045
P 4.0402865066741285 5.47849826267731 6.540011211587902 -1.0924355079781316 0.11869831987487298 -0.5638352099605128
P 4.363024604352955 6.726145636484439 1.1053524235290528 1.1088589436414773 -0.47645318370041806 0.5618644593873872
P 1.6400787569071824 0.011435536016769188 2.9715328176537557 -1.1522241980009897 -0.2692065851714912 -1.9254677900284387
Ni 0.45145875160732174 6.179743958238665 0.04444550318734067 -1.6379660060921855 -0.21176994032057725 -0.864353717871408
