# total energy = -381173.4399765689 ev
CRYSTAL
PRIMVEC
9.16799881601932 0.00000000000000 0.00000000000000
0.00000000000000 9.16799881601932 0.00000000000000
0.00000000000000 0.00000000000000 13.41829298276612
PRIMCOORD
 96 1
Ni 2.9476491467100123 0.29359049401972975 8.454786287686726 0.006900840884891342 -0.0929741756358915 -0.2649326403864856
Ni 4.738425191926316 7.973802814198424 3.843321377282172 -0.17148358199670466 0.46403089877666537 -2.3761688044654172
Ni 5.9220046740379315 3.7239127764040654 8.604721574298937 -1.6626583666325427 -0.5461632466020465 1.10352981811908
Ni 8.331528960896021 4.099021448900341 5.347874332345739 -0.1833592503883681 -0.38365332885886183 0.5253347398924694
Ni 7.869370139423767 4.020084978896848 7.737886367274859 0.2670954523657593 0.9759097702745452 0.1028469546649132
Ni 0.9781613001257525 9.151468937058906 9.772878648763642 -0.31584562518626896 -2.8032994877816235 -0.8294111403579524
Ni 7.205982911435059 2.778169520172895 2.028362901528329 0.21121406781710722 0.16855766659916133 -0.8918035865522447
Ni 7.180211666698726 1.6508173749406558 6.934425869025015 0.7000304010685686 0.47362676999521663 -0.20133151859607262
Ni 8.135507977720097 0.03667566255539783 2.24788604972794 -0.48218880063261466 0.6566096108807724 -0.7271018033640639
Ni 2.1657013577358004 6.984355707501905 9.043755035499784 -0.4708587203317762 -0.2998875591951158 -0.8140184599519659
Ni 3.258719347316114 7.3740048261567805 2.1621295053881395 -0.8304094997154795 -0.929400313859096 -0.8059598513135475
Ni 0.5328789309162665 1.4795408206311012 6.14204948137148 -0.21861395982560414 -0.3842840204643253 0.9433315792282077
Ni 6.603177819774234 2.015245328789537 12.958529045333202 0.594131546951209 -0.5654364930093617 1.2056252393299494
Ni 5.000767478703316 0.2119613827572321 10.527120745246501 0.21508589206768763 -0.26140508684920144 -0.9011870846496738
Ni 1.2951815319783428 2.185834283186169 9.332060178188849 0.8409733912742549 1.4147546567038862 -0.6048355636322745
Ni 4.400135202767326 1.9556625043350997 11.928232086209903 0.29245629972805115 0.3689921273022613 1.8298206955460745
Ni 0.7013656631791239 3.6099637188345626 7.018424907987384 1.2299789855839656 0.5805934032554582 0.870305821689785
Ni 1.3600267877663461 8.6872748198444 1.0494727454948785 0.08102831612792497 1.2224693074704818 -0.8996477651870118
Ni 5.8077805765032595 0.07935728115020199 5.378977685206814 0.24424734412299223 2.0523535308101106 0.15404558902591534
Ni 7.473605965543302 4.764434804632462 10.282451609831375 -1.3707898210871616 -0.1480001541627838 -2.642344830340701
Ni 2.4252657408645937 1.6784405554424588 -0.16125868197821694 -0.7114229591762263 1.6074187294329478 1.3310619063699205
Ni 3.880703892548054 2.4157676940674255 9.506418096908181 0.6667803807661872 -1.687917655419964 -1.1222448780300802
Ni 3.612072358567524 2.9013599205720753 5.1434059550395945 0.7527423867503036 -0.4099672841630424 -1.553660047654253
Ni 1.3713951063266634 8.443671922694248 6.297916463232501 0.610661169175116 -0.08543313006383996 0.8281512998089222
P 7.215059230285634 6.406762612648236 -0.028610573976759826 0.2663506037799348 -0.9531603923931713 0.2728943184357236
Ni 0.80353475904044 7.900587175470445 12.017087414157276 0.6389304484334545 0.4991953624929403 -1.3889366671995176
P 2.3995128321259394 6.755870840437205 12.79800563686187 0.9642007093677328 -0.24200379950445414 1.2752003193156103
Ni 9.155796232510898 1.7320733486504076 0.2270519088461694 -0.7355231946585398 0.17462958382485408 1.04580469549347
P 6.09679257190281 2.438981067127686 4.852846401436026 -0.28590924263815276 -0.1969652712075769 0.6467797692745442
P 8.907847703911074 0.3721950824652527 8.027131229844919 0.8246407155525023 0.6920525250694145 -2.480342191251238
P 6.203251374420878 0.3698416571632902 0.8753531947453606 0.26036918938551934 0.6391338226935122 0.785024643822777
Ni 3.562326796867297 7.450282576496973 10.760115350940088 -0.7740321493670153 1.4311436395848707 1.3863933319523734
Ni 7.509801224959538 0.2609854229488326 11.185153861913253 -0.6444243816684901 0.24886273140781656 -0.03865962135372697
Ni 4.814886302243289 1.6030612689884842 7.059618560370625 -0.42270170101057525 -0.5542185128063551 0.25697610454357034
Ni 4.662321633564063 4.312865021819213 10.681699623270648 -0.49551379987629496 1.7993490093197784 -1.0804210000157586
Ni 2.9637939926654306 5.057370703535089 1.2259649743439207 0.04530078081932843 0.5627196082988308 0.04649865778217153
Ni 3.7409560862457023 3.9605021544424104 12.79462447889006 -0.3377887051162634 -0.31111608092108356 0.5207458349702063
Ni 3.0955289679825264 0.7024319014440955 4.367332102921507 0.18325357804843923 -0.894141490656802 0.24150397704990023
Ni 1.5925089023248349 4.259406420589205 4.855583965889341 -0.35702081387299806 0.6767007252036926 -1.102982173145726
Ni 0.3745705109644286 7.192780993106947 2.2982183633538606 -0.2233807850866282 0.3789636366926764 0.6071513562496447
Ni 0.4494363894834214 4.752846454100009 9.458554725369593 -0.2065518864547475 0.566264902447928 -0.437165441844389
Ni 5.944237071222424 1.1362909441002305 2.9782308404371496 -0.5887661688742376 -0.8647288418226398 1.007941344788793
Ni 1.4035381102560767 6.0157199581698375 6.874486409415741 -0.02238068168804533 -0.36655652127757515 -0.05100194496916377
Ni 3.38114880381166 8.880600411361668 13.114422614390856 -0.08327571740120496 -2.5093195523201945 -0.022085004824497448
Ni 4.0252098902478295 0.422869362447867 1.8763336439812983 -0.7211059907919452 -0.38700861848433993 0.10857511539794204
Ni 2.7767209763563385 0.7319537745054486 11.140859592322675 -1.8172585426103478 -0.8335534446611 -1.6799948010284615
Ni 8.007110153980387 8.603332622474834 6.096936509484581 0.3817067466554523 -0.957438450943235 -0.12244287451896976
Ni 8.213600991830408 3.1335028191735224 11.594358322091644 1.189476654594545 -0.574025006009321 0.43670804259199625
Ni 4.5962937059258335 6.252199320222115 12.612578276344372 -1.0631832959812333 -1.1549063728188433 0.3333795203049742
Ni 3.120530100816386 2.654896607784164 2.6812967772408496 -1.1053933536903802 0.24825569395143698 0.7915318488136756
Ni 8.939055571958914 7.494683194874083 8.203072461963739 0.2919983862550261 -1.8216453588241337 -0.24821584185243709
Ni 2.4251923968738818 7.264236376057846 4.501797308292848 -0.2613966022087692 0.38594572443746433 -0.39103676580712654
Ni 4.370082502573197 5.903604500368127 7.692988843360676 -0.7480056433962666 -0.7345176362121608 -0.30628112142628544
Ni 5.0446913611408 8.257992442208678 7.878966283808512 -1.1687569055486902 0.9088546284972606 -0.8563768703135186
Ni 4.7290830011094105 2.522290672577366 1.2171930330547984 1.2551282311560834 0.0687628684970106 -2.130286238731847
Ni 8.89485664955626 5.607854025821938 11.873364363558347 -0.36059696126003055 -0.11986791470294193 -1.9371369988362508
P 4.893511060286258 6.326487614814252 9.690274979224563 1.1054198360529415 -0.39111287046070065 -0.12410689248495399
Ni 6.754266440640386 8.149929239893792 9.343211215176684 1.0328396506923698 1.2677960564317392 1.082038995235156
P 3.09354868023331 4.688963838190097 6.377057379610103 0.2628526179290054 -0.4567672752357166 0.6517065171522003
Ni 2.2797695992902103 5.256655494297684 11.163080071108677 -0.21472722317668824 2.171272708446538 0.31390032853444005
P 1.4492772564636758 1.4818053163443257 1.9382323049424584 -0.1420894451053037 -0.05275209489105108 -0.4087352115281542
P 5.932410352720158 1.2060502472659196 8.87181288447452 0.25261628491297783 0.21869160714107497 -0.4375588206280658
P 2.496051859900247 3.1541949925530677 10.973037539975644 0.0625071173952859 -1.124118440903709 0.1327216307371585
Ni 6.300624690089531 4.31510201353592 12.245480601233583 0.10695197797222226 1.3292289669262398 1.8675809450139835
Ni 6.315935248150604 5.172704128929276 4.828559455711723 0.10089060226949076 0.5208520215307675 -2.734542018601252
Ni 6.575169583321194 6.684828017434061 11.275901464820986 0.02801165472157757 0.18420205800463763 -0.17597735610200016
Ni 5.586144204571267 7.376938585785249 1.2048657418159252 0.3469030087127058 0.5965275579872114 0.20497271489308572
Ni 3.8648982625496777 5.380606838600499 4.31537705350109 -0.07045773970093026 -0.19467441829087118 -0.4089023332336377
Ni 5.48667141716849 8.36601897252821 12.584909255848375 1.6833642317213269 1.6513362567515042 -0.9322388117491557
Ni 1.1232265457547046 1.9851834605965688 3.9952965436360524 -0.07747222334555044 0.9446785801744053 -0.3495389036736561
Ni 9.470176080697867 6.426171266190325 4.375141404332538 -1.461799673907831 -1.2404405472369215 2.179305348943027
Ni 7.669672788713419 5.788280242972779 2.236184932809768 -0.4954960592644821 -1.1928126609463134 -1.448357432359996
Ni 1.1396189276787752 3.7073645384997325 12.543889795443075 0.23936713321255548 -0.33625915584561444 -0.2522596729045075
Ni 7.374765770060414 7.442728145453666 3.7885077458237646 -0.7687073947199923 1.168761790644697 1.1142281783731907
Ni 0.5650714420394102 8.848127359474052 3.9719089785978516 0.14320504676698562 0.4679667434959618 0.7417154395121807
Ni 8.901668472693611 3.843289289286236 3.134204171084703 -0.5380606720995702 0.534493523573602 1.2554341924322765
Ni 8.097515790531425 1.7447160190493411 9.29926624634187 -0.9520674164393087 1.4138421721919456 0.8964225733814949
Ni 8.211822400055647 8.54789373349561 13.230437222098779 -1.3318401792968417 -0.3599924949068123 1.5146692682133527
Ni 2.721942183293519 2.583844616782181 7.20575737866362 -0.5796858038395242 -0.19225218200262376 1.0797301445963212
Ni 7.936470722926156 1.4469210807620616 4.368298409999134 0.11648434294268971 0.027951748017919602 -0.024043928323081172
Ni 8.361902541049513 4.178113774884097 0.4139103939824299 -3.7694866314517665 -0.8323673947727986 -0.66580259023395
Ni 6.731483963525557 6.326350094831668 8.115209111490744 -0.26369773953812004 -1.8146910389934876 -0.650890449008808
Ni 5.43235102404762 4.7719250596838965 1.0283918489645612 0.7884987184143065 0.790827109437167 0.5676268157924611
Ni 2.703037769687572 4.4288768791274835 9.064982620011525 0.44542253964685874 0.0755346400032054 -1.8183594889840105
Ni 6.166029299134678 2.5590176759262624 10.767871477957852 0.8578048610092968 -1.2542286021599496 -2.5543655368162397
Ni 5.283123506945778 3.671334303062598 3.211373050912044 0.18597843317877003 0.14718845689476587 0.42865586171148107
Ni 5.253510870695918 7.0331936373170745 5.76920805498808 1.5694749031993227 -2.1410236797540096 1.6199441155934682
Ni 0.39984851736322446 1.2868661570314008 11.427085432875066 0.7805460392261331 0.44659110603366314 1.1116956417593242
P 5.594450411519369 6.168284626849063 2.863731702937309 -0.4514330075069967 -1.684070770870048 2.023751293692386
Ni 0.45376185133564534 5.970182507936696 0.45461080802813353 2.2540881983818726 1.5658933564956516 0.7552528118769831
P 8.579156609536481 7.152038406266585 10.307865302612989 0.42689182783252283 0.012062844701805032 0.16897161420812834
Ni 1.0232678544134632 3.722152520626984 1.4276664496004663 2.804561899433815 -1.3689239715230166 0.6318203197512344
P 7.555797075134628 6.183155120965866 6.122324531869445 1.8168402241260067 0.9411682530283016 0.37432176704529085
P 3.6341672357694312 8.297057285261511 5.876299449426036 -0.3863496447441024 1.9385426209345256 1.7036422652440721
P 1.8460224062199106 5.7143678363330395 2.9566273679730113 0.1848965129685009 -0.9402958777256774 0.20822464617148012
Ni 5.419460817680034 3.8770733650078237 6.362834146211331 -0.26713144781001735 -0.03178346305918397 0.6081965096847074
