# total energy = -340864.1220418492 ev
CRYSTAL
PRIMVEC
9.33452338565855 0.00000000000000 0.00000000000000
0.00000000000000 9.33452338565855 0.00000000000000
0.00000000000000 0.00000000000000 13.66201852299697
PRIMCOORD
 96 1
Ni 5.0252127215527755 7.08340047666354 5.926815677173109 0.7075567913526007 -0.5038261763967322 0.5904772380280734
Ni 2.1304089634144305 7.898136356611918 2.9311589268058245 -0.08151322618414349 0.17563154272680723 -0.5475223317331022
Ni 0.7606077785407948 7.103404360519654 5.510356844764263 0.08482120751145392 0.8796975473173302 -1.5125540216425628
Ni 8.203169915478043 8.355957396092546 6.587169739893533 0.0835143157745723 -0.04572038485525029 0.018527883600858417
Ni 0.704258060540699 0.06783024845022893 10.086586453684273 0.8480552378217008 -0.06742538063250968 -0.11823783529868667
Ni 0.4534851533158282 5.413771596678588 1.0460136348477727 0.3834702663137783 -0.8349269279698589 0.934038841072372
Ni 7.610633032874949 2.2571157853756514 0.5233167236040184 -0.05604747781287121 0.8450964123036929 0.04183853330234085
Ni 2.5175023183510645 6.702850622698971 0.7553048357416076 -0.7554402452974409 0.22462674167858737 -0.7821951447937819
Ni 8.120120659916749 4.918435107259686 3.8713648043519444 0.542797415453607 0.255509804410689 0.9153569483921526
Ni 3.8391681659028034 5.606940225945237 9.869100457253104 0.4385042152604706 -0.7741041402555314 0.3117639989177276
Ni 0.7519154702595006 1.4465244338603649 13.938810817603665 -2.319342539504993 -0.309663407634957 -2.3382710009783794
Ni 6.200709265650061 0.5954044482216639 1.2668460579529575 -2.852596277134223 1.4914714899406507 0.9472579108658074
Ni 0.4391174547477782 6.612791139990716 10.803145549290575 -0.9805722087472208 0.5147011714380232 -0.5343346293982346
Ni 2.7060876965802194 8.669541378482794 5.006077881834321 0.5286640613760185 -1.445056907231853 0.3684213424004558
Ni 7.119245046895681 6.264650751611042 8.655352902765905 -0.3193356406173984 0.2527857206113066 -0.42490230820631986
Ni 6.808750791783253 8.293658786267203 12.82885382989021 -1.2754350610342358 0.3378591533428827 -1.6181152899148454
Ni 5.8673547624911455 2.9878222847954516 6.513517549137631 0.43219241410982984 0.14341639144684334 0.5920016450923997
Ni 8.946674046613538 1.958280350112168 2.6861304853415944 0.20468860799376362 -0.6772879651657303 -0.1304534035282721
Ni 9.283407647278711 7.780418680779226 8.742038888682002 -0.019980813997301075 -0.20012952786817145 -2.011609001902897
Ni 7.266609169357873 5.414369006182457 6.475769669564257 -0.30668709861545246 -0.16248703492504918 -1.2933921597332887
Ni 5.480504105165458 3.5909725206157175 3.8599029429488074 3.3153506231913097 0.6037086491166829 -1.3286741228640342
Ni 9.069170998477182 1.9196727609246322 6.255646670244916 0.28214694738224316 -0.12348802795403248 -0.6227206714428114
Ni 1.385616668036218 2.113662828259102 10.98347080767639 -0.5760872878549885 0.9362291638554715 1.7110550127683757
Ni 3.7765148441845393 8.606542679395108 7.285039252552233 -1.2102807358240897 -0.23026877045571312 -0.7271989910635606
P 9.123572601423254 4.2741942990014286 5.855431775627209 -0.05900270378645322 -0.5457374719185375 -0.06472263698936595
P 7.8638973244214245 9.054291768021443 0.828628451270382 3.0297447707261886 0.13386577164393074 -0.36594485583550523
P 0.8424930190218924 6.411781510985785 12.841109125790675 0.32326942845416584 0.033225594822349235 0.5730857820245033
P 4.228716500519399 0.31316299538049236 2.550206754878494 -0.42011851366443126 1.3013774919316103 0.500936513553763
P 6.518465780043895 -0.13081867956206938 5.445270946222433 -0.340711020969381 0.6919447958469567 0.904422817978152
P 3.5384191533222396 2.821873126048834 10.958469219939472 -0.5082636433427957 1.0063786282873637 -0.39745526773896067
P 4.969597630551968 2.8636357841786784 13.374843177618407 0.10150920969009614 0.01888038184427071 0.4112721190173949
P 4.460847430866507 7.29905597303676 8.700793363153943 1.7523633845988595 -1.2053799560883627 0.873788638032063
Ni 8.496497981877733 3.3058681694177237 10.527651090033725 -0.06159026200797135 0.7060436971421841 -1.4182009633812735
Ni 5.281809437988019 8.445643497860882 3.9009841808633006 -0.8606996660585887 -0.07502170492252885 1.0539178115189074
Ni 2.68742798410781 2.677178677307057 13.502938043223775 0.262036035564981 0.6927086705961748 -0.7457117051557672
Ni 0.8949717101273869 2.4407538661508905 8.280139595885117 0.19921035848801177 -1.2017410737841947 0.7153467197106648
Ni 5.303736233684713 0.9580861573064497 7.7751092038135905 0.10458553462257474 0.031673162733564804 0.03328061643000075
Ni 5.02587547272113 1.4781404649479333 4.553837953953119 -0.48450639302219783 -1.2149007510946046 0.20632382960434145
Ni 3.4383157233301858 3.3345344910799386 6.0530669743876295 2.098629788168831 0.25173722474213417 2.2306585066040228
Ni 6.909386289614691 8.781247621182805 8.77488240960955 -1.2494324663228868 -0.29987984588563193 0.18076346463673384
Ni 2.911848598045608 6.717197785315326 11.778271879242538 -1.9857879270747352 0.6194443146843849 0.8257884560037003
Ni 4.286207830743295 3.4329390377953644 8.832700448155874 1.1376537563859828 -2.834825583414363 1.5165610859194267
Ni 4.250792648592059 8.001796240056692 13.448290008857356 0.42306602632852947 -0.6917529915511248 0.034334254505495716
Ni 4.690514047010155 2.581910530486944 1.9497336603974416 -0.06246649396533758 -0.10737338178035702 -0.48061862793201743
Ni 3.395526267615567 3.7096049797512087 3.8406803587094718 -2.5211186018376512 0.347351409104034 -1.2779771107297988
Ni 7.309099920320557 7.128224858500713 4.716894343867721 1.452356783327376 0.7652022097802111 -0.41943331467194855
Ni 1.3920294856793125 5.364494647132892 3.3529599070125493 -0.5411431676796358 0.8095905060875992 -0.9227275298246108
Ni 1.4947839203447846 0.017158721093938133 7.141123303070184 -1.0101591783757184 0.4349046708346703 0.4466129604105341
Ni 8.132012842853142 0.6818346681939149 11.359066830020595 -1.1766615051077478 0.24862541858602988 -0.35707506414970114
Ni 5.161291405105942 6.954173333357871 11.460657249605871 0.8124261757641813 -0.1155353487658591 -0.010347918893227339
Ni 4.978885481432432 0.7030268368913188 12.283507630831021 1.3595864961721746 -0.4399034096008424 -0.7559336399940917
Ni 5.027312989339816 5.033744476029905 0.7382814652383896 0.11088499447804129 -0.24551001288549973 -0.4867445383240972
Ni 7.307242350144465 2.4594229131467977 4.710882910735039 1.105632723394696 -0.4650840226315281 -0.5349285542284917
Ni 3.3677373911621595 8.821264723418532 10.996476599266089 -0.008866449251694407 0.1888920072811392 -0.5502266180381428
Ni 4.865881739966207 5.18698001377231 7.655443412926875 0.8970275539553455 1.7521168158056921 -1.0006116438965993
Ni 8.571762244841732 4.659420749238471 12.57821067254196 0.28871020242205764 1.0366549106734018 0.7161501894485666
P 6.568414815281445 5.7130084164524835 12.971540422627578 -0.5050567063697238 0.9583784462590011 -0.28273727266807436
P 3.3317621376010464 1.4724744091846755 7.322636846297289 -1.2322785802514198 0.7259203814614531 -0.07432442174518812
P 5.054271093201906 4.747631996294132 5.467594459167788 -0.18741233741181917 2.1667295691605455 1.4955307476116888
P 8.924588564017379 6.81793596290524 2.9400799309128187 0.4542573643296693 -0.1837415734284513 0.34028653183745267
P 2.544992490052538 6.657456834928423 6.96512926358742 -0.48371449324852184 0.5342387272503186 -0.45696679284103237
P 5.527671452400617 0.5461134968907204 10.212550247575058 0.15401113624355411 -0.02131933030306651 -1.117847777403649
P 0.9124599399008028 0.5589988731272955 4.186083864799546 1.8433035605238575 0.42684374820340687 -0.25393808904819487
P 7.937593387437767 7.752247088862402 10.331054823738626 -0.6600446047042504 -0.4905065764696907 2.236472027962006
Ni 3.941231845829427 0.8083660011133743 0.498090173850799 -1.2188947027453458 0.39798388654892103 1.8436334330594506
Ni 1.7653077458389752 4.7746181037267155 11.034539052281344 -0.40359429075716297 -1.5190491424486032 0.052678818450954436
Ni 8.21823583640374 3.92091992269788 8.211597123291995 -0.39101362587867494 0.6491647245669528 -1.4330768520518418
Ni 2.602306464329972 1.508346982987311 5.282760625932461 -1.3695220101183319 -0.07534000749389605 -0.9964652258283935
Ni 2.889613763073483 1.3506495430128844 9.45728648373684 0.8193298448625502 -0.5724000688113884 -0.8608755295148207
Ni 5.604867961728693 6.141220347397603 3.704114413029713 0.2666581077180246 -2.37576282727625 -1.016008952288276
Ni 2.4698122378000202 4.403057395890676 7.948439170290039 -0.6491441557416626 1.2370914282590306 0.13428871811396229
Ni 0.5559502177528638 8.350562041510727 1.1471671987333458 0.5165675352228007 -0.22135964089154136 2.8966045643943725
Ni 0.4343353783597766 5.86874560649234 7.371956734651077 -0.3753188408512375 -1.1974594156897054 1.4726582138888897
Ni 7.030016336778743 5.575240184146188 10.85466465138048 0.818009840499546 0.48449148062386244 0.9155402680475522
Ni 3.4247713297346554 6.369505454063553 4.268492772048878 -0.677593155110975 0.007395264022806618 -0.17729067559678496
Ni 2.255379564005032 7.269670893065202 9.325803186101718 0.07741643040695054 0.31954004331872066 -0.8126244078179166
Ni 8.083202619482345 6.937959266041926 0.43822320739667425 2.4036837220562344 2.1603853721100728 -1.6199436013728359
Ni 6.05388654555075 7.667321594078021 1.9284481464650582 1.3029448364187302 -0.38013965927864857 -1.639882506388608
Ni 8.284482949668716 0.027210135996534466 4.126285040366955 -1.013443505553945 -0.3901314803840378 0.07972708081799817
Ni 1.109874843906672 3.1209419243997663 4.21671417020573 -1.004248469318238 -0.18893545892456493 0.21324009710820047
Ni 0.30610982942543863 8.627265321560564 12.7292441961912 0.05144803136764688 -0.11541862068233671 -2.8247090638056513
Ni 3.6733496904851575 4.617471400638668 12.25071825013976 1.7719181668023354 -0.9953609370206212 1.0992023943883198
Ni 7.012803475448518 1.947601655230509 8.919959573814744 0.4162253492576122 -0.09857326699022378 0.8793864438348146
Ni 1.951419475341172 1.2514235582296387 2.0077430566754737 2.225076384530555 -0.7475410450550223 3.1658949675289216
Ni 7.313496480888094 5.3320478434540055 1.3575318871879256 -1.2160811445559507 -4.0605131407118265 3.124021210113271
Ni 5.890289686725616 2.5431909270174327 11.193346367099679 0.09505754052748146 0.8102235116859079 -0.04256152751129444
Ni 2.9021406936077367 4.454023894189503 1.462382855831038 -0.5451990829165643 -0.09257668308715668 0.618667070198728
Ni 2.034347382096991 4.958685572582861 5.56505901936697 -1.553407308213499 0.549221573812396 0.44657722207659223
P 4.198341961057058 6.689156876727473 2.0330993563053146 -0.9470213693749691 -0.44343661956508146 0.5873731451814529
P 0.7308875891756608 4.390493127262431 9.233980411904698 -0.3337271334523801 0.34563468352324345 -0.15150611043351325
P 2.434845112776686 0.3317181611897243 12.738944633010272 -1.2974943548271203 0.02845696978911228 -0.2546469421897614
P 7.357714118697899 3.3811511014287183 2.6218641579628845 -1.3013628366435912 -0.4627435474238095 -1.0363543487138476
P 8.51653920382784 0.6376104962176606 8.023976934792529 2.2185067017328373 0.8322375540631537 -0.2880823390300716
P 8.82181546030491 2.5381689533755334 12.35945424746272 0.7514756042227381 -1.429134836684958 1.4825775298851305
P 6.430422554411198 3.996604239219287 9.604686077388324 -0.4626607579020161 0.2687936660037887 -1.5901046636345324
P 1.0420781997410355 3.287283133133298 1.634660821509268 0.37573484534273355 0.24438926901749525 -0.029554573728665226
