# total energy = -340867.81460541487 ev
CRYSTAL
PRIMVEC
9.23339410292172 0.00000000000000 0.00000000000000
0.00000000000000 9.23339410292172 0.00000000000000
0.00000000000000 0.00000000000000 13.51400559540476
PRIMCOORD
 96 1
Ni 6.534879223799778 3.6386774522377703 12.348449399396321 -1.7808622633695006 -1.3733298139001962 0.8370581153802488
Ni 0.7155049367164802 1.9719574960274773 2.0772514281788244 -2.8526554125069326 1.5951224285640981 0.3271980740846107
Ni 1.3913432126835312 7.476870082658423 9.552631241040935 -0.8931886398252296 -0.004222779832095954 -1.8377268377670286
Ni 2.2579988096579613 8.973160051877803 5.119146000788122 -0.8860234895353579 -0.2663068950261929 -0.3931664105556197
Ni 7.976055064058883 0.7053491266237668 6.054896008622435 0.5755201024976088 1.381877189249575 -1.459560243054351
Ni 7.918069349555528 1.6611429862166585 8.0922813347408 0.26083713016087334 -0.0845368435018157 1.7966740335907767
Ni 4.440136053972043 8.880456775824669 5.102078071925153 0.8999647822067984 0.2587959313611285 0.2813632751386832
Ni 0.7980551726951103 6.4147435340859 2.336666403447314 1.3606162229882697 1.04804412634695 0.6630682220219225
Ni 5.634050835523291 8.174508401928406 12.360571922417254 0.277422031102748 0.025271887192911315 -0.6195222191101718
Ni 2.9406328636305012 3.8062450870796316 11.095593247059696 0.8210961927343536 -0.08373594486707515 0.4730945516408303
Ni 6.61185802982119 1.3928759560923782 12.674137060309368 0.5720187742125696 -1.6005320296154435 -0.18066576271660498
Ni 0.053735583231715935 3.984560392571478 3.8640193568597185 -1.4934869777087827 0.09097797114146913 -0.03407868685126389
Ni 1.8637236512172337 9.126351292216206 11.71025105418929 0.8277193544778261 -0.057453871242094605 0.07372098383323433
Ni 3.5195759026551623 6.482276578015443 5.771196283717755 0.20240546838654175 0.01798538083382709 -0.3983944917237784
Ni 5.880046919249148 2.84513186918652 1.0116642035241579 -0.280993036283458 -1.5710880133227136 0.2389606418027562
Ni 4.9816838471784575 6.649364076367787 3.5333447398315005 -1.244511889092818 0.3839739454230742 -0.2298525088539009
Ni 2.2318036707971305 3.454489708143355 3.92312969875583 1.8203472088380004 -1.257078927124551 0.25141223730254764
Ni 8.443975773276483 6.238542675826738 8.919824274607551 3.440073037773075 0.9317726707460147 1.8430994149328515
Ni 5.435108127770219 5.689580467214879 11.778793308086225 -1.1039972446738018 0.5264912220944158 2.354276632378016
Ni 4.921463651320036 7.765626014133491 9.394680186080482 -1.0540630788475203 0.8056466909485029 0.034178959874554035
Ni 0.6884621722837688 5.281556785064678 0.2891548140971292 -0.7501607420660564 0.8969177678503585 1.0848538389761315
Ni 2.483884561188229 0.17702078364895296 9.17427999394296 0.545772438921531 1.5343415498312996 0.7266950548439485
Ni 3.415792553766992 8.130012676101709 13.386987396242457 -0.2419238381961382 -0.04268134091861036 -0.4812099816591132
Ni 1.080122433535428 5.280301043476707 7.709605165879548 -0.1493857216564008 -0.9222148518542506 -0.7457723831903736
P 7.320779556594853 6.833404086157736 0.28532387891441546 -0.198557041174729 0.2887012035609931 -0.4823962886577305
P 2.6432898757082803 7.330742388752356 3.448963521816881 -0.6548964848444077 -0.6156498806389591 1.8439455649832306
P 0.492693905397935 1.2962761877589222 4.4178226339610855 0.7436113709833129 0.9176156625193421 1.7157269643227484
P 7.881772877626756 1.6943001041755037 10.806055247110354 -0.36064606933041116 -0.004295542051560345 0.16689056330938354
P 8.775122216739593 4.689483859730498 5.975461119789255 -0.034430927984360066 0.9703860122428384 0.5719460119931054
P 5.344833234346763 3.3378350079784838 8.949460699423064 0.1474388823426751 1.1170671904838827 -0.20119165058409866
P 4.044235818182176 1.6469881931699 3.9726308474857563 0.5693036892742519 -0.4503665139156953 -1.2984811442204218
P 7.831570914290014 1.5406841277117587 1.116616500096425 -0.17293522684156667 -0.040076042085279366 0.8598673999652803
Ni 3.114977809689793 2.949358420988092 8.055307131690284 0.4003675562897492 0.8714725883043765 0.0850016989533762
Ni 1.276452090778237 2.158370488082929 10.466016121857725 -0.7884997468555711 -1.1426164997078967 -1.841110923747913
Ni 6.929652985518081 4.404504386413373 10.360850533883385 -0.21528926632774534 -0.39780030978320524 -1.7841149659788438
Ni 1.1020794445368578 0.8293702285451308 6.987078233003864 -0.6510873955109625 0.015168737320638392 1.0563089374589036
Ni 9.033038612157144 1.3781671594038678 12.83033192372547 1.2339084025453588 1.2650478042626407 -0.4264951066147364
Ni 0.8122884495911169 3.7321101664192113 12.145928751456937 -1.7937342342361626 0.850464875704458 -0.015372111580696105
Ni 3.3348987886771995 1.7703278706119094 5.953757103784226 0.4291762529913254 0.2535907330111052 0.616589618844409
Ni 7.6767176630263565 4.1282227702717496 8.007791162676634 -0.20594819143247758 -0.12398039420941875 -0.4102958711470546
Ni 2.4467109168266834 3.639582324852632 0.33870951651242487 0.7603358828268454 -0.44626329038059925 -0.17407705375549376
Ni 6.746656349253432 3.7792835765143775 5.807129883261179 0.6978462489330562 0.8896667427149001 0.7904884951508256
Ni 0.009053342845627348 4.1622108936932225 9.87404845721548 0.7871774284997217 -0.5003479880401447 -0.20372727252175882
Ni 0.021089071962685224 8.297192508394344 5.169431064671128 -0.45074678007324953 0.2816982898805987 -0.6386782232133323
Ni 6.835555466966538 9.026002765906897 9.96499831174247 0.8402236575924239 -0.23188008080689096 0.38524869837043973
Ni 5.951845791220181 9.186239085889575 3.027556035021359 -0.3105059581409104 0.771987865243477 -0.04028507277229191
Ni 1.617321298154091 7.719754512596441 7.021526179447991 -0.7717636650478129 -0.7722390620223346 0.6203681120502348
Ni 3.148014893526259 6.994351377480663 11.078565021791052 0.9922113356480461 0.9570579276753646 -0.0944877840669405
Ni 3.7722015632939834 8.853107462710188 2.3915598542902914 -2.361875784881513 1.15619166728917 2.065864677922668
Ni 8.430541184964001 8.584277195550127 1.1241878832003662 0.166063696532714 0.07117456326229678 1.145752217123401
Ni 3.2839396870300632 6.499395290545574 1.6302886767286948 -0.0906360144210181 -1.0019694434760742 0.32556053848118766
Ni 0.05984439672143246 9.191188185089224 10.393797130458363 -1.0300829138828387 0.8726923196440906 -2.6901935743928633
Ni 4.327830282394923 5.212149362147207 9.914536890033508 0.8107639575704101 -0.8874864472341297 -1.419359245355433
Ni 8.194267865150888 0.34885424653230324 3.329134380784772 -0.09576125146272539 1.2855711210269731 -0.635894489820608
Ni 5.404213191348527 7.513600524106566 1.4107000999263395 2.0537969481248566 -0.17629231623925767 -1.6650106689148032
Ni 8.047872402817974 5.244364673915073 12.465602702838767 -0.27398755149990234 2.0965996451126796 -1.0222780731264394
P 4.406277198066978 4.179431173557674 13.261861057055796 0.9170754737451562 0.43589403133113314 -0.33323116765256805
P 1.4412035404411936 4.166901457860054 2.0976304521406646 -1.067223013268246 1.0043626262985992 0.2880262889811555
P 2.143670924788448 2.1154075056650767 12.355138993370474 -0.3295182375773551 -1.3143672193230589 0.002208063394912326
P 6.480235997934991 3.7875012972003628 2.8371708368545465 -0.08225036146048414 1.0850713543035764 0.1244755886782824
P 5.973027197123159 1.5992423126449238 6.3752181442651175 0.10287703657190024 -0.33469566801323647 1.3385661851667658
P 7.481542180037197 7.612877976708489 2.891658941699642 -0.44821321501811834 -1.0158680558350375 0.41745073702428104
P 4.796748198167676 0.3082263894644349 0.8022499036025742 1.8067532722036497 0.8010511011580204 -1.0004460648530125
P 3.564699499275847 8.54942113308991 7.582992250254189 1.056904404951057 -0.8677018084080346 -1.3136686505941377
Ni 5.914866048133249 5.257088290887307 0.9231039513719237 0.3893249253223424 -0.08098177916070569 -0.5797817059874403
Ni 2.676825562822323 5.885383820998024 13.04054214221237 1.0607757149810053 -0.47835477159850515 -1.2035148778551659
Ni 6.444733597892729 2.1366904789023753 4.300737657634454 -0.004119678595328389 -1.8901009804933708 -1.2529916444290548
Ni 6.4246971328493725 6.100974338185737 8.740507145863539 -3.9900715989608124 0.059621825427690865 -1.8255318383627335
Ni 8.042914070224295 5.406115270518542 2.1638763609425387 -1.5219537176899078 -0.2870263869617315 -0.7090084361974628
Ni 8.08228526236479 6.104335293612365 4.384105972324071 -1.287388633851686 0.3094811164208218 0.41784694402143524
Ni 4.23316029341357 1.5814310955626036 12.752261730529806 -0.5955795922516453 0.5764346438920782 -0.26480999876569233
Ni 5.396466373758031 1.723274494639123 10.493652593526514 0.5488410505445257 1.0006638372907735 1.833835216022106
Ni 8.260471300340228 3.6010790717508816 0.5436031467173138 0.39503457411260995 -0.8391011139522064 0.7397025228472099
Ni 1.3614085492408756 9.16791079874162 2.9675408205103864 0.12915525354213886 -1.1352726577483157 -1.1624512750456366
Ni 0.6425786673344819 6.417827487691651 11.423551399564525 -0.6170423901111115 -0.13647389869073917 1.4563378794623112
Ni 8.054234211304092 6.906578733839119 6.7016361666458755 0.015297549589018817 -0.639317656569544 0.07475276753185835
Ni 1.9669160628875357 0.7181687708939034 0.5083805185141372 0.22240042345122987 0.14671331703056023 -0.1286078656791011
Ni 8.463642902558671 8.488443798921095 12.33116540911307 -1.394655571961166 -2.5468211488100785 -0.13488315716485158
Ni 0.8751743263057666 2.9701981913119893 6.07099166109413 0.3910689045966426 0.16288709857694528 -0.49080328177450305
Ni 4.210086041734607 4.235819510893978 2.3063411674372234 -0.6358212133805115 -0.020803567008912557 -0.5910616497766337
Ni 4.781125295470276 3.8480261950617467 4.571017567657099 -1.0016259440937267 0.4355366479917144 -0.12650033241779507
Ni 6.52116763366642 8.733350342151507 7.502070784982309 -0.1390041213117606 0.01066699279554292 0.7696664161991519
Ni 6.619253978438577 8.309620656757643 5.173688582657991 0.8245921217027541 -1.5940111977777902 -0.8979523797624599
Ni 4.795880259128933 4.796812831925882 7.242033478956252 0.5132340999741936 -0.4739116482254871 -0.5696764992326383
Ni 4.776628632578057 1.2175799704480792 8.448821458463005 0.10127755329526429 -1.0842393453205843 -2.404232909691485
Ni 1.1365754046299363 6.390201172756294 4.820364450076153 1.33993864003426 -1.3720702304614822 0.5003150779196802
Ni 3.1937386607588403 6.251414027103439 8.247570402202635 -0.012284988014940133 1.020941870813519 -0.34597741157464285
Ni 2.947520975576282 2.0424359926523357 2.0220191117749757 3.015860813655245 -0.1435518885834431 1.5487700665518036
P 6.9080376100957315 6.753544461199213 10.716795103690709 1.0051547831825913 1.0856868764003882 0.06826715980751469
P 1.8982565448864293 5.437988946707328 9.994810171044536 0.6910410530857647 -1.030984599761502 -0.4714035370916526
P 5.906177424351775 5.886205593066623 5.176120658645281 0.06775551027841879 -0.4632248579356022 2.622474059558703
P 1.0568358137937939 8.101472255157462 0.11013684731966096 0.43619099374626163 -1.9738983747260006 -0.6138583359561751
P 3.989703393045741 0.055061498614308584 10.951114637327244 0.2138381357035156 -0.6522171382400316 -0.22690396774853827
P 8.845120576874933 8.333886016266371 8.21540679744133 0.0456350242302956 0.8668602863433459 0.07503327488675464
P 1.01665208297873 2.762954662326669 8.280855864338486 -1.6406119283554648 -0.4402191410690483 0.5950746275907687
P 2.9274383435627795 4.020265927282382 5.832023113563894 0.4339556766578398 1.4384129195527742 1.9626796231920454
