# total energy = -340855.363393178 ev
CRYSTAL
PRIMVEC
9.41873728007936 0.00000000000000 0.00000000000000

0.00000000000000 9.41873728007936 0.00000000000000

0.00000000000000 0.00000000000000 13.78527406994656

PRIMCOORD
 96 1
Ni 5.119319184497212 7.392851666040241 3.1361494198182034 1.5243366160997878 -2.8660081796647545 -0.08117306923590537
Ni 3.185011945121243 6.001355675312924 10.670105072918451 0.1664791868035778 0.8443677616677845 -0.47438781653095713
Ni 4.793449711804632 8.511778818388155 5.128466662151383 0.3872834694122814 -1.2734514549453035 0.8429492840537031
Ni 5.139107951539443 2.5350908160326804 1.8397685475944427 0.16305884826811917 0.1882967968993015 0.7340723211446261
Ni 6.285867472573597 1.1723219740339716 0.17732656692245805 1.3815642859948465 -0.4504503318787533 -0.454262763646308
Ni 8.732346808200132 7.175928727558746 6.830230929127324 1.2094322717808654 0.10567182570821801 0.24946719776103488
Ni 1.9655020972740502 9.1804997471037 6.615429090283101 -0.9894877660692959 -0.2602180085196357 0.4635210490197823
Ni 0.5745231952238489 1.287032775465353 12.35192233806572 -0.40864882246193496 0.051183207742034435 0.5365313799392373
Ni 7.343770626032118 8.153885638916142 13.219126201400183 -0.01701196117696425 -0.08393006315575223 0.25139192558757345
Ni 6.578799620969804 7.037228402254654 9.284699237721599 -0.5480545500874884 0.5276412765384589 -0.394508783516127
Ni 6.621306382350855 6.137324566803476 5.40133219075536 -0.5052395118044911 -1.3398633067116343 -0.7473914068510354
Ni 6.754430815180409 5.076548698472095 12.194536179855831 -0.5246369424944965 1.410959194217196 -0.07657182301846813
Ni 0.48388668630076964 0.2569092457642606 9.864963153322526 -0.9358872071350204 -0.5131507962317678 -0.770908259026053
Ni 8.895498175504049 1.4834134479215728 7.507046320668236 0.4266259757656459 -0.9756824847550875 2.5497645477091186
Ni 4.770609273881067 6.783120288959864 12.331686181002306 0.4384129410982449 0.7471584649046229 0.00797993288168303
Ni 4.116496806699313 6.574297464546107 7.219512992485551 -0.2630451935557857 1.338600637949127 -0.16442847492213616
Ni 7.17760526279602 0.48510735465330324 9.502851321419188 -0.9417529218871781 -0.03596947611607353 -2.2352738938888472
Ni 9.217157472628863 2.815156969293385 3.362269755261498 -0.8911111884709105 -0.6259826300235348 -2.583794640710634
Ni 1.9104495778252921 4.1135769981400125 3.8677065124773677 1.243168487691046 -1.1222322796245898 0.36386406204707655
Ni 2.546091901185144 7.8533996632149075 9.27470501558523 0.9160352054060998 1.5884414169994967 0.1411527922236472
Ni 4.258747995961006 0.08811322920360584 7.098519893283028 0.7980292836125611 0.4076350364854399 0.7910196850639475
Ni 7.758854378317278 0.6223449500565571 2.0480639227200688 -0.740546358904744 3.268244927952758 -1.6108269837835485
Ni 6.383991877640691 2.888717307513197 8.641684868686376 0.6751259245174049 -1.1862933717705568 -1.0893283298077174
Ni 6.51329230313129 3.92398723526849 0.4335510704858761 -1.3787070190517094 -0.16131486899381894 0.45660760972940073
P 1.6361100168357328 6.884993351467609 7.6825748506424025 -0.14796981514548063 0.5881074522443162 -1.791230751088018
P 9.099479768951738 -0.1883154077164471 5.268207757925806 -1.7717772703490968 -0.4526290846976269 1.1101866613139655
P 6.615042922054289 8.220325411746176 1.6324385930408438 -0.18509011703654574 0.20014084072208113 -0.08301037955496027
P 3.429974464509318 8.448268272854712 3.443024125021936 -3.3381861330285867 0.6701804075866716 -0.4331277814399057
P 5.701406567637108 8.947527280283337 12.287875866380586 -0.1551308516702941 1.3117493220842376 -0.373238304173125
P 2.787202157022399 0.6188138654472604 8.613121605986581 -0.2518737503199985 -0.7501861959873531 1.7885179801425457
P 1.4146660844559638 4.1206127948942 12.895172499871997 -1.297385854273714 -1.4020693479267337 0.5214333479555343
P 4.234683122189992 6.084702081575039 5.099076434317696 0.6530265215152045 -0.13732210562364738 0.176412900977522
Ni 6.123987634803571 3.1800671080450074 10.970183217295112 0.18593652419724108 -0.3533364230428753 -0.48859393282801017
Ni 7.6299307023182035 0.7738443974614035 11.622475042559083 -0.27825609696826914 -0.07869658267095479 1.4405484778385385
Ni 8.600880073133279 6.86539295917114 4.245009825752629 -0.01679187474635818 -0.919142897797146 0.22135295602332203
Ni 0.4294689897452274 4.735929483186401 7.485279618795511 0.7814022165788413 -1.9560564614485731 -1.2805559272005689
Ni 7.198656140634854 5.919940110194863 2.679402825013002 -0.45821480631552053 0.049563155640108186 -0.4986708574480379
Ni 2.1916836545097174 1.455242004692961 10.787514342582863 1.2320664642406136 0.5568850038949248 -0.6512758573726849
Ni 1.7308060015299696 4.135193000216129 1.4226814298881096 0.09416536773051523 -1.2627906327973477 -0.9324277878315103
Ni 2.1633049990607685 7.085763155500069 0.22453045258906892 -0.19160760644008934 -1.0788809092221483 -1.6303753382291213
Ni 4.327401172053735 8.208712108669987 1.067505556123706 0.38283211850914717 -2.994197212638882 -0.35386941272820993
Ni 4.084209375275816 0.8081078799679376 0.9087225991739963 -1.1190986190916146 1.3693212069614353 -0.5106326577956045
Ni 8.687513618708929 4.531109622120071 0.34375942229753653 1.2823932375196234 0.2247424413208452 -0.30714835452258715
Ni 3.6298023948129705 9.186348782959593 11.9254061224603 2.1181118081528423 0.2608592416480604 -2.568651871531925
Ni 2.6558955404894418 2.073356057959718 13.571960577074774 -2.2048916820525637 0.32056668481102213 -1.590899391621686
Ni 1.533210311963589 7.9434239542142615 11.500888562907411 0.3967078480499749 -0.542793044578233 0.627746406792177
Ni 3.929176959514215 3.8885916205399296 -0.07062734342830743 1.619807590015604 -0.22727729192755697 0.5755512128458604
Ni 4.9639100192440875 0.6055532252193893 3.2528701797868584 0.7545984661224359 -0.10246103208040418 -1.232791001111464
Ni 4.096227684055391 5.700624812442198 1.3805947441901063 -0.23515592334468535 0.23926300353452337 0.3749285473913543
Ni 1.36295721674447 5.9565036483471445 5.826483631327737 1.8915048028194328 0.2406128326941985 -1.1566421245630274
Ni 9.254672303247238 6.7721003663328245 1.3924369225823943 -0.01910792447404451 0.5551063147279472 -0.8231551321459113
Ni 8.984505242876292 4.960217874227165 11.539653259963913 1.200149560927359 0.06325068042952978 -0.054954244748692455
Ni 5.784206687136515 4.856894326177058 7.527173220379109 0.5193373846584539 0.2608209322109573 -0.5832699216463567
Ni 8.670748266336167 8.048791368255879 11.228477959314448 -0.6656290407705633 -0.17866698711902132 -1.8062619343895279
Ni 6.5038829845805095 0.9614741211032793 6.854699866727996 0.8022870304476505 -0.40475771493764484 0.15842546326116586
Ni 3.4759755774242427 1.0403748833654258 4.8828401217845 -2.176273246984923 0.1359015711270369 1.184723713290592
P 2.9684469186566935 2.3182714836613525 2.204996097792673 -0.5964915625429534 0.4989644774290568 0.10165756234250234
P 9.210423075467894 4.918643567837632 2.5377177018623223 0.5329922564377273 -0.3841824618894545 0.6930619401705355
P 6.816180056840984 1.5956565401834804 3.810608243289641 0.5981915759531956 1.2842943111970786 0.5689033685120396
P 6.149352294320339 5.04459092285368 9.926720871846658 -0.1918922275600437 0.23506850583720162 0.021910684030162265
P 4.789032324016527 8.438406854914104 8.996173174628751 0.49251537936960343 -0.2927324362075733 -0.2721605255934926
P 3.045774751791732 5.541514083434865 12.80329365950062 0.48092561764947495 1.271164972903972 -0.5473654944402637
P 8.349484556177453 8.20372017790731 8.871829830572862 0.9588250468781163 -0.14211901279165848 -0.5149109734559841
P 0.804098323504407 3.528456781593358 9.560059789833184 0.1377010862296209 0.8460091539259494 -0.1893812882127319
Ni 6.183156142447215 6.534880048995542 0.4766408517050588 -0.2737180998885996 -2.157446344086407 0.392135398187944
Ni 4.80004282790628 2.8734401156319502 4.431110888332652 0.6698808740683818 0.6549538204449042 -0.1961124362889784
Ni 0.8435091459388704 6.058197754846415 9.416858249979127 -1.163030030367242 0.13675954825195805 2.3770013276690416
Ni 2.6025007188033835 5.009006933379358 8.245413160386674 0.3161569857791007 0.06673118277896249 1.2263493592511783
Ni 1.8246731373428562 8.536427653871028 1.7833324156380677 2.285009056330445 -0.2444041814158307 1.3352072959968617
Ni 3.476446514288646 3.798548492065999 6.6249683874084555 0.24997756173855012 -0.02469493164351876 -1.6206167161804605
Ni 7.11871931727102 8.724378556454427 3.6628442670932424 -0.5043023447022025 -1.2670350098959986 3.4737192650726105
Ni 8.107083933331733 4.938526522252745 8.740649425119566 -2.369145579070049 0.2950559421344273 1.5631237641703142
Ni 4.843463206804274 2.0201967047058615 12.401136182269605 -0.7826846828356907 -0.6650415436982094 0.11966042667782617
Ni 9.130994863917616 9.230663941899952 0.1994671926655197 1.112939284358438 -1.5019376795792971 -0.26821593912344777
Ni 7.814509696952474 2.9437321520128026 12.449866845250611 1.2077224881786104 -0.461912823992398 0.6452293940682887
Ni 0.9401774142212286 0.9976985847131891 4.102869777590937 1.838493283619408 -0.20730701945321714 -0.17268223029049615
Ni 9.33144443088228 8.767384510911747 2.7358389569693773 -0.18589152989191857 -1.2153926031293585 1.3796480428087403
Ni 7.128430035415017 3.948541883378483 4.28930143784977 -1.2229336487014097 -0.32074306248788637 -0.627312661688868
Ni 4.435980375510583 1.7350067583604478 10.057088440271995 0.09660971550594974 -1.3524928225501867 -0.6956574688118535
Ni 2.0711709109088865 6.058744041609123 2.6232407783117098 -0.4549101674223198 1.9232065047980877 0.551931002323759
Ni 2.958237007436428 3.829291250574253 11.276809267834441 -0.3904780650901791 -1.73017425009633 0.2831057117510866
Ni 6.577725884918964 7.947426917561691 6.620888190415265 -0.9366875915491288 1.2405076530294312 1.8198396730739623
Ni 1.0966706761362086 7.845676298638691 4.591006198156083 3.167525561153809 0.9524636234364628 -0.5175227000472183
Ni 4.346135040519702 3.930222439353191 9.349614116984693 -0.16529082292243147 0.7211126756601645 -0.2861113313466298
Ni 8.306855351211658 2.0943221671629577 5.561089987014385 -0.7976719002731424 0.35693956701310137 -2.0609834385709664
Ni 1.142747138949438 1.1731037292288813 1.4658983640606815 -0.06017795504147701 2.3952312204135073 0.4677415148590332
Ni -0.08787399327648891 4.345372122799368 4.935747994752765 -0.20253222377239313 1.5721331667577763 1.4074100434133567
Ni 1.8686303842662697 2.289949340636132 7.869861732246992 -1.0954272436166037 1.4188925901316596 -0.7224553057309879
P 8.18164265770408 2.457602864363744 9.863446736619146 -0.01646123087981681 -0.7354848852214365 0.7522039977483304
P 4.996310475515042 2.3813487672795444 6.7171919535645745 -0.11590970138614232 0.24045033897440524 -0.2408815129745529
P 7.8823340241638515 4.318189646986004 6.562203805868227 -1.4761112054344965 0.20674394786089553 0.05394354409599097
P 8.649942275666826 1.8855935301220805 0.4821056030795959 -0.7544976788785135 1.4840384307013732 -0.6346122806740748
P 2.2059624602384287 9.228883800552508 13.245084241366099 -2.90373680456378 0.5973153439958294 2.8764046924077302
P -0.32768823086290594 6.8154642328070905 12.884488826166141 0.7549615058888094 -1.0657379440822872 0.6313320672609062
P 5.616506069722462 4.455731467603663 2.454096268471396 0.3610494754164169 1.126071965085654 0.2832340097988348
P 1.1909710738643466 2.5984977554559547 5.546974125440757 0.8111974455634029 0.45526909342363536 0.8077174574346024
