# total energy = -340889.60313939454 ev
CRYSTAL
PRIMVEC
9.08820234675109 0.00000000000000 0.00000000000000

0.00000000000000 9.08820234675109 0.00000000000000

0.00000000000000 0.00000000000000 13.30150278404506

PRIMCOORD
 96 1
Ni 6.567661946684453 2.457331698781677 11.245702188145666 0.5897701846587197 -0.8724658054555814 0.2949307294104727
Ni 4.704017049497945 0.5501843046461361 5.895145897792289 0.7396654989616874 -0.5803766592589618 0.07841838930890364
Ni 2.9668435726099203 1.7219870911939488 4.768628713443765 -0.4810523730353264 -0.1325712212022233 -0.2779449934857536
Ni 3.614514294625683 4.75386583796713 4.8824893445207636 0.24219328980744095 -0.7552217015287316 -1.032614679165757
Ni 3.796460100487686 2.7814533381554254 2.6591170498083523 -0.1776812261669843 0.12384386863155444 -0.7695118928991587
Ni 5.118575387879325 4.719121641373202 2.3875397596439814 0.6880853128915505 0.8992073352154836 0.6737817517846848
Ni 5.399110010024594 2.976858771314212 0.5322196555728383 -0.2086509350756213 0.5429820206605875 -1.0154777623751543
Ni 5.662704223472223 7.956484637424099 12.190694350389002 1.236655626273193 0.8345672306375951 0.27679879569645227
Ni 1.992933660133203 6.581739571723427 0.20361389728738602 0.3429134279373385 0.6981136436618299 -0.6509398141895048
Ni 0.7486233796629016 8.943327061476323 0.17222142962462242 1.2501495469945696 1.7669302266694409 -0.3095081130040153
Ni 8.216816186321054 0.18385796358195045 6.562562556491188 -0.31555277653619845 -0.32654115722690213 0.46097385711789635
Ni 8.909909742387681 2.5646270126681308 1.0684899228176397 -0.11702453171687588 -0.40647598318033223 0.4630322823088219
Ni 6.986282711400514 1.0052732978927894 4.548621517224617 -0.31775878304858174 -0.5279652355367811 0.5691453093195166
Ni 0.918035646021193 7.535755409822924 2.03322802174411 -0.06385566100338035 0.311015036566845 2.046162314397734
Ni 8.066597293958765 4.226713763880238 3.6120632065217384 0.2017711772366525 -0.9878584579959889 -0.09250623486053745
Ni 7.763769312084251 4.146655791660539 12.613309379924061 0.20606800483979348 -0.30450886001721106 0.012528471484313906
Ni 8.582570879473716 7.4473362916794965 9.069829381661915 -1.4861007125470407 -0.9499627113914801 -0.3519914789792067
Ni 6.93842423918926 1.1379156074110672 0.44811652460243107 1.0622656692629706 -0.33696209544991 -1.6406664357424843
Ni 1.850921414259095 6.928436305091241 8.972701039454671 0.8138292267592953 -0.9812296398255617 0.07511400752601902
Ni 0.4587297270043115 5.0095078745851245 1.2985459440888165 -0.4150842936746335 -0.7807828378272876 0.26017918486190034
Ni 6.539861136488056 2.2828109540280295 6.884232198940781 1.2644057998032676 -0.7472373977716744 -0.6345459462125136
Ni 3.393307455730522 4.547318269044766 0.5997250030644358 0.4569485380085872 -0.41875505765800136 -0.869004072159226
Ni 6.573787394893793 5.975256581584116 4.457652249574452 -1.837883932170183 -0.8774887125914694 0.8187372055838739
Ni 5.307073787448945 3.4817356620760402 9.191377722887697 0.9361967679556393 -0.8605636547013568 -0.22275600701843576
P 0.40936715734699564 5.485965957408367 12.357880916055207 0.6740229212612134 0.8843206479116382 -0.5626681862356052
P 4.101332927832677 6.361277965399728 12.70640619568373 -0.4709273687861825 -0.21728289971900647 -1.0714846167580774
P 2.728460031762751 8.999819325674034 1.1834156911797042 -0.4531021676793035 -1.4794544108751166 -0.2390316042500077
P 6.575059743186534 8.12139915256755 5.639198497584036 -0.6532931449130298 -0.3859284980462837 0.40024465755863975
P 5.2725749723114745 1.0425712792742907 12.222870221072009 -1.0450480198331034 0.8529740152795569 1.6246600330118988
P 4.286550486447442 6.393722846864629 8.146319002701096 -0.37213144426219136 0.5985715850004336 -0.7618893433568944
P 4.88382712786856 1.1889276857479012 3.674420087528779 0.4128744305075083 -1.0251394538346343 -0.32447090496143477
P 0.44028158557977215 5.994041895306232 3.584954008504467 -0.7322440096866357 -1.1951019712011224 -1.9011340983790808
Ni 0.7373758207550687 0.27610866772694737 4.75298610000472 -0.10893944071589624 0.3957321144002669 -0.6119798879865396
Ni 2.056678309599541 6.648437886869342 4.696002164073883 1.2188749052510042 1.5905535782464928 0.8500753535755232
Ni 6.6257900872585465 5.784731512948201 8.996058627648775 -0.797917183514729 1.778967103229317 0.3183257112956453
Ni 8.758845647230928 2.5412975979005097 10.011242609921808 0.08083651183209303 -0.04127109083464505 0.8581041374172705
Ni 2.618083817367446 5.3984920122824045 6.855634353421004 -0.463236427899828 0.31527921115983765 1.3199691388908688
Ni 0.438812023301656 0.30399581584320884 9.632202782952511 1.5617101716522395 0.9477762452631227 -0.39232951647662107
Ni 2.2693149739228806 1.4773690437123481 11.344385521730679 -1.5397269825129287 -1.0851148059470022 -1.1929630704812488
Ni 4.0858920724800525 7.079518576652176 1.4697095069900454 0.7242923589397268 0.8146825758985261 0.4673975012560531
Ni 5.748296910765346 8.115664497048124 7.911081797417835 1.5177180823420053 -0.06356461212552278 -0.11899014008367896
Ni 5.237212777975358 3.06366018948544 4.680040554741445 0.8664273125709852 0.2532130379567123 0.11196100115103945
Ni 0.9788357180100439 7.654220124079228 6.707295810071344 -1.150581263080928 -0.1749615132429761 0.5470052828873676
Ni 5.52938938699921 4.912118700977872 7.091695858633919 -0.8602404670339829 0.0974466095849483 -0.3312802145737843
Ni 1.2155106768641029 7.803593813647053 11.324326950895612 -0.708092866361729 -1.1129066313482896 0.41582734248824516
Ni 4.735344082105653 0.5139042018988278 10.207426901999796 0.03408665727106388 -1.0242570512296811 -0.2849885305960963
Ni 8.32053074858365 7.538263753600042 4.438392531703186 0.5530612592734604 0.9655672506979563 -0.05251863872400633
Ni 7.6431234293261054 6.278411738733906 6.657814184966636 -0.753193101134477 0.8062172187399922 -0.03195418430909335
Ni 2.5299827862972037 5.666957502050813 2.535133070422179 -0.007263366430632651 -0.40283401555237075 0.8391036850553678
Ni 2.4654656396531305 5.501070549283625 11.37112210346222 -0.4745104581517505 -0.33876109633186174 0.7160090358850121
Ni 1.580411079020209 3.5615664292434643 3.5830654801099557 -0.8574988997331039 0.262288003674787 0.6586358972821819
Ni 1.63805754488348 1.1784489887369678 2.5825662147755732 -1.4740358109627065 1.7998863698804872 -0.8337786732980285
Ni 1.5079326673444113 3.5357831999112714 8.266963976639033 -0.7646316819887218 0.2161765540287051 -1.2470122869171685
Ni 4.099097230118288 3.042820942090756 6.8413885966433465 -1.8783178718155134 0.7546190349477261 -0.4485451444362404
Ni 4.551353430773174 6.995552677533343 5.87951691665638 0.17250765238584484 0.7577755782988369 1.0389102823664818
Ni 8.512664428989673 7.159322079213327 0.20106556542106707 -0.7013061824571987 -0.7097795100355324 -0.16208594283188857
P 0.32944732579907976 5.869160910373676 7.694333630468523 0.8950483187417875 -1.6201588027074356 1.5077805115133194
P 8.813111301916344 1.6470185121452148 7.999071043602359 -0.6967357894776969 1.0413397177435808 0.3972675772081868
P 2.265579722863476 3.4745559824241434 10.240068088629865 -0.7482049038912663 -1.423362452977555 1.7334840311958533
P 4.2954932773049945 6.539633931435781 3.86081456831433 -0.2663917414305154 -0.5230603420359959 -2.7465904651253537
P 7.167356049861779 4.276026348426053 10.29310138311174 1.484373959663921 -0.7899529343623298 -0.10207330972368228
P 6.496010561398937 7.816390002191194 10.002290730862166 0.48216771758669225 0.8064905270060369 0.34812196872147144
P 2.4635934700223823 8.748348773815813 5.815615950114077 2.3755285997782574 0.6444737468491869 -0.9492605431181329
P 7.113817451343644 4.124816842035845 1.398293506138687 0.005087698935552528 0.9514981741994001 0.3257384588199487
Ni 3.232337220294569 1.7874857636638513 0.1700129965165072 -0.03334515111934903 0.21641695217428533 0.42874533610149385
Ni 1.656306654682226 1.4715162415657381 6.957244088079322 -0.052107262218200584 -1.3696521079382926 0.08348500519853363
Ni 6.8616652843285975 1.046842734257065 9.12924713811272 0.6737316152730397 -0.46762247278266567 -0.2578045139821366
Ni 3.069712932078052 1.6864885738264674 8.988144621267924 -0.5017474394908327 0.3777801579075365 -0.07775093092823383
Ni 6.560627678266012 2.374492736722129 2.595442379498115 0.36539463975899006 -0.04979789735873359 -0.02508316822087293
Ni 4.364472731175755 6.90916022845621 10.43436385231334 -0.24621912313738242 0.8152430763876863 -0.8034715376740549
Ni 7.57200824796396 6.394131815958724 11.465523076221949 0.33213047838922155 -0.9561642122165016 -1.4546183256680432
Ni 7.891867520557025 4.03940591878454 7.921177881120737 1.0014115140900752 -0.18386138683576722 0.27558883454875116
Ni 3.352565045756528 8.601201693760284 12.22934829152248 0.2583948392679679 -0.31191055179792093 0.8119230108755179
Ni 0.37766659963334676 4.793554016498567 9.96644322653439 -0.46176241445746274 1.6676218812854051 0.6707956725731673
Ni 8.82585296124794 2.7233797267938775 5.861639514323156 -0.29749900435828125 -0.5218274980701593 0.01724670289558965
Ni 4.170684997989167 2.868182050709925 11.413021441562398 -0.39234288621305974 0.5868951771037699 -0.08614943940457422
Ni 1.2672770759744907 3.3177572317479633 12.386039801413986 -0.5096965191345803 0.8218824360810748 0.24482712788586222
Ni 3.4807995772606666 8.512964339658676 7.759737785636679 -1.2249398804981613 0.21386050430101877 0.5679487179082541
Ni 5.968285930580312 8.023073894144922 3.2108099960015957 -0.361989470732183 0.5314822475511041 0.3355865552586221
Ni 2.939887965207987 8.62834815340613 3.3777838977388694 1.946213764326539 -1.3764742730664488 0.8262553683377899
Ni 3.528349050600826 4.913236549835066 9.446660775523098 0.5996853868899027 0.02524540483035007 -1.399000479193423
Ni 5.485411577080816 4.9246422434592825 11.418900599495071 -0.9325743407117035 -0.1496736852104648 0.13537783741308299
Ni 8.259539824350888 0.2604442426028841 2.415778621181165 0.015382910213973507 -0.3147027698310773 -0.031111376692823833
Ni 4.876302096537204 0.47591642597861883 1.4835562916959069 -0.05555048357179465 -0.17222765925158082 0.4203100608499471
Ni 6.11616006680312 6.02852253403952 0.18684616442947424 0.41652719676874717 -0.7590796418222411 1.3514219580835114
Ni 8.056800212104656 8.75317460912614 11.38387830391716 -0.7133952524112488 0.8805740363850125 0.28617560892566196
Ni 0.4582226053276332 4.993985225413682 5.523195777274187 -0.05650821949937365 -0.019961016502959172 0.7707228824881243
Ni 7.512734993926398 6.252928420070717 2.2712843873160025 0.25074220781871653 0.057140196656417716 -0.025087796206563245
P 8.811239132285595 2.020870793360965 3.7310050513878195 -0.1972144111039055 -0.20150455383882715 -1.060459212181851
P 1.9752207542578264 3.141546081405388 1.4523510409962181 -0.7074745160514396 0.4336327461007822 -0.5384838756799178
P 4.993330874863129 1.6006777696831593 7.999230995959159 -0.5590354745790244 -2.8406786997610305 2.033177729212608
P 9.01849558097106 1.421676541298644 12.281223749057961 -0.31284926156210635 1.564768498862589 -0.6586567232177882
P 6.74884434357081 8.148881875690762 1.0769265008187232 -0.2561093856679009 -0.7874551076411406 0.6623015190592271
P 2.0294682325390596 3.3132313071066406 5.952475185402584 0.18722618954294207 1.3796511281325337 -0.39763138830550876
P 6.901935107793858 4.03272609024765 5.766400609330636 1.7616432672388886 1.276795431716872 -1.6161499386583587
P 2.6189199319598186 8.66483728480153 9.955322902455832 0.37255490495285515 1.3809549345456216 0.23564186184216834
