# total energy = -340867.6182026259 ev
CRYSTAL
PRIMVEC
9.23742745106365 0.00000000000000 0.00000000000000
0.00000000000000 9.23742745106365 0.00000000000000
0.00000000000000 0.00000000000000 13.51990880810619
PRIMCOORD
 96 1
Ni 3.0702991754448687 -0.026551137627208905 3.190008844838643 -0.20332669464923045 0.9878700279602148 -0.8543277010939737
Ni 5.564395340844714 5.316758386626221 7.131075963315336 0.8664923614809658 0.8522379084444807 -1.964196059836572
Ni 6.166084413135665 7.314804699685977 8.782451786552263 0.043501779937376694 0.10331026745457692 -0.48758246084436024
Ni 1.987349372109853 4.629041152792565 3.074021858694274 -0.32065718764229934 -1.2894714845226438 -0.6804918168150087
Ni 4.340639431378973 9.416264012688886 0.37536101564001956 0.37704173707961514 -0.35211154949683876 0.5003281905458028
Ni 6.911821928581017 1.4659243066528511 10.59877019002009 -0.08945716362156851 0.14301272825052144 -3.798213567072813
Ni 1.1523044083884495 7.223880701611797 7.029189910124359 0.7506199410906621 -0.9426895747688346 0.7678283345491487
Ni 8.188499059723785 7.840118722085906 6.562982490800469 -1.1011854862566197 1.248457246893811 -1.2240320239719114
Ni 3.9272553170014812 7.169472254120491 7.807396059200813 0.5477984682126243 1.6018597472879317 -1.3650374919844168
Ni 4.003307056932877 2.9398667003044205 3.8527138964529084 -1.3108913449593165 -1.78806340910363 -2.7277113688326633
Ni 2.4909739149326025 1.403682520711184 12.59291646122402 1.8298106682437454 -0.21077209518368217 1.2733797211671036
Ni 6.200281369436651 3.6418649969261168 2.233975751768831 -0.5825263586121129 -0.5854322194049982 -0.08086273708433815
Ni 7.629745550071136 8.521148058469018 0.8306239309592068 -0.867154677655313 -1.4197598232279611 0.598138354117757
Ni 0.9323797364235921 3.2752130278556733 5.523491088495605 -1.3541869224231582 1.9865363752049854 -0.556029854983481
Ni 1.7317682303119837 4.291108345564306 13.03233995974977 0.08039248231613896 -1.181265322428346 -0.0733826266572091
Ni 1.741042607439534 2.4388009248764235 7.507591657382591 1.1440552890369522 -0.6058133541645114 1.6648777428813648
Ni 5.917015657667401 6.328524574279063 12.26025914879411 0.5308656970130278 1.5757617646492992 -0.22806662059807176
Ni 7.198293027664272 6.129587337407626 2.4740213881353115 -1.3312652806299783 0.5405885807277464 -0.5102773313387148
Ni 3.269134800614709 5.626480090520277 5.517393462657064 2.4563378579168407 2.085619749062408 -0.3996419909776343
Ni 4.099080704401444 1.3042046648480476 7.619334045628444 -2.2014312343077895 -1.710827727248918 0.09677735143206559
Ni 4.75548305928849 9.146715880635185 11.506185778846866 0.663185207215761 -1.0543615839245455 2.060883936878625
Ni 5.160516539280219 2.1574196483004187 12.188765155550696 -0.510833975173133 -0.15911323335680985 1.8848106786287089
Ni 1.1151052881766517 8.323725759694113 4.505752904017105 -0.767011237964492 0.3930589384434779 1.0947343313146372
Ni 5.281499126172178 2.97649310001631 6.935862333436046 2.5073811976469007 1.1475013386040238 -0.6427107414114932
P 1.5735403360711384 5.139455204767456 6.677672542135368 0.03423860946789587 -1.558989944507599 0.8872707316788977
P 8.305093868592252 6.45826424236317 8.126574117542553 0.21535868611310008 -0.07720354306519606 0.7955085740732364
P 3.5072572045927872 3.44719545152174 8.35396540208928 0.40370587663436275 -1.0684342599675276 -0.5294209941467012
P 6.046044043840331 1.8163461157500815 0.7105235183856562 -0.35633998575588954 0.012306842391811065 0.06056953405294085
P 5.374141285746084 7.543772813092938 0.6891933747350324 2.3976318594352 -0.23148284536847233 -1.9334114703555474
P 2.011108035428637 8.273797464500477 0.9749762854756563 -0.1375841010357824 0.8743411681014233 0.1239081462105866
P 6.0610179136847115 4.994242845758403 10.564591708573941 0.9449421182484371 1.0541085873734748 2.042026180742173
P 3.218984807163045 3.3255570072831127 11.868546962881705 0.9543857801598402 -0.5956721519654515 -1.3437559568978212
Ni 8.785791116563825 3.251380465117546 10.03001439395936 0.7773879532131257 0.635736366976189 0.9331124726033607
Ni 2.9098820109059864 8.076236604314305 12.37953188787102 -1.746116118137567 1.878136609042643 0.9655914190676724
Ni 5.000912268354111 7.938469611804061 2.6167645827955663 -0.7786791612207234 -0.6224309081165346 1.1516639546221457
Ni 9.398620526320737 4.123707685897508 7.949814096415959 -0.7081242338202965 0.48351626119478663 -0.25299577973958365
Ni 0.7274095357055386 7.710046506614756 9.61821172715581 -1.7953164911216177 -1.0092310101344941 0.3885620790143889
Ni 4.975731041212973 3.281014132274101 10.199297641333924 -1.3676121946901287 -2.8396893392645675 0.9400341394238584
Ni 6.844240909591815 4.826528113559395 0.4511199291222686 0.8259393797592679 0.02967181603281986 -1.3984104110179076
Ni 7.993884938883917 1.5560169362594227 1.8489154373400385 -1.7513930502657902 0.3819779980389679 -0.9798646411572352
Ni 0.3731892964540763 0.45423294216209376 0.30125375418008726 0.8273043784275946 -0.569719950876064 -0.03466001327603063
Ni 8.864743408704436 7.999630618737838 12.016386446248402 0.25652590438002915 0.04246793935622364 0.0877743766025069
Ni 1.1954062447202716 6.404594789065294 13.51966506189367 0.18064416545005016 1.2729212934734464 -0.7178322051366798
Ni 0.441812297256014 1.7162955393870367 11.872035015474696 -2.812340772048285 2.0643094176204064 -0.7220647551607887
Ni 0.8747169432529676 6.842421136390494 2.4164805290066034 -0.027653242940894312 0.4815897335960351 0.4317866940309789
Ni 1.1169712485150631 5.987506466293232 4.813236379247809 -1.9751708136805208 0.21617321159459543 -0.8445875909880745
Ni 3.424480617501176 2.0405661914642526 1.3488214392764022 1.422088471361138 0.9373493935028437 1.1103586681154556
Ni 3.2125832699624555 3.447786646876484 5.918515815880064 0.7838972150865532 0.38215797526025796 1.9446592753552248
Ni 3.303886002560769 1.5711016552328185 10.179301382202441 -1.3009974828843722 1.621990713709852 0.4145777863518602
Ni 8.101177658342579 9.249158950699462 8.733698492126182 -1.1598955985033186 -0.6471790615954919 0.3746102448199871
Ni 5.087799510646677 0.3936871478943493 9.475225588154466 1.5739686773046182 -0.9608245938066485 -2.466880666429694
Ni 1.9754330907407895 3.8639050397696684 9.871331094546814 -0.004052829913134956 -0.8123025057021237 0.8020710577821026
Ni 4.516630898544399 5.134854965913353 9.122774316253526 -0.047391344799769995 2.041961131832193 -0.4458454861168902
Ni 3.5650188382367833 6.507398118798867 0.7512402509581823 -1.1976093110040082 0.7051810920315726 -0.2098904639096772
Ni 5.322069907391501 1.0992169130179004 2.6660850552651048 0.3623003171043825 -0.2760446911392472 -0.46709102575922784
Ni 2.2901430054405005 1.4465257090753056 5.377462140902811 0.17304809827034714 -2.548102329515347 -0.6843618412933762
P 8.267534488711156 6.812704332387178 4.183654894868574 1.630153194915986 -0.2939809639026937 1.1177660163231202
P 1.4925558098985954 -0.006292535557059007 6.966038237582031 0.619632776546107 1.8125392827578073 -0.16606498208429465
P 8.199242187810778 0.7371947425692976 4.295518293413602 0.9710506424100309 1.074669442243962 0.650264385389035
P 6.898926479905658 8.522792320549401 11.188981758744326 0.07595964335576597 -0.7217629076496538 -1.0349042465308822
P 4.027481404485465 7.552816254535042 10.016251550849464 0.1813663883280554 0.03565014510344183 -0.470792385870215
P 4.545959730596164 1.3901681643988273 5.441100625870062 0.6337753865950763 -0.47201803074719995 -0.6710715519423733
P 5.150253757418956 4.378596020639036 4.6622460093888725 1.8361183556293281 2.1962093237872176 1.6295361301572775
P 3.4718039581629685 4.3680838282374905 1.2951501384930428 -1.9217103798685355 -1.811218764174171 1.9787839849530762
Ni 7.276709549014646 3.3922881829498683 11.75186994090922 -0.26477940263807304 0.7274193346044827 1.6438492043458401
Ni 6.815530985177048 3.8036031135857558 9.00089292767381 1.351301887565879 -0.22462751300953573 -2.4638405940517893
Ni 2.497855798358922 6.098078472485241 9.009518837396625 -2.885219205375567 -0.34353563490236966 0.8329937155028879
Ni 7.078169521522177 8.539835374135386 3.3600357051203447 0.3258878399136194 0.03359249124346473 -0.5458706550622922
Ni 4.195759619756962 5.563942706901239 2.9308186401486087 1.4755198517074009 -0.12161780751451312 0.8910273705078525
Ni 7.783567191433653 6.201001888775246 10.182817147077687 0.5122444823674145 1.1283414778461212 -1.0625819149518088
Ni 6.081811362802357 6.729419686787583 4.633164740391907 -0.5010709822490983 -1.0661848018117188 0.1645027798034973
Ni 0.7098611948397944 1.4526593608807772 9.389211282752887 -0.23506464918245967 -0.3033438931748324 -0.6344747266549461
Ni 1.312721572927332 2.570933086661761 1.242954054868319 -0.12812141296098578 0.5844048065817484 0.8845060244495669
Ni 3.2922560814416593 6.126538986359726 11.551396519858189 -0.3391876423463191 -2.208249028560571 -1.0039170541207485
Ni 2.4799351891682373 8.94184821536147 9.005882062222206 1.4287944226264038 -0.08760956888986848 -1.4682446582022262
Ni 6.803051220735494 0.5458672984047093 6.0296762461985915 -1.0779707387030533 0.3871644273359139 -0.037084049336490975
Ni 7.393599955560483 4.556869132376678 4.300304204558805 -0.23760207089233273 0.7992731833219913 -1.6839429870429323
Ni 9.010232890536026 1.2870138124233754 6.901967441011624 -0.3305849882789726 -0.1805508344052955 -0.31142821284486366
Ni 8.997688464102547 4.58190256067913 1.8109108134574017 0.175813062609994 -0.6500571544742353 0.10903997084950254
Ni 7.508966186582371 0.8139900954078325 12.531900481900704 0.13981761835199147 0.6331480374237226 3.161551602958562
Ni 4.510063087650288 4.675902622083464 13.161603900321856 1.1695390351303536 -1.3030718489148978 -2.119288859180079
Ni 6.376226649464988 2.4965256088107477 4.238180657688088 -0.06918272964324858 -1.7501717762641793 1.5461922785222983
Ni 8.408516105962821 5.501479222701542 12.1330902567604 1.7550753842133835 -0.3082930096499916 2.0475260275144804
Ni 7.774606886838311 3.2022835383915207 6.103900822986731 -0.6374649196315215 -1.1705870167788937 1.2468449081013688
Ni 0.6997896277260811 0.5233104243929911 2.630946805110236 0.32810207395611884 -0.41755332404041634 0.6906191350569977
Ni 8.827045467412074 2.7278677410641037 3.6987767872476676 0.5724167809819367 0.2989817595513948 -0.22293264180561606
Ni 3.418679513082748 8.45364093889916 5.513473098460916 1.0241593493095524 0.06287092849260785 1.5678800479083772
Ni 8.121546185799 5.431062313495053 6.228851808697409 0.8408448361161907 0.9390288380877957 0.5467409734823874
P 6.653580407686798 1.647255006865811 8.220577873917854 0.08983485867596142 0.04195423294459871 0.039807361804924994
P 1.5637209507259333 0.2622819716467986 10.935699812630768 0.22613289391046862 -2.143488339244418 0.26788143860216446
P 8.490285813465885 6.469182881571103 0.7997238125036606 -0.6635040240077605 0.32732071570540405 -1.321089882758873
P 1.048272500808299 5.68652336873649 10.649416233324095 -0.837166615933655 0.43778996280226534 1.2450448787781525
P 3.064664344719963 7.140845466552485 3.875441662871857 -1.0399459227198478 -0.12551277169354513 -0.6748130212626765
P 5.5720254558918825 7.486251352561807 6.504333140381615 0.2870186736522476 1.0074548920706776 0.6076753470739147
P 1.8588567567271594 2.315499743702578 3.390117387506667 -0.4260248518465373 -0.03685907780987845 -0.12508931100288134
P 8.85606022693163 2.99434904721507 13.729872883957663 -2.1806050415910576 0.5477573305620438 -1.624808899884937
