# total energy = -340889.4325500046 ev
CRYSTAL
PRIMVEC
9.11843052311301 0.00000000000000 0.00000000000000

0.00000000000000 9.11843052311301 0.00000000000000

0.00000000000000 0.00000000000000 13.34574477566145

PRIMCOORD
 96 1
Ni 6.201836526393814 2.1758033598551867 11.236235864736784 1.520456564319091 0.39141497508215173 -0.29855289954409225
Ni 4.6932378286064 0.298368716429332 5.9114437009309935 0.0604908582962055 -0.20441812794119635 0.3307127721060885
Ni 2.8969982476148775 1.5324069192502734 4.5512720757234355 -0.3793845262801789 0.2903963318752289 1.181347083508875
Ni 3.74110957555816 4.422648410027166 4.857623977863505 -0.09485725159121729 -0.2887737086701414 -0.09403475568992192
Ni 3.5505526195524704 2.653472330108707 2.571978183161168 -0.25401882168745926 -0.4082909249018839 -0.8556626178553135
Ni 4.989860365636982 4.458702683356981 2.668080967261387 1.0207747491080357 1.1370989123237771 0.12599202532280881
Ni 5.436289593748886 4.598661469735168 11.30555417173053 -0.20872832528077603 1.27779507662598 -0.1787106958727632
Ni 6.063464346884466 7.963927585984183 12.404376083762267 -1.1441974710417715 0.0049316329736624745 -0.8540844747349162
Ni 1.959815101796675 6.928511590752193 0.044084874878012666 -0.2744120406318306 -0.6361996797658527 1.4439073670084421
Ni 2.8410293225520524 1.4294507229510942 0.200816101914485 0.41336036900499135 0.7647921188259861 1.0637057441436069
Ni 7.9998906750111916 8.837719404491084 7.050636551187422 -0.4371937239791632 -0.03192178840926115 -1.0353768152919267
Ni 8.819737859977579 2.9306361369203127 1.0505927105911552 -0.4810881113692683 -1.9885356650232011 0.3030047646678588
Ni 7.326047795699081 0.591656643506268 4.7558896512219375 -1.270497257412986 0.4959722275699522 -0.5344950662354988
Ni 0.9469033924974095 7.411432776847387 2.4366397054062037 0.10978636209722384 -0.16055305112712995 -0.093690999197258
Ni 7.774565144345261 4.076576625584447 3.537676484153119 0.3515271377482785 0.266826772085405 0.04207918855823721
Ni 7.552139274508589 3.9429551482513343 12.46611332782065 0.8716137418679312 -0.0050704725443719125 0.1033838010049897
Ni 8.484042849194276 7.433344364811866 9.062121238169581 -1.3423871015747526 -1.1527173355873246 0.2944332209487639
Ni 7.040823296519353 0.8253957497921831 0.22227359205098562 -0.10568622388592122 0.4791019341771749 -0.2701221550072251
Ni 2.0829230290161607 6.420469129233722 9.318558852953197 -1.0813825925980796 1.3305024343220246 -1.0589648870245116
Ni 0.2784540646963228 5.139794714742234 1.411191978157057 0.30335777713190337 0.7347678045497539 -0.054735700979983155
Ni 6.540194118819076 2.165298928171841 6.679638625729432 0.14587693717219394 -0.3234247230851075 0.6020438598197503
Ni 3.6848853344474755 4.556105755615226 0.689261233073715 0.7848768053910032 0.9421748399159451 -1.9194570650579843
Ni 6.090965532611002 5.677380890370115 4.644879145455832 -0.13791165957853024 1.1224238268101057 -0.5280464823966777
Ni 5.509802378671743 3.2561367426498142 8.684596340316679 1.2857428707181469 0.49762364713044627 1.3707350565898264
P 0.26459405066968633 5.7362312394016355 12.54140967770641 0.6431033488642215 -0.2427566185100787 -0.8169263776273801
P 4.253802436519779 6.148220156343403 12.539701795714839 0.05946447391422016 0.15753046225072223 -0.15280117509585298
P 2.5230787770949554 8.732930403705488 1.3399259744553595 -0.2958352435026131 -1.0217101164381115 -1.8193244240004407
P 6.339214797002566 7.739887753987828 5.692147276366651 0.15928446882735148 0.502315910399793 0.02101748279193154
P 4.9301893578802 0.9896141199321233 12.517093559676916 -0.4193073306170456 0.03553213146833881 0.7922281035497517
P 4.03717588834162 6.312361019825958 8.00695289926358 1.3577409583230038 1.4362837890249134 0.8930418298347201
P 4.957389635407473 1.0434310954487078 3.8069802040627776 0.024663307074634946 1.4049222439944966 -0.4818386163820476
P 0.05437867082187444 5.768501364164968 3.6038051642346804 1.2287847081655483 -0.21730629675777413 0.24582445880212503
Ni 0.6461556776078475 -0.07948353307064777 4.463924808378728 1.1080791280526594 1.2621038911429683 0.3456529383556886
Ni 1.510203541516813 6.646797687230527 5.120801936310602 1.180510960760825 1.4510465491563846 -1.2700138900186644
Ni 6.2049003189681216 5.815506872261883 8.82696877519016 0.29728097481020416 -0.35719256356417195 1.647392441612408
Ni 8.69498861530757 2.441377641780046 10.08802123956065 -0.167351304995886 -0.08739462466558498 -0.8122837366490462
Ni 2.6009228164011367 5.3501477828872845 6.878703989030026 -1.5656167057954973 -0.903054991096348 -0.13243161030056547
Ni 0.3840774018526013 0.2677937078551776 9.41176562359627 1.1729313486413542 1.056856068211625 -0.5714523601861384
Ni 1.9344567471860987 1.262692869977984 11.510010351013062 -1.0705186533003823 0.13661119559955182 -1.2566492957863002
Ni 4.244146018852537 7.0894336483456675 1.5101378888187922 -0.8459034815860206 -0.3910113118858298 -0.9688109544462348
Ni 5.861117260525854 8.048920474630417 7.864419980017157 -1.3238638459595846 0.2096966027313163 -0.7221969098632788
Ni 5.883822151924752 3.062078309416342 4.4271975948941975 -1.2831203454936355 -0.8690408389344324 0.8950385485497747
Ni 1.0091002054419405 7.9744593729583695 7.335301178747918 0.9138189144810714 -0.35463097348458283 -0.7003296774765423
Ni 5.265355499707223 4.801883925400725 6.840214182972239 -0.4975346869610657 -0.8784603324761194 -0.21092687559399154
Ni 0.7930262341387905 7.773717130329158 11.36926646778771 0.24565296622126723 -0.13532975778396694 0.26942975692589083
Ni 4.744620183238043 0.4202046226246629 10.40117913806222 -0.699875106437627 -0.3923894231802791 -0.8377132324657443
Ni 8.223647835668844 7.466535451033548 4.59849004324589 -0.8468277931725028 -1.164197311202466 0.3963831177207044
Ni 7.482510940885302 6.183818508159185 6.796653617835366 0.1301677539670532 0.6858065441597028 0.4105547812353961
Ni 2.622332890700178 5.089552163895677 2.7369314987817317 -1.6921651178424084 0.5535106881060532 0.14733321000274627
Ni 2.56432143725448 5.465377386344262 11.349875213952812 -0.15467885173454007 -0.6935900447598635 1.4557038454227382
Ni 0.9018091073873253 3.2901667244573183 3.4025778211145363 1.9811087764315107 1.1390308392391675 -0.3306983739283853
Ni 1.4421982884834876 1.1005033505754958 2.4234535433773097 0.5273417430201692 0.5791558994779832 -0.3448229862552255
Ni 1.369642938740102 3.6822227528055165 8.196956366551232 0.5499283700714336 -0.011208981341941985 0.7395158607577006
Ni 3.482319405762128 2.832348576924843 7.097426864329713 1.7217695709724024 1.3113592857346705 -0.6809255619183177
Ni 4.2014626467086655 6.744620207281683 5.802489401193182 -0.08603733930674215 2.0544415236873905 -0.5532597484375117
Ni 0.45347868656189916 0.2122478779573759 0.33524000111229724 0.452359375976008 0.4350005729825863 -1.2848823224900645
P 0.3691523551691812 5.853567200253449 8.029560223458475 0.28860632985434165 -0.6329089248297229 -0.27423977672002453
P 8.546476741326105 1.6538188184375526 7.697571854584268 0.6236087304747195 0.9274868988864672 0.5400064829720314
P 2.245322272315105 3.4103385171264247 10.2841905894041 -0.6617510458723959 -0.4525771484137689 0.6627977419693554
P 4.098533805700328 6.41922902271555 3.5738301483729953 0.07224414217739171 -1.2197575649662735 0.8305367693219632
P 7.196009861466277 4.066409575821486 10.18815436984493 -0.12451338389475332 0.7585633643074549 -0.863093620212062
P 6.407192694745049 8.011452844607097 9.93716136978191 0.4814357245166741 -1.9760866406265711 1.425420106837532
P 2.4927599964116887 8.689964360222916 5.705212163272812 -0.37482338927205766 0.10881062844751584 0.8799220046233104
P 6.830634360119355 4.178438610249944 1.5881706796317834 1.0911944364821786 -0.04694551551160302 -0.9593377248484768
Ni 5.447660276308896 2.914040593809472 0.5223027746344298 -0.34731258544629867 -0.4563728680107753 -0.7971923895335625
Ni 1.55188388632981 1.68373638818847 6.856817020827305 -1.3937790828934835 -2.1870194297578336 -0.2891398337603085
Ni 6.94370289559981 0.7782470823398613 9.20151741739945 -0.39298103401769097 1.7635445980266597 -1.8391643415445034
Ni 2.74833136031864 1.537257924159596 9.091601123267026 -0.2008008429035832 0.611048891531838 0.4879403584044112
Ni 6.611609664777376 1.9533410162973908 2.4359986797574718 0.6083518043156491 -0.37763360502734317 0.16277654114100998
Ni 4.400745940492968 6.983988120579863 10.191997788208237 0.21198308477264782 0.2355187060007428 0.21692500215895544
Ni 8.2139458258502 7.290750352082562 0.28003611235002107 0.16459971039267782 0.22758119632122095 0.03380614991616759
Ni 8.17505572070309 3.968204081698542 7.939916935369091 -1.6608544806545846 -0.2752409642910292 0.4887798235865712
Ni 3.4608272655905603 8.159308191608353 12.157826494775023 0.14822692546160923 1.4040226149983628 0.13175155351440535
Ni 0.30427290003607355 4.7285261537926395 10.35649791784385 -0.20074453574435105 1.0525142463031616 -0.44298719073248866
Ni 8.830661739453836 2.5410512031781796 5.355379938182339 -0.639831362981169 -0.3227176697157539 0.7432545018645264
Ni 3.9986414019754584 2.895493706618565 11.829374253163664 -1.841860657429744 0.12760564966683186 -0.30058587081372107
Ni 1.194313761303151 3.522030169634497 12.366500859905399 0.030519508745095823 0.14457081676626068 0.25994521447422325
Ni 3.259246127375526 8.45293988350687 8.186720016718139 0.8791501594542924 -0.06692761506048474 -0.6385049308602617
Ni 5.632372318504669 8.095105324002072 3.40716895076086 0.19168139710081827 0.034500861990347034 0.8341813080530859
Ni 3.023571178341023 8.468468570274872 3.390193169107315 0.8297800936615967 -0.6663268381685363 1.1715925752252727
Ni 3.7301765776516222 4.679851972954359 9.308056244955909 0.5801118356333493 -1.2989040906904534 0.019792352135578815
Ni 7.80156481640636 6.57555539144756 11.283933461692005 -1.1421544724698138 -0.9791971827765652 -0.37348744406945356
Ni 8.150609209120583 8.773133562813015 2.2324625500902595 -0.756518051742652 0.7617031954880172 0.8324072468717987
Ni 4.745194644345725 0.4683371687042702 1.4539656227607074 -0.3502184462391839 0.633213086333703 0.3036418840312255
Ni 6.166593793358978 5.78135835086073 0.2321023480505326 -0.2896661385774237 -0.0905434547072118 0.19685934175733194
Ni 7.845871269140194 0.08765364660213873 11.232432567466713 0.6570772945458103 -0.2954598624410653 1.1297291022222673
Ni 0.2717775500448075 4.966918395050786 5.987781375554807 -0.5025712209437087 -1.2747557755790238 -0.646101769370913
Ni 7.3115130178316745 6.3717858299651615 2.533235796584607 -0.46548974271037896 -0.6055462165460539 -0.7233755035524122
P 8.674289778570424 1.6373053411992375 3.2030720376313857 -1.4476082128987973 -0.3965844350982331 0.7575338946016761
P 1.9406481613466815 3.5328172726565437 1.115017156053257 -0.8486748736835708 -1.30649527277415 1.3350417169532751
P 4.765738467768102 1.4010285757662089 8.121606217926818 0.13151321225135415 -2.1072920918295193 -0.36054811029996614
P 8.78578082561232 1.8696794184721346 12.118336396915446 -0.07843484436913588 -0.7917701900767268 2.24811192619378
P 6.20232892162897 8.017051560799436 1.238405930925388 2.5809425159738195 -0.6402795062621812 0.15465982557114655
P 1.8771382944417323 3.461538503152454 5.547545385289542 0.07959878277025001 -0.22356076230791824 0.03456333979716628
P 7.133275061135186 4.2110278800731 5.863132433617885 0.7048561045919861 -1.025792256927285 0.10597984386694005
P 2.359776809198224 8.672210776466429 10.222773402248567 0.9036322037560567 -0.3018356840604221 -0.8764353316262906
