# total energy = -340895.7970820746 ev
CRYSTAL
PRIMVEC
9.04165599723742 0.00000000000000 0.00000000000000

0.00000000000000 9.04165599723742 0.00000000000000

0.00000000000000 0.00000000000000 13.23337749655814

PRIMCOORD
 96 1
Ni 6.289882380555541 2.0719588082054434 11.439448261204316 0.6201295136768675 0.02510193727395032 -0.49067935460212914
Ni 4.647664449544321 0.4653134651541048 6.130772739865907 -0.509388243865542 -0.8581907835938059 0.007373923866567945
Ni 2.7274969655059453 1.5643150212528538 4.970959716710304 0.12247886996322778 0.14940320515789754 -1.0907696902399344
Ni 3.4005036025712063 4.178330159881215 4.617535842778207 -0.49080276755387087 0.4527301290518655 1.2736877393258257
Ni 5.24118588701745 4.352698499562054 2.952353009202539 -0.2529626125088031 0.8691537103632128 -0.3949170746981392
Ni 7.3490310286526705 5.967357462497195 2.558620527796698 -0.17167590051316883 0.021577726170775743 -0.3142327721731943
Ni 5.122685940952784 4.349714753018383 11.334864328186203 -0.1918696018522244 1.2629078751015024 0.3683712058888108
Ni 5.408800109522162 7.963294025432403 12.21292578188552 -0.0012097040373850133 -0.20390647841210047 1.1751340127196277
Ni 1.997292811364149 6.213643135536675 0.40785374004797414 -0.021941794378413825 0.5936931738622098 0.039085653147552045
Ni 2.784188149835676 1.494178894164222 0.320288916481832 -0.11260711937547059 0.4052737353421149 0.9366289703970514
Ni 0.5934048001082406 0.07668771116603591 4.832049135955698 0.19033233927209156 -0.44290028744563725 0.11746059081302995
Ni 8.52826191264823 2.106995225953084 1.5574894749928037 0.4161872969308252 0.9790997379667524 -1.1873356969921423
Ni 6.868684001746565 0.778962189327842 4.901656326157042 -0.7670266645834596 -0.4786046828257823 -0.7761378828561084
Ni 0.7461907064565326 7.296480922859305 2.6239537271156403 0.6700505668770267 0.6962310819271363 -0.8999082179372502
Ni 7.496183983192761 3.9049737682000747 3.898208801036517 0.6411552239989151 -0.504795482288537 0.3732894691260345
Ni 7.6076495207393195 3.940805851692694 12.78556008938734 0.6950270343167062 -0.5204753549176392 -0.07522482207227045
Ni 7.895427354048199 8.947514468658643 6.897408439305915 -0.04730161329944112 -0.023042740752076442 0.3957200302154088
Ni 7.009263672234389 0.5088662188698753 0.2241761111508848 -1.019827811813734 -0.02006746017383641 1.0154183698921286
Ni 1.7455911862650986 6.643528679229985 9.300735809492018 0.5369386426799849 -0.1394484079380308 -1.2264730293132362
Ni 0.31811530233304935 4.764925688710553 1.3583533265026457 -1.306189825718589 0.0031220905687494613 0.5562581689442033
Ni 6.194185491409469 2.086660541175163 6.957792236024842 1.6636623824170251 0.7428567522054755 0.4268067243178843
Ni 3.7781102901569397 4.271450177012299 0.9069215161015609 -1.2131344032228009 0.26247415154366405 -0.7689886734058369
Ni 5.887501555001153 5.7989566159036965 4.908008089632583 1.025186505022486 -0.3856263934248326 -0.3112135257308963
Ni 5.633150724637571 3.06773448804626 9.210126660285713 -0.6564319476523276 -0.33111926351588783 -0.022396879637961428
P 0.19316775123719868 5.658250362229171 12.389697393782441 0.2934726568077075 -0.921416010102039 1.0145634780910011
P 3.970706608722745 5.960078929261878 12.49649020340849 0.0939995315766123 0.5137436926207604 0.23717989575324958
P 2.386192527534864 8.372058260259006 1.3983310093597277 0.13075319415687803 -0.21702990316793588 0.543383112753748
P 6.260171498305542 7.856955106947241 5.786717830080933 0.5497604770350015 -0.5666883631385917 -0.25095278116762587
P 4.67476229315456 1.1308670650195256 12.56273661000292 -0.3038637702340444 -2.6140930345838593 -0.6309047499155005
P 3.815624121701446 6.202729856511796 8.247292446452633 0.28078014894170356 -0.2495577005923121 -0.20422298121125473
P 4.722646904352368 0.8914060340744767 3.8401939182401397 -0.1980615895955492 -0.2723623571916535 -0.03816674087770846
P 0.25407053902160076 5.519162565013183 3.6450677442715502 -0.40027448235531066 -0.8993693147146447 -0.9270156156770034
Ni 1.4486541552327714 0.9736597887928862 2.6622514702520745 0.31881730622008314 0.44103469499180814 -0.8359782520525088
Ni 1.8460439865686564 6.438020875620662 4.829362859900775 0.8887581148577016 1.121986225052055 -0.4735282967441394
Ni 5.961950552093817 5.700158438683446 9.259632440438915 0.3384733898881139 -0.2008877461904347 0.34756815310053046
Ni 8.514057470769123 2.3980551804600005 10.25558985756921 0.6124480858722097 0.49490444842707026 -1.1104291163420748
Ni 2.3266532215043574 5.349079970367797 6.848193800482125 -0.3755291570898307 -0.5848758326808959 0.8035160177587454
Ni 0.5135968133900212 0.0354206881358406 9.198203428264085 -0.2774541698922641 1.1287415414980173 -0.6461549912063517
Ni 1.424341141729957 1.1625761532881647 11.366809403681476 -0.4417484332293812 0.8581720145407284 0.363593067773877
Ni 4.127552218701667 6.742390148043586 1.5734751231419206 -0.060834614788869416 0.7610830454055151 0.259474702595708
Ni 5.614181329944785 7.700832829463754 7.840273251271268 0.017900534429504657 0.605494280262196 1.0444180995585886
Ni 5.126429186616662 2.710372068676518 4.883950050834409 1.1109268819140996 0.2789184131426164 0.29447461570966055
Ni 0.7652758343485895 7.626365749058705 6.867487790632239 0.5787589211498807 -0.8101710611814177 0.3627823989471236
Ni 5.163707935100151 4.744581962276438 7.186173621471063 -0.1839302924004897 -0.529888677811739 -0.3670712561304646
Ni 8.23153283970834 7.2273755445766685 9.172530549669851 -0.7124909954294245 -0.49331293557023426 -0.2771199264812969
Ni 4.9111744776313495 0.3653371601319146 10.271523064112408 -1.7272339365210834 0.06451540607456632 0.49869888247249605
Ni 8.206243327336688 7.184093136381067 4.737364008137615 -0.5168565272181292 0.12798900114817957 0.17955221793745207
Ni 7.3494921531185105 6.190324704215083 7.016032256060423 0.03441807246855363 0.1341053984585626 -0.5955497674549742
Ni 2.3673677993411637 5.118092779606771 2.7069009768640484 -0.7627072112724994 0.2558129374734046 -0.2071854062736883
Ni 2.2619149631629103 5.229305150779927 11.389095277865835 -0.085811082228549 -0.2350926742069177 -0.5466625548359682
Ni 0.9302960056915481 3.08425359391076 3.8381821497372104 -0.008893445834887909 0.6538423325482803 -0.7692010465269592
Ni 3.761021559952284 2.5308771099342824 2.741783686456409 -1.0573965140961272 -0.22442413874947803 -0.5769370374497934
Ni 1.0793477080321563 3.4810105093131396 8.041381384977106 -0.19022795248374336 -0.2112984000007974 0.26396024917088734
Ni 3.637159911765205 2.7793508637724536 6.968101532416032 -0.23913470548677523 0.0524312212165226 0.10222937568557232
Ni 4.099405542973046 6.821405181513684 6.08187546317449 -0.49285322232499634 1.158890297167256 -0.3540103091814484
Ni 0.7462702730310306 7.494945276294328 11.41120755225129 -0.32815092491618325 -0.013482350757150973 0.022989776026953953
P 0.2932163895089325 5.626477982367182 7.789986272022996 0.01004684271304076 0.818339713035139 1.4986325264654643
P 8.574953025228568 1.7868663467858674 7.924146366613833 -0.6254347279398649 -0.5730824395903937 1.1273199785601422
P 1.6777245148808944 3.353125324120203 10.39238288244343 0.4115094318391816 -0.6472924472449045 -0.3445298804948389
P 4.017668970988873 6.139465388129799 3.800096885521311 -0.3105249843043039 0.42517227403825486 -0.12532302428024222
P 7.0857108753456925 4.0698031605973615 10.524121621505797 -0.2104033989903538 0.8150569285188092 -0.46927106412968206
P 6.292902293723983 7.697324666860894 10.152277181411824 0.18604708163317635 -0.18855673542890755 -0.1405552678489644
P 2.5527488762650035 8.545911225536848 5.7989982075221835 -0.36640148375694964 -0.5957757674228513 0.6187735138696053
P 6.877400158316558 3.725370309583523 1.713960760405338 0.698219830222391 1.31894429717078 -0.926558730645243
Ni 5.388980799147239 2.7633019240299856 0.35789045209140957 0.6257003228964256 0.622937672549624 0.9501038649550347
Ni 1.4662492181842317 1.067693013199457 6.9986966886417 0.024523953283293248 0.4127623304096762 0.5869558551383762
Ni 6.88700239719346 0.6367685832095786 9.06229648569677 0.6619564770149826 0.39360581208588347 -0.5691717916820778
Ni 2.6572613801991913 1.7175710937231787 9.138957071894229 0.08195391326598789 -0.6499959622189967 0.4084909567278319
Ni 6.292269377790477 1.8579156811499862 2.661206254796171 1.2979841499793452 0.321768161318291 0.3252484065574076
Ni 4.040309278095993 6.873051121687754 10.297393954977265 -0.13602472696846252 0.6902614946072628 0.8844296626856769
Ni 8.177843485234666 7.3494921531185105 0.20903314535894968 -0.2304423199190999 -0.7090238628164305 0.8154382231176279
Ni 7.6290601626042 4.067624121454863 8.23118744844177 0.699095547959125 -0.7272393573831927 -0.1244074544445083
Ni 2.8318286363162746 8.310312790117422 12.506574362560475 1.2397124108216455 -0.36326550923112927 -0.8748492180860934
Ni 0.05207089801513875 5.116492406460621 10.126008457674478 -0.10179897301637308 -1.1492160073022852 0.05051960601610654
Ni 8.610857441970733 2.257611134815071 5.789033398231945 0.02260462477339333 0.846156221026775 -0.21369775347090936
Ni 3.6437603207860514 2.6301725782451446 11.384211879356027 -0.9194138920703456 -0.1211994890301719 -0.36208742976262803
Ni 1.179420758775611 3.3453133331695035 12.79430789175401 -0.5034603084168814 -0.16354247277275705 -1.0014855618611205
Ni 3.246415697731131 8.435132853860953 8.135562892545241 -0.3002212883854507 0.3013759708151842 0.004052572802818827
Ni 5.641152590368322 7.851982196041124 3.4797428691148897 -0.6534489537646037 -0.09972152166205406 0.5642077628085831
Ni 3.0443889317560897 8.466995650284872 3.5715301461231346 0.6665983466623681 -0.9846916302322332 0.03819605145374712
Ni 3.4429270534284786 4.153049689165757 9.02112711255346 -0.3683755767641849 0.587409397736027 0.8699219559878052
Ni 7.2421044025149675 6.158082158231061 11.550145257974474 -0.3235453078233718 -0.36492849875584893 -0.9278247418418603
Ni 0.6697914241230516 0.06966867346345695 0.31006370749323664 -0.5678528157603382 0.4324898907455907 -0.08965385301340689
Ni 4.865776321886601 0.4102289831298594 1.592663325914577 -1.2803448396310273 -1.2935798502640625 -0.9202962946752988
Ni 5.844571771397076 5.477426280026574 0.2621980837734341 0.506320917794128 0.6764351302471319 0.8576860760432454
Ni 7.8228861464122454 8.888761786716922 11.25715852653284 0.14228150651145172 -0.553054574405241 -0.36881215008097123
Ni 0.0644281295340292 4.889691502516926 5.691848252476515 -0.5510596554623993 -0.8998069164726955 0.5630068005219465
Ni 7.801511671172136 8.5665894932501 2.584664114294841 0.03885888184872662 -0.04788293972420786 -0.6204964100979831
P 8.453740582306022 1.2917995035976564 3.5122177856630703 0.06839108697988866 1.47388283032461 0.9118831309109393
P 1.856731224188711 3.1832506875672553 1.6150414249921026 0.456800185356181 -0.9307686549615325 0.4947843779094382
P 4.694165687344609 1.2739693575851796 8.29660021433521 -0.2799224289270985 -0.4067423494678414 -0.2100491009747286
P 8.324028982562112 1.6700571904292816 12.267764330861318 1.5701243638578635 0.6446359834586639 1.5448406495904103
P 6.224294206531957 7.583273215643155 1.311551001551133 0.3843593537869509 -0.25646085547004865 -0.621584243845523
P 1.7587467960258254 3.379129127331097 5.890864146939307 0.30820867746630143 -0.8696350208750055 -0.031666992085977716
P 6.925917685447873 4.096476046366534 6.060265000707745 -0.36636317431984644 -0.3120946427842689 -0.6225885167403215
P 2.300929709635444 8.589745174760218 10.240053579732882 1.2891472684140055 -0.036838766094904295 -0.20383345908231992
