# total energy = -340894.9082476633 ev
CRYSTAL
PRIMVEC
9.01553215965004 0.00000000000000 0.00000000000000

0.00000000000000 9.01553215965004 0.00000000000000

0.00000000000000 0.00000000000000 13.19514261961062

PRIMCOORD
 96 1
Ni 6.343887490475123 1.7724356194485822 11.551028150307081 -0.515688475051957 1.9591412710214842 -1.7758226440630642
Ni 4.7575144266689176 0.40217207733984023 6.128326113141602 -0.5788499382017902 -0.6180183808711356 0.06132903792678469
Ni 2.687602303393615 1.4258424956422295 4.830319357771253 0.09932222934110636 0.30729233629961916 0.38042942260492546
Ni 3.165398468786531 4.5032674002288235 4.894830900709259 0.9174431414972198 -0.972874068772015 -0.9701363581258776
Ni 4.862094601368575 4.491952907190197 2.5566516967114987 0.9344281060909908 0.5562486558625065 0.11964242895569717
Ni 7.259586090825956 5.740189416489041 2.754037760924804 -0.9019226772641177 0.4986286913561928 -0.7629362965641698
Ni 4.815042538286031 4.801230742799834 11.222640090877542 1.3298357472723032 -0.9251361392661034 0.4268074956488327
Ni 5.686177362469587 7.957144871604984 12.433123157109808 -0.5790072897152608 -0.07252516375292026 0.1272356679219228
Ni 1.9101118132277626 6.506933392151273 0.2894535816314414 -0.7681039568080384 0.3650567968035971 0.06421330145311521
Ni 2.6795874951774086 1.395505229447027 0.4517421785942485 0.584173921517865 0.9624096789055813 -0.32116703739918234
Ni 0.49245361780901137 8.7647652707231 4.484791869882961 0.29634740725234127 0.7631679529590017 0.4317013334060243
Ni 8.691081325221349 2.588837147028549 1.240792384277334 0.10224685918706906 -0.791790758902017 0.5249976682680249
Ni 6.862370753145587 0.5720274105634596 4.980189960541705 -0.19957905468134016 0.3354636565275126 -1.9456162399518557
Ni 0.6425910803355943 7.23385576163692 2.382686182311537 -0.0845530414517318 0.05428267260296457 0.34546730470744375
Ni 7.5732815372634255 3.604824528703434 3.954267462270353 0.24059252097922432 -0.717272733088784 -0.45120983575259704
Ni 7.611741798062455 4.048235453897687 12.59289010968783 -0.27442335348574026 -1.5454649134379705 -0.5380249337656282
Ni 7.929106566146713 -0.10307367925204577 6.943258108956393 0.018367446763594173 -1.0253425709843762 0.5227710929303513
Ni 6.781447335205575 0.8530722052171104 0.3981141862508475 0.010113691395234195 -0.36649507191202046 0.9393543397480145
Ni 1.9841293334246763 6.426154222728087 9.183502487114074 0.17276219159881212 1.110363810321778 -0.16260247745699094
Ni 8.944868559514056 5.109228372822633 1.226439656853036 0.881706864437875 -0.8136963007258567 -0.39747532234361865
Ni 6.495177138029862 1.9812263320235308 7.220646203708476 -1.100632699076943 0.0002784504723672624 -1.3054148952257776
Ni 3.4552027546245085 4.6962899468081085 0.2712512219143198 0.17625374969183838 -1.3668118102760203 0.21489177377901053
Ni 5.913035201777132 5.462276617756999 4.708212086723869 -0.10706279251847367 0.5013250072414334 0.469358738747482
Ni 5.3488431903370754 2.9164796219367393 9.2294483443832 -0.2997358641085999 -0.242707253329382 0.2885345960761418
P 0.09262287420792124 5.653712430651185 12.140006564704187 1.6860908866238702 0.7926502786888349 1.0551249444531312
P 4.018177669203837 6.427768003010091 12.41393720281857 0.36263970272167223 -0.29107561733044063 1.490140429834053
P 2.3648462469929434 8.363519990103875 1.5027684265596701 0.3753180695202891 -0.1339578171371048 -0.11910635394656909
P 6.263928734491393 7.563346420666957 5.703204998327799 -0.10326167360482862 0.21477838812959782 0.6315125587028284
P 4.62475169799416 1.081061493828518 12.699625898160823 0.7051186142247534 -0.385347171621517 -0.3471272089083699
P 4.169259959515637 6.278957626838317 8.047691468723825 -2.0093135210005006 -0.8007381979032919 0.6058249241287372
P 4.730089177407161 0.990121819501323 3.9819902240980642 -0.1556874955047125 -0.11436446838620949 -0.932113084804569
P 0.23933713911955057 5.319560741421171 3.513668481600999 0.3765863947097514 -0.008859250162842806 0.08711334597974028
Ni 1.5323069165929428 1.149453321869174 2.5352749680709508 -0.7278654210029658 0.1416284463084851 0.4519886229001506
Ni 1.656847479808554 6.440299592909446 4.780072190040987 0.35931372367223285 0.5129340522352713 -0.1042507769909753
Ni 5.8825446715328 5.508634484852313 9.01559450886762 1.1285587360632499 0.21979563883853112 0.5441516154886564
Ni 8.7440205308969 2.305091298897311 10.130993460573603 -0.028212200768157863 -0.1441977496975581 1.394219512865012
Ni 2.4554343155603724 5.029855626438512 7.080856769157778 -1.2368551438785085 0.9550470678929228 0.12503968871186852
Ni 0.5410824974911226 0.034994690182258294 9.28482805465282 -0.7153384921805487 -0.03210922182971889 -0.41981640904298023
Ni 1.6913589374594413 1.1015808453471752 11.363182322375431 -1.0928198879007438 0.5301203342065708 0.6598206616189023
Ni 4.0677360502662525 6.695989104517811 1.6962092938377533 0.4211400129504102 1.146884273845315 -0.3686198315645071
Ni 5.740459882458091 7.775923656808618 7.858670916933262 0.3378974627799858 0.46039767289945227 0.3206448463471252
Ni 5.243199182825816 2.934862292299895 5.013863875241765 -0.42180027224222844 -0.6625874257307621 -0.8561992070850738
Ni 0.7807775532430505 7.484712947931576 7.004826080597896 -0.24485900956506218 -0.4533145408004257 0.20592762260718728
Ni 4.888915809966118 4.637472614071852 6.765241915893279 0.2930175715481599 0.185860419543667 0.8169286916202253
Ni 8.205062994369287 7.055690812290828 9.130089064439453 -0.38343092843541066 0.13036367202794322 0.11787145309820345
Ni 4.47739282252296 0.4313265056970607 10.443177002244077 0.21338330755428414 -0.26271840634398624 0.4358179266775591
Ni 8.027934831237891 6.965787924178328 4.694106384884638 0.8644966712071755 0.189951301783589 -0.17225079918003236
Ni 7.43047550560458 5.906201428292447 6.841167122725232 -0.6670421190680061 0.7104220287155378 1.184472259401418
Ni 2.361862105801083 5.158831831546556 2.3763789159132718 -1.0808218349986032 -0.5882997707607804 1.0465883677370298
Ni 2.45590312324006 5.368406895431753 11.259864322198009 -1.5036999136860425 -0.6132356147705116 -0.11752306861984922
Ni 1.2285646178165455 3.2671928440049665 3.8489308844105814 -0.5610247370949112 0.17801726935016438 -0.15868797289393313
Ni 3.573297212244408 2.617912238701515 2.759183826762611 -0.6940528433288949 -0.5096908627076253 0.29179192667117493
Ni 1.1266620562104899 3.256022599483167 8.292724621151587 0.014513106014510488 0.6721673561097133 -1.000375359516077
Ni 3.8037883110695354 2.5425784507885534 7.058280073167874 -0.45988782314256926 -0.22312753142524153 0.5502847249695878
Ni 3.9015437278168115 6.938272519593556 6.004687103156161 0.3446404379307742 0.3311722282410103 -0.9298332876314566
Ni 1.0819630470586874 7.683866056476012 11.525047189320055 -1.0701054770223635 -0.9286307826829233 -0.9444245551820702
P 0.37803298960205256 5.589287436823274 7.9820322485238115 -0.4699840310363067 -1.36827888173985 -0.3193965757623209
P 8.515476787048938 1.639717968435334 8.087065904498246 0.1895844053624735 -0.5504497897925422 -0.0522944385283422
P 1.813023545870812 3.283691268117068 10.389155932692322 0.8897011954972613 0.04081523424414906 -0.5485633714031068
P 3.9923481691594813 6.1514509534954485 3.8683016571140025 -0.7207851171174168 0.1855323467802869 -1.1255945112286034
P 6.798973530000071 3.9816106701881626 10.441409056359714 0.1127870965967606 -0.10503187813137396 0.2249725550537803
P 6.308501526190972 7.7857866491466705 10.102993020350999 0.6516304124986262 -0.05434772151294511 0.5183842767165653
P 2.2858521529654943 8.480757972155113 5.844696565377056 0.2399248054882384 -0.14608108276320003 -1.2697331255534519
P 6.816941485877348 3.852670527209325 1.5696546607059436 -0.111248291354731 0.47852446440715 -0.04743119689876993
Ni 4.9051888457706765 2.901468760654418 0.6057491075847187 0.5545111043461096 0.04543370685276692 -0.4913838368683215
Ni 1.3885632695747219 1.0396261073699289 6.998136555630039 0.1849967859917911 0.8058351528102251 0.4111217094824597
Ni 6.815435891982966 0.8502422296276085 9.3492999292487 0.4218540082982993 -1.3317481338036679 0.10949042812335982
Ni 2.6802185824385276 1.5950189592835315 9.218337602374593 0.7625493455383964 0.34021659783146574 -0.8424060099557235
Ni 6.042840835856933 2.0433343340499057 2.5688695460867557 1.3349491572394685 -0.3123221854140428 0.6892970738114644
Ni 4.2534289690842595 6.993168095778575 10.394671635354499 -0.19749903222385987 0.6450995533586438 -1.61424115167142
Ni 8.032370473130324 7.189165768017419 13.426189449460864 0.9101604917928776 0.6926258810743813 -0.13282267509139706
Ni 7.687544393655104 3.6933480403737753 8.331518456645778 -0.18835156139663692 1.2718020922673388 -0.5345819695223503
Ni 3.1636674865846057 8.429639904004503 12.467707640572339 0.6897403319964702 -0.43055487850640695 -0.10486167110209682
Ni -0.02301485085976633 4.715465984013813 10.153279856423392 0.4652143775618052 0.9025333142649231 0.09131401432464918
Ni 8.555370517483938 2.087835001491071 5.894547049686047 0.37642030144553235 1.3419685259800953 -1.001358806475269
Ni 3.72438851808851 2.6761706084350663 11.308765470955631 0.03384085980884494 0.17086137503167348 0.6130214418771766
Ni 1.1416278398313031 3.415363117383319 12.42803028291258 -0.5415447739934286 0.17412204806081627 0.4513371053590807
Ni 3.084042305296038 8.500817531526383 7.907268242252318 0.9773351898671618 -0.7415308343052003 0.28333891080781526
Ni 5.65177409120632 7.69752458791308 3.5021890043212514 -0.383703722480823 0.6164307246690416 1.0684471154833342
Ni 3.024197201877388 8.321967401725361 3.6241123585096804 0.6879215336201765 -0.6811618462988398 0.17475402521786032
Ni 3.500199276342267 4.381647869478962 9.130313551193764 -0.3324991745825499 -0.2808176870478583 0.3938824627860378
Ni 7.1321425262092 6.076414678148444 11.34977532428958 -0.5178757125112629 0.40524853853113435 -0.9191189865377462
Ni 0.6527876473688109 0.032718268276080376 0.366656289390544 -0.6346418483604296 0.22993272727253303 -0.6767189800361377
Ni 4.601266236348246 0.1465646070754212 1.6416608156463492 -0.1088399390235545 0.12174199179720323 0.049541044152921127
Ni 6.10676997540825 5.6739973783299975 0.4217934818412487 -1.0941368069399544 -0.29685108636163715 0.08734217416109473
Ni 7.843837661637284 8.75184601293477 11.464691806773132 0.6793363630543268 0.12889377235063607 -0.43855512310306405
Ni 0.03784449994282401 4.673065935598943 5.68868999132207 0.9410474111797213 -0.3754435393545598 0.48773467015150845
Ni 8.058470439143731 9.098565354193347 2.218683732658178 -0.28816384300028436 -0.6395171741748599 0.5254260140546951
P 8.576007070922516 1.5891678788197316 3.591757416185358 -0.10930839401954077 0.5911274700175626 0.5567564487368606
P 1.946489486065101 3.2012622562826727 1.3147504019610567 -0.4333393832300795 0.65766042074279 1.1148943512022798
P 4.870533139602962 0.8987899695190045 8.352169434936041 -0.7290545562150605 1.070484200518021 -1.2682465137055965
P 8.385328562741673 1.7787194454628634 12.288306661747685 0.9949158790634026 -0.7590140786916283 1.1031287260259195
P 6.413207918342854 7.590690530137997 1.5330245529641577 -0.4186972078368725 0.6130175852224345 -0.563331787961533
P 1.8998881995976409 3.1876397869748123 6.083488264792353 -0.8316616269550257 -1.4951625656389929 -0.13373001739701484
P 6.8419054948207405 3.914967855414035 6.090693478207868 0.9856956460167152 -0.4267025946398522 0.18071872744172746
P 2.455425300028071 8.542550430550927 10.02202722940917 0.34654845358676445 -0.7103510662682864 1.1182023325295902
