# total energy = -340891.1623764524 ev
CRYSTAL
PRIMVEC
9.04511521420751 0.00000000000000 0.00000000000000
0.00000000000000 9.04511521420751 0.00000000000000
0.00000000000000 0.00000000000000 13.23844041025300
PRIMCOORD
 96 1
Ni 6.54513597221429 1.8787609247918495 11.440554145946761 -0.6350712225883645 0.13588383051522404 0.09817603155180511
Ni 4.56680641683119 0.4873671002717706 6.271591782527996 -0.09945335560233196 -0.8170698451837799 -1.5139555299757796
Ni 2.341617571286715 1.532206372423283 4.768936706707609 0.8130656091203933 -0.30261164299449816 0.7900056419771363
Ni 3.234696087825389 4.593498552448449 4.888996141781183 0.1431803641766373 -0.6487870295125601 -0.3085586046065525
Ni 4.978585296524749 4.676939742238082 2.3966344858553272 0.010196995137659856 -0.17945297335542643 -0.1901970992458079
Ni 7.152108442765332 6.122032608009445 2.6866489262178206 -0.18717476747971637 -0.919006886439914 -1.470961542912757
Ni 4.987241471985851 4.358967754610464 11.568702627744333 0.6759023976721134 0.07084571916796831 -0.5670097510337525
Ni 5.637458639380714 7.753753340331433 12.208410275527642 -0.2845103054080971 0.1139129826710877 1.214006007194477
Ni 1.9118931825912455 6.409215022732575 0.29582864055726615 0.3860953626414512 0.7028961526521379 0.26699697911468206
Ni 3.173867686596632 1.4547711392754181 0.5599659102022353 -1.1607684880265752 0.4697312915955523 0.484216629695921
Ni 0.18737770661930322 0.25148858023555737 4.81213346443968 1.451404960937068 -0.050856420530235 0.28332065597537015
Ni 8.511191305966546 2.081516232144091 1.3326213780272764 0.36516118359194527 1.2868453597537064 0.6458773120649328
Ni 6.875771121435999 0.6387796189407713 4.732028113218547 -1.7397639506672942 0.6498954320853905 -0.5762487531335172
Ni 0.7769347119323013 7.409252029164194 2.400989708932152 0.43392919429527843 0.40645798545820316 -0.13095374020345835
Ni 7.143624124497292 3.9271901247136665 4.048606327100893 2.8447824375167587 -0.8063979672922305 -0.616143532445926
Ni 7.756503055420436 3.6546246165162874 12.656704286189305 0.5734444509155027 0.6878721684394798 -0.048855588050122314
Ni 7.805238137326836 -0.0032345332757477514 6.819451710246281 0.6282673122926535 -0.6391608192767056 0.36990461181420164
Ni 7.0597578142827135 0.5124799587359374 0.2658440829255441 -0.6935579059703475 0.40422318259041357 -0.42048103921017266
Ni 1.8976742611441664 6.584509359656488 9.094014222846116 -0.0320526575601706 -0.15154981918725513 0.8903784240699439
Ni 0.08940011183119581 5.1757145420830435 1.4110452422910227 -0.8790406304596217 -1.5128808088543622 0.007305275412161612
Ni 6.373993343270154 1.8884844238730263 6.93773739818514 -0.18203076138493168 1.5583322563189421 1.0144742608113044
Ni 3.3892952006583887 4.002526891083082 0.40217748967061 1.3175132211512084 0.6522821871500121 -0.7119785745693803
Ni 5.5814422395577115 5.330476466993681 4.646096803152589 -0.4996237082796105 2.2542589196317824 0.7577411255164758
Ni 5.607021825977775 3.0942887610931957 9.346894846345482 -0.2918875717087747 -0.664572574481591 -0.5148140428668037
P 0.1744748494664672 5.5209485075996545 12.483823186060608 0.8767191814152966 -0.0187220018895355 -0.7735071301014808
P 3.916363121550719 6.020908217565206 12.712676364946727 0.4420986174799483 -0.14700359457746942 -0.6754941064901012
P 2.484801748454184 8.363113721354503 1.4162751280293824 0.615283755548792 0.6273170325642422 0.7186701276569428
P 6.330205939500873 7.73881985476583 5.815991127626544 -1.6328356268441555 -0.26437085434574475 -0.1633398698436477
P 4.9566328013898495 0.8836869731935711 12.84409375145866 0.4457714383458452 -0.20209487912465837 -1.6913649905386159
P 4.018563880730455 6.270481042353886 8.23910247535203 -0.4606342143902905 0.36240804632684037 0.43271280538967416
P 4.65753796965285 1.2446983335448771 4.132816351701597 -0.28163632629441177 -1.456409613240511 -1.5542956243557233
P -0.0039002537709799507 5.780091064507297 3.592078547868446 0.7816241027816604 -1.8701404782110436 0.2846334612495227
Ni 1.2332291271868006 0.9232258862480346 2.7627563364213907 0.3928028565686138 0.8606978662863758 -1.4285563384736686
Ni 1.7356762438940485 6.485130676489148 4.638154287298467 0.32986405095254806 1.3132408190280995 0.08522204249429839
Ni 6.0791225804363265 5.850380656469926 9.11644068202925 -0.36939039118194444 -1.4864182437874593 0.854626206170999
Ni 8.64887605295601 2.0186164994831577 10.17991108293184 0.6166600670710284 1.2827853307517199 0.1391630154871281
Ni 2.2642366088313963 5.283107197516358 7.089277452981625 0.16466861595740026 -0.40869561653947034 -0.4189964842448462
Ni 0.7210901693023611 -0.07276343103118788 9.164972248838602 0.42190980123689914 0.10944003450139861 0.2861074746918879
Ni 1.7999327438686346 0.9822904899690437 11.321461633712051 -1.7550576436015708 0.3273243152498298 0.5847933002694186
Ni 4.208782658104547 6.935839732969111 1.4316708189931695 0.4109787561466922 0.48163369946009316 0.3851239998671174
Ni 5.99815070715754 7.875961894829833 7.970613600676407 -2.3029350446812464 0.45456152583364945 -0.9605042343527523
Ni 5.090075389245293 3.0141399933180257 5.100797469069318 -0.4362308458452616 0.13116431355236768 0.47720831669888775
Ni 0.5307483783584982 7.480129553629405 6.713266577722118 0.7858142296036079 -0.2383975702104346 0.11866592397504078
Ni 4.724607500524409 4.8266725829727815 6.94839435317811 1.3649883839140362 -0.9034421992324376 0.027700551239061972
Ni 8.177489862615984 7.334277067411753 8.864406681333605 0.6014684469322545 -0.29335130073849475 0.49951340795399135
Ni 4.831113734646136 0.21224001538621554 10.364084105156296 -1.0959484062273963 -0.038790747614952555 0.7250428639525062
Ni 8.020376207695014 7.334349428335147 4.645607462408131 0.3169440004567703 -0.3343819934275596 0.19413911461269145
Ni 7.234328541972679 6.046867698833092 6.959646476766002 0.06683608378794297 0.04196631712945676 -0.8475579864703081
Ni 2.29649149043463 5.270100321536141 2.368741158909715 0.17282338385405074 -0.5022655167778317 0.9056811158652854
Ni 2.299575874794334 5.0701309097345995 11.518899317706317 -0.9006666933698295 -0.6098188757794788 -0.6064730992356975
Ni 0.8430617417766433 3.6072734372698125 3.839438937424329 0.09623921954040844 -0.5030049660470175 -1.1667848694239842
Ni 3.4828216941461734 2.8723397188104824 3.128693666632798 0.25623048462679743 -0.029385652250968747 -0.8445017161424876
Ni 0.9423834407168091 3.3050761309422607 8.095094288169404 0.9176133485264971 -0.10482053345151625 0.0738618802864728
Ni 3.545169674766221 2.8341964670659965 7.348062727830006 -0.7359487122317325 -0.4878886792308694 -1.236863885629257
Ni 3.879196742272062 6.769545285892427 5.816216351000611 0.6034314841958963 2.071036966152227 0.31598600741887517
Ni 0.9719157425773136 7.409559563088622 11.417771309215908 0.476774828705895 -0.40042514900056203 -0.533359667079475
P 0.28013355627293307 5.641619392475916 7.9185336350860815 -0.6492953366075462 -0.5233771019454664 0.5532738895048988
P 8.579509062766666 1.5452222935189235 8.055141108828506 -0.19582113030080467 0.3788713340891862 0.31738494464893086
P 1.6846437026698626 3.1584457647981146 10.394479311028284 1.0826084945853807 -0.4554994642668865 -0.25013799857581437
P 3.7911425436160098 6.289068754550927 3.5752790549907996 0.41715454594010093 -0.13591442664284334 0.20799401821791277
P 7.026100939788706 4.109060260551082 10.591110170726697 -0.7075225956805558 -0.10350412863293787 -0.4445108264658667
P 6.4844703830631705 7.751075986165825 10.20857234017698 -0.33051325450077274 0.3868085866583919 -0.016998077219893305
P 2.3345895166019943 8.575040775747038 5.842230102961044 -0.3881962110345379 -1.077472716020712 -2.0298198684839686
P 6.995239005960821 4.171643414172164 1.4763247448201031 0.22496946972998674 -0.5755370717784734 1.2772744282358195
Ni 5.602110328302352 2.7956009595502924 0.4894583309578805 -0.6908788164762876 0.03472994728201761 -0.8474605416604953
Ni 1.504645905725287 1.0196920422487332 7.078594267153924 -0.4790939637573749 1.1135239532173145 0.09660585885120782
Ni 6.777830611621132 0.6718313752128905 9.161331589880302 0.9896551448850955 1.0173222717830608 -0.03655311653368543
Ni 2.827575442575372 1.3660656923088124 9.305299978555063 -0.6104189712573229 0.8960178817439085 -0.6453494645859209
Ni 6.137753018616967 2.266353165840694 2.708306550589886 0.5184783790922683 -0.5113268556491517 0.47193138457066464
Ni 4.127919326210853 6.407957751688589 10.50184302209224 -0.09792200655947006 0.9919344278375755 0.011771795823947467
Ni 8.22906511076563 7.295401161317893 0.2938920813449127 0.061622400797487424 0.24277024535683348 0.1786029666503053
Ni 7.716288472243773 4.093177037865923 8.35407855555712 -0.7561375284747817 -0.9010400175488482 -0.9206349089616402
Ni 3.154719177243282 8.417664812478762 12.404472197465866 0.9249075681950651 -0.6502723558088349 0.3064929803267754
Ni 9.103908674608812 4.687477301707451 10.148747946760325 0.9367318145235028 0.6340327540215209 0.9658932665788075
Ni 8.569885059955157 2.3114702015773547 5.978519188640529 0.5405716114468819 1.3723707924210364 -0.605602523705286
Ni 3.6787750746993035 2.467136638030427 11.399131135349405 0.2149488522691911 -0.059917759401554874 0.3737607523354982
Ni 1.2365758198938102 3.109792088930533 12.838229803129051 -0.37441381253846484 0.008410849771514548 -0.7981876635672963
Ni 3.1132292327917863 8.364488578899005 7.813009700499437 0.6799948225739321 -0.8808157200821733 1.172054859573672
Ni 5.674643108890219 7.59850297918788 3.6479583664485413 -1.0897625891316587 0.9923985119581877 0.33783781318664396
Ni 3.2168500750931455 8.51489980329053 3.6404391619962784 -0.07506207124216106 -0.27365613630241253 0.15540030328159687
Ni 3.4676711258103863 4.072798392814861 9.341520238760332 -0.911716780536404 1.0507034183466677 0.48932104080202177
Ni 7.468895520272361 6.258496264416621 11.405790149324813 0.10618476078889456 -1.1103380992901652 -0.34609593943037814
Ni 0.9277122634985125 9.282006997314275 0.24744089108316053 -0.39299671774697476 -0.7536687552193149 0.3887780516799369
Ni 4.92723617626071 0.2809340489879881 1.8789581083081002 -0.5128085824010007 0.6064887829649813 0.1791272145848915
Ni 5.984935793522564 5.51029336162977 0.15828047481071 0.28564004813716615 0.979004607149785 0.2917291917540395
Ni 8.212720587193829 8.830474835330696 11.21183393025738 -0.5629669484229467 -0.09049306108525061 -0.05680441058355379
Ni 0.13706425207135337 4.945136459685499 5.739525530852171 -0.6247682980004595 -0.19592705975104965 0.43975942782381044
Ni 8.006428639710665 -0.20312706159618238 2.4922956265832585 0.7230032078146581 1.3372847473511809 1.3167190073846873
P 8.306048088142276 1.9235523363732332 3.560769785338599 0.05095669355352515 -0.4538585862293539 0.5064947243678309
P 1.9234257047572925 3.170150144157224 1.632247158039685 -1.1408730346542288 -0.604422644464572 1.3321980768568928
P 4.6344457899744835 1.1995541624619435 8.295392037660848 2.102676961655011 -0.017116090854996328 0.056210999973929004
P 8.696227232202485 1.5505950920809877 12.4110380467524 -0.5704267471351014 0.49866391546950245 -0.8211126477945858
P 6.5009324931354895 7.942606305276447 1.5129547487540953 -1.4926490551885196 -2.6174699214758923 -0.8123259027408914
P 1.8079014905574873 3.3223523014027703 5.839780685704129 -0.8184456424853841 -0.3403258697158203 1.6400334301441757
P 6.677303198794901 4.086194208758324 6.1862701132416404 1.0795383403004892 -0.890430360353802 0.7178363189017378
P 2.814279122901577 8.31665800853504 10.131815490685941 -1.6112229336703865 0.21620792148727283 0.8876096030755553
