# total energy = -340864.70617202774 ev
CRYSTAL
PRIMVEC
9.29052888539489 0.00000000000000 0.00000000000000

0.00000000000000 9.29052888539489 0.00000000000000

0.00000000000000 0.00000000000000 13.59762812482651

PRIMCOORD
 96 1
Ni 3.6924649137634096 4.304459914982039 13.23798431656238 0.01414852358624015 -1.5519194108140628 1.2118236548311774
Ni 7.406242300509612 7.907856529492599 11.176094531711893 0.0568900283188246 1.72856705351021 -0.38708600868949467
Ni 9.08138967021689 9.089119390147877 8.648390641414556 0.29582598753123246 -0.4892752751657509 -0.01316430529609991
Ni 0.48603587035284346 3.522689791144594 4.280614843858396 0.7033766918329822 -0.07367059021127313 -0.489369377541454
Ni 3.308793947429316 1.8249943081290172 0.8913704916569796 1.0071512447873299 0.7446495824398401 1.0037152225225876
Ni 2.405801004289567 7.267794840880325 4.8115750660457195 -0.14065836908573193 -0.3664698751010398 -0.3877244136044419
Ni 7.541577433003226 6.22073366820955 2.449476709058271 -0.9811663906877941 -0.22328873959345413 -0.10554249921920532
Ni 8.640098844493396 0.6580620880909838 6.291908409064467 -0.8762592110597426 -0.42662314755216846 1.2500896402909114
Ni 5.923195194039134 4.148007410609661 3.951851831567723 0.13333715283397035 1.1086655966837489 1.142368645363149
Ni 5.86631857695079 1.7151152244465868 1.6372494447764097 -0.1769849714309081 -1.943211744275421 1.879830451805298
Ni 6.694411277201577 2.0315413435926 4.75192243896293 -0.22469590435362594 -0.1489128957850403 -0.18921159540408705
Ni 5.741927687340232 0.7029697169736897 6.877788662982603 -1.2712197374013074 -0.6940219900909596 -1.0038874864343936
Ni 7.964658822350837 7.480046261004516 6.966771489370831 -0.07251899310533316 0.21465986027386252 0.29818497468171223
Ni 4.568636100363785 2.8959135586637044 10.552357231189449 1.5426904360166271 -0.4363180062424292 0.22974889339650112
Ni 6.096537879703019 8.425729183811194 2.2656635974782526 -0.508528209858092 0.296518899833199 1.4341328041201817
Ni 7.31954308609138 8.170369710225732 0.48849228615783497 0.43138097395212804 -0.4819697426432732 -2.4026920475669264
Ni 4.9402665414207645 7.894050803750475 12.044575018602089 0.7143151931223568 0.16645707531639073 0.28135993270457355
Ni 2.626952750968908 5.222707906350973 3.692422177331099 -0.3863079928728895 -1.2716851070735002 1.188562627420708
Ni -0.08309077304660387 4.1646374570957985 10.030045562227793 0.17505664405994367 -0.8577500965119615 1.331234427392043
Ni 0.6181453312598717 6.520251025006529 10.614240514228284 -0.2628924700280053 -0.12446710403785016 0.464686015862161
Ni 2.6641148660217295 3.1728920926811472 8.583801956399878 0.13981736124167535 -0.677239371315982 -0.740082531894448
Ni 0.5905682547320491 0.1434290411521177 0.39923074390671004 0.2541826009588332 0.4559746041310922 -0.3693970760501638
Ni 8.741904458680601 8.395869424366252 2.3589711650057534 -0.0021633261999059517 1.0660793865821059 1.8416541978458927
Ni 0.31866049131356383 5.946551583349832 6.334536142188682 0.5606197883470088 1.1592538511542614 -0.6209440391583628
P 4.9634278296274355 1.546585032682041 12.429183399288389 -0.7046331899479026 -0.13073442510380065 0.4031494899102605
P 4.767843618104436 6.606625070918049 0.1384753312155766 -0.7917820171512686 -0.4516921747056543 0.025539281921685048
P 8.63973651387163 6.586464623501894 8.935463334933223 -1.039818396003048 0.31541290852422454 -0.7825738682894394
P 7.544559692736214 8.22164413846986 4.257212930956759 2.461766999352212 -0.644418211020903 -0.87115557128459
P 0.5404737236408456 7.582000523651932 12.651314367699372 0.1258999798296348 0.44433136346520896 -1.5349858682835178
P 1.3972212017559875 7.2097104550527655 2.863755322402745 0.6518733817473676 -0.176978800783321 0.0005923821683602701
P 4.633502572188485 7.669377946669879 9.997071617541426 -0.4447831062906468 0.5799287730882657 -0.9249875295033811
P 4.060249075912422 3.9868910607981523 5.403520177140476 1.4325369203879714 1.6812726392996205 0.6813053138552396
Ni 7.607270761887851 4.656320110830918 8.508878487189007 -1.1772148065080563 -0.2475602105463091 -0.7757753573103671
Ni 4.657016900488157 9.29155072136936 0.36928829875577535 0.4201141427890572 -0.5603174266152414 0.2109081065409142
Ni 2.5055441210913396 0.9113841487186766 12.399717558263006 0.624903280916427 -0.3823094132364577 0.16166608168565058
Ni 9.20037347208726 2.3326102186930346 8.12538496995429 -0.2814722899127217 -0.0983341543962242 0.25680332641113196
Ni 2.497656462171378 7.77899689554694 11.280075058682566 -0.25772455267382066 -2.5889054795746382 0.4750719870821754
Ni 1.6408374469847595 2.8854245516900456 13.395254387465922 -0.5348365087353176 1.4158239785086648 -0.5856692751164687
Ni 3.4902008120596646 2.7900201118206893 3.8552126804257365 -0.8826535446218605 -1.7010076558347027 -1.4047435523247873
Ni 5.02143789122489 3.614712478544144 7.463575082560229 -0.1273878772290709 -0.8469275519751609 -1.0986925446314368
Ni 4.682519401943156 6.2563907176027325 4.6950021563894 -0.23011424715571982 0.04603508788219168 0.19899464293277985
Ni 5.54184685989584 0.5869477356730279 10.475680639200963 -0.3302533159711667 -1.3053357052484098 1.0536961824264046
Ni 2.126100345344504 7.563410175596759 8.933546698849373 -0.5886813224699151 0.07120310250738704 -0.9170585044642917
Ni 2.169431371496094 4.240568948677476 6.443548419537505 0.024880565291763603 0.4785915701996596 -0.4664467073070096
Ni 5.094591514706369 5.188193591995664 11.769440654544141 0.34063825874991654 1.0533215726958054 -0.4916098368361985
Ni 5.9479637437218384 3.171340574377692 13.657185981098477 0.10193215616012767 1.4919851963522757 -1.3364208566889886
Ni 6.249311334685169 6.386067918079553 9.894939905794631 0.7088940221067855 -1.9574302018676484 -0.8435604352751408
Ni 6.833295391682736 5.826034844233532 5.66241934218472 2.22468686240162 0.0725696438376105 -2.1892159231885198
Ni 3.191352373333636 0.07671561220929232 10.267786477066714 0.7106189752176922 4.1312889258738075 -3.4195435503611558
Ni 0.5626539320101221 2.359497008933751 2.0000343733979413 1.261541590881595 -0.7789195593663036 0.9021800446905623
Ni 7.586887341781378 3.0663483088247077 2.6772916229665835 0.6947010184358552 0.08049815465606781 -0.24882107953660373
Ni 3.390216141510048 8.972411767824491 5.796723225985619 3.1238121794262588 -1.0169977985641065 2.2863177478395396
Ni 8.111867250603826 0.5358247430477375 12.504786935204727 -1.0508782533616352 -0.9254220459376385 0.661885514567731
Ni 6.528965540986416 8.519563524319569 8.487653345176588 0.20480276497412472 -0.33777533537982474 1.520802377694284
Ni 8.097940747987781 6.187975263790487 12.354695655876514 0.3726631483959453 -1.7337231437898526 1.4399342412933072
Ni 5.770514644344615 9.074468226288301 4.554892621164376 -2.808201038848299 1.0822976482131812 -0.07302112955273231
P 7.049551029703868 2.275928702708718 6.80010590672906 2.0440236707881763 2.2348987699376157 1.0399253538945576
P 5.564933823872407 7.842841409207687 6.264672294942254 1.069562717145016 -1.39181681696079 -0.08090824561029293
P 6.410659947715758 3.9664890596341533 10.571625787844336 0.9115725416490559 2.4466843939874767 -2.0511155446379514
P 8.04283862189321 1.0560451139847955 1.5550384848036813 -0.433352495856202 -1.0684203760104567 0.2615300424628399
P 4.153851153201717 0.6614234013975114 2.9459123973086467 1.098890776685172 -0.10092968303754231 -0.46990766927241656
P 0.8904869623715987 1.887584600406732 5.494447511198843 1.8496469862433822 -0.26211933930740666 1.971993958614436
P 7.679634690424458 0.615830131492081 10.10170526868415 -0.010281841541982292 -0.002343560531512093 0.32426033161252543
P 2.493735859033306 6.596554137738735 6.846433128406784 -0.7775237074600416 -0.0017149258085776915 0.5871168061962727
Ni 7.051929405067248 2.2963492849302436 11.587912083986994 -0.040674080680594464 0.008998603954184503 -0.34095964664507733
Ni 2.7356240659121216 7.900600626528535 -0.17302587863306115 0.35313253456218535 0.3751473482703797 2.9095611245550406
Ni 8.953672771309105 3.89364202360186 6.451543848591119 -1.5141799872817598 -1.5294615960311788 0.12500266482634603
Ni 2.2224895812627605 5.848415728024094 12.498504679655047 -1.2872479945087638 -1.653984493007629 -0.40464870016360627
Ni 0.35505892490205 6.870355310919161 0.9617211626105999 0.25241573886639757 -1.5318221258435551 0.16163599977866355
Ni 9.482006561015071 4.8142869713917 2.4068619826743247 0.6327420602345555 0.6342582397687658 -1.0094276995263327
Ni 0.26334839926894416 2.133133275618251 11.498902315065353 -0.3175826624820337 0.8196139517618724 0.15933820488342237
Ni 2.2548670740025316 9.345993219921743 2.1040288361617576 -1.6807075108247702 -0.20228642631017418 -0.895763085420625
Ni 5.612529202726308 5.8112907750863245 7.319616481268609 -0.09354856008212276 1.2889328384103542 1.8780656465953915
Ni 0.22025242349506322 7.957272851984087 5.152535613549605 -0.6385604666885454 0.9911322436512543 -0.8770549674881605
Ni 1.200178377217164 5.318335318910646 8.47487143570417 0.08139187011493079 -0.11829491378886724 -0.1428893152987797
Ni 2.8944456551191178 5.7298035473042495 1.5070389679485807 -0.6196003806462749 -0.16754105240918887 -2.138324535655291
Ni 3.699553587209735 7.670232675316094 2.522972223998237 0.7886882087172933 0.16316554904931255 1.2135198115866779
Ni 8.574182542918454 2.671835295423953 13.73645927587628 -0.7478976570634926 -1.3017217626449065 -1.3619074309958674
Ni 1.9178995957610714 0.6490567785608088 7.4345031599544065 -0.9596740251419729 0.1764632945994832 0.7680597338336643
Ni 0.5324532101595704 9.162468114733382 11.086962127810576 0.22056028491869756 -0.9699206425706457 -0.5081949948883893
Ni 6.138233772792286 2.126351189621111 8.860948648987934 1.2336903729972817 0.35191100345025844 0.020725405472809467
Ni 2.2382277369876302 0.5614387308478949 4.320891144152644 -1.895892390364167 1.6294317433689294 -1.2054478332118208
Ni 8.903123004308505 1.0868246357772948 4.015733507343524 -0.5940189326327447 -0.5234817458441307 -1.9284219875607564
Ni 2.4894622158022313 2.8638891060169356 10.833923428310163 -2.4905247882111943 0.6601965569010824 1.906857374016103
Ni 4.628968794152041 3.8140872258025316 2.1226033903180337 -0.5758795427195565 -0.09488193418156562 -1.9438308659166585
Ni 4.198650082897893 8.015784602134756 7.85273860949913 -0.6778620925016455 0.030391210697347657 0.7758753732233412
Ni 3.405852101418523 2.020244060616542 6.174941580988587 -0.1597459818448023 0.36479737249462335 0.5499491960070401
Ni 3.7034556092902817 5.404885884868667 8.348372525117242 -0.8059035441543153 0.6620251254693889 -0.4224775008149111
P -0.019266698549135375 4.182874765057971 12.235363459177522 0.9378078211965011 0.5910961025589949 -0.10633439899288138
P 4.964143200342202 5.8929638134436635 2.4809548786137636 1.184837870270953 0.6153680877324821 0.3662878409972208
P 2.357573869479767 3.5676652408872713 1.922663778910843 0.0818857790322138 0.778692273846846 0.001697699417397076
P 8.14074221399987 4.935073135842133 4.281362731423834 0.0786256202237033 -0.7813389674410738 -0.4952407487205664
P 2.984220034557972 5.16421473725783 10.264210552545757 -1.303288335801078 -1.106026873509321 2.055169660102667
P 4.069688253135839 1.047302726418619 8.217902842536919 -0.8155454381194535 1.0977067836793999 0.3454230817330696
P 7.743154035578494 4.390815379836034 0.8216989583559495 -0.9284127531348462 2.801806448175865 0.8058132984333541
P 1.1753633748906425 1.4886307142571655 9.674739509260643 1.1872009711864908 -0.14838376275444765 -1.0078097043069354
