# total energy = -381164.94738475437 ev
CRYSTAL
PRIMVEC
9.25800298989353 0.00000000000000 0.00000000000000
0.00000000000000 9.25800298989353 0.00000000000000
0.00000000000000 0.00000000000000 13.55002318899263
PRIMCOORD
 96 1
Ni 6.578616496820848 2.8415310518201604 10.729070844885342 -2.3830472767528055 2.7014506353639214 -0.12573697188920924
Ni 9.019664859794355 4.682151637616045 6.992502922245987 1.7242136616375208 2.593521895300727 0.14424660065762257
Ni 8.568689023206947 9.157155460655737 9.040764774172052 2.4098281443910756 -0.5372754571941134 -0.31847714927184506
Ni 0.22359928570494128 9.043254251148124 6.835783449390189 0.6273815672535905 -0.5117559727667702 1.567354000201578
Ni 3.5963082531147426 7.814365464053783 1.7340776369821378 -0.994548468421655 -2.257151153577913 1.015107266409613
Ni 7.111766367025227 6.791985689336655 3.2759350632414614 0.7707190258333824 0.8524348549466351 0.20370618947583627
Ni 1.891122991539527 8.65990812564363 9.15178026418007 0.4014841863926957 1.0128611506879137 -0.438766982003554
Ni 4.384497586825238 6.294488388246624 11.513115370703733 -1.4500875276772254 2.0521095331201047 -0.8014766187312131
Ni 0.05871795750476232 6.566932897178597 9.261562588203661 -0.19990352790029442 0.6046309038206361 -1.4838535683840768
Ni 8.175001708478687 8.853446675977425 4.992940017101353 0.35560002226607146 -1.074241353567608 -1.3157455877278244
Ni 5.888376833645227 5.60354511685166 0.591154961486912 -1.5975585488094164 -2.687404955904133 0.7357733629961328
Ni 7.022491445194622 0.8811656050949596 10.071867439208457 -2.0102077506799962 -2.1021267455784955 1.0902824661908705
Ni 8.755154459335765 3.354850279842526 11.39299463485724 0.20809249146899 0.33394696277267005 -0.2919793600916326
Ni 1.9203597646538115 0.005067830779847833 1.6797831532563512 -0.06711787669441989 1.7029262130136542 0.850566948499961
Ni 2.084578219847346 6.749732164164523 7.254520142527352 -3.251737160105722 -1.0624518171318476 -0.717866400808725
Ni 5.9061614571894125 -0.005825135415930318 5.21572922755376 0.7357895609460489 0.13535315482273463 -3.3150251215310904
Ni 0.06758619846935172 5.42540262531744 13.255147483765603 1.2532148161834546 -0.012435911770507615 1.1152589336305503
Ni 5.0274195972500335 6.639080513669928 3.9134633611848177 -2.480850241235908 0.0770176523066351 -0.7394734375555393
Ni 5.925168137114564 2.386370597928237 1.733278671333068 0.6378685828278434 0.2366805875193279 0.9188773028405853
Ni 2.4106635975013475 5.119397855923376 5.421458716087964 -1.1608913867576847 0.8529328776289762 1.7510248682930938
Ni 7.150788849190112 2.3813064703495437 4.81487899599253 0.019318240712637696 -0.7544331441891652 0.8885675961134504
Ni 0.6965286245361448 2.487264313380889 7.158314679736218 -2.0537753508583014 -0.7302508905160068 2.3344608832036697
Ni 1.7592057084155739 8.731870582077239 5.161312538189878 0.23725882862030107 -1.2027070372418898 -0.46750471625787876
Ni -0.1824243178690384 6.227627091403254 4.208433516938946 1.7867428905199938 0.7640359573862519 0.4529412166214071
P 7.554752547121936 3.2965804096774503 6.822084382519635 -1.6538813917708615 -2.060858740067644 -1.3777248576440984
Ni 5.428041156139977 5.888923055815506 9.242605901494095 -0.8734677643575345 -0.26238287738143845 0.0590798368812918
P 0.6053224833035016 1.7302929654023027 9.523037289515903 0.9352454597859635 0.0648884731432689 0.5852553275075018
Ni 0.6368256155243021 1.4288986814455138 5.046746604075043 -0.8210383429132246 0.05102354223571858 -1.3534495300365015
P 8.182574754839512 3.3806245598774116 3.100434805730932 -0.6118593032482752 0.9338246681790369 -0.5130340681482455
P 8.39471263297147 8.632134116985348 -0.08977115078529868 0.5133971079146191 0.35973975546605785 0.8068890479960361
P 2.033696235985374 4.513017182889994 7.660004004533072 0.8246443150969281 0.434476067937684 -2.253500701309519
Ni 4.317543709953006 0.6868753049268146 1.3148891533041325 -0.4253730771951513 0.7009117752322575 1.1217054605868422
Ni 4.965900168071939 3.0510396571324665 6.748575839604049 0.4754733362856521 1.9057299452798793 -1.8471931253862508
Ni 3.735483810501393 4.002567935762317 12.21819098350432 0.0259282898299876 -0.0052123974388748944 0.038565518978023905
Ni 7.766112753011462 3.7744507446489624 0.1637916612604857 2.0014354038040048 -0.2863368170938746 0.8334333741434679
Ni 2.541229212203931 3.756842023159612 3.635688094191032 0.7914243767015339 -0.531344179311343 -0.9560729380542762
Ni 0.8683997449153248 2.160614197550836 2.5678107900904834 -0.6101232943937751 0.7289198304094091 0.3605190568342436
Ni 7.979463429521497 2.459879140843823 8.783788536462165 1.424891230917256 0.9880880575082918 -0.36553502199159627
Ni 6.306810790088015 6.946409177476703 5.680603178073775 0.8061498558371665 -0.1899335611717761 0.8680003134850599
Ni 9.459364448866502 1.5687871050543933 0.5111500779461539 -0.580249132542162 -1.0801484630806624 -1.6283284830024214
Ni 0.7730617569946178 4.234693842125352 9.248432888510603 -1.563632585485933 -2.2564369011197076 0.3958329016441893
Ni 8.16113322015532 8.408358929225571 11.325705618280534 2.3460928110156436 1.1615225925837804 1.8280630894250194
Ni 5.811507635681988 7.586970397165543 1.4949202774271155 0.5893014725524173 1.4099654628453588 1.2888888725462964
Ni 7.238221428446384 4.783295319146621 4.6014385168545004 -0.28898016825399264 -0.09470504228406916 0.7044017906633869
Ni 3.899804103726675 7.779083215054879 5.836428327850776 -0.009947341020698997 -0.6536921801236613 -2.6365878732522656
Ni 8.04648211241393 6.452216983417007 1.2424924965351665 0.40567534165590774 0.7168220187046106 0.511959604137144
Ni 4.517488798283978 5.359531934782881 6.894522700301589 -2.1547068336680573 0.9660408479002651 -0.28757737436919506
Ni 3.331492338560911 5.46856343477241 1.8622880157504986 0.10026530998066603 0.10887644868844475 -0.03407508730683809
Ni 2.7333698041019248 5.354902933339835 9.531737034827964 1.8849040096734635 0.9260974747381084 0.2242539317202009
Ni 6.149091452920518 5.129831625176004 11.821243000159578 1.4399488965813267 -2.1477751395452302 -0.5856551340490816
Ni 7.734080063025576 4.772352359735258 9.48165586821564 -1.1739243086822428 0.17331600721975313 0.21930584368630618
Ni 7.552984268570693 1.557705275599739 12.268705424651714 0.826695284088686 -0.7780893501555245 1.0637291411823744
Ni 4.834205077017252 8.991150210905186 9.367456551015092 0.7076714625535941 0.020618190470983847 0.6948899945182098
Ni 3.7124591573236776 8.862612098834658 3.889209245223829 0.6391279091562413 1.1944782215741945 -1.771801695829129
Ni 1.1498624744586419 6.95802797109875 1.8815428101529967 0.10300379195775163 -0.34585168463005594 -0.46922606982435966
Ni 5.9005418494375546 1.6882523742965498 8.172561298917913 -3.1328526923619724 0.6706894860126061 2.745393616603775
P 3.362988064379403 8.401406169058115 11.00097931545021 0.26888751126917565 0.06473652094643689 0.4713184335770141
Ni 4.642694029315512 1.885994057940631 3.843843179481391 0.7430518989354171 0.8256131067681006 0.30188324946890593
P 5.82911635717134 3.473380490793187 13.535781622050614 -2.6239365030368424 1.2095860237499105 -1.1887845136235267
Ni 8.405201950241414 6.045827688729027 11.326112044607232 -0.8510446594673278 0.3922289863430148 -0.22900327347972818
P 9.115355577625023 6.835396464869549 6.359120357995023 -0.6556433903127611 0.9528755141629008 -0.3477841257660785
P 5.635420420788481 8.750155137777275 7.217148362277056 -0.7727995625114948 -0.7166955204290754 1.307281259010555
P 2.625615908510677 1.5118596453078017 3.3582785183112467 0.5128206665858587 -0.7173843189659839 0.4992550120862821
Ni 7.3057307854917815 0.7945819847033432 6.933709049117558 2.935935757893828 -0.1278912992280507 -1.4734830237830299
Ni 3.177004044400661 2.8458730551737386 8.376109601972152 0.36474286510760406 -0.02565189624014937 0.3827382732437602
Ni 1.1880147043522349 5.027660305325071 11.329038499319527 2.0177066301602027 0.13958647617779185 0.510483790922566
Ni 9.161358593966025 8.821728758089666 2.7224296220914272 0.25251909721348126 -1.502975119704876 0.20218255374245825
Ni 6.433562107601527 0.39361139910459353 0.34957293097602177 1.0592276537675953 -0.7513344506591835 0.9174284862092006
Ni 7.92579478679081 1.3517610013985788 2.6704116812753314 -2.0071393961673176 -0.6102420793598266 -0.24264708951540792
Ni 0.8522158300701439 0.6081943157987679 11.474701139328463 -0.4085336370403093 -0.32370137378526187 -0.3858842750719096
Ni 2.7120023334408194 1.2073824463899436 13.16727514937224 -0.5161831553001884 0.05308402430917309 -0.47878286027485933
Ni 3.929179746884251 7.559113066481286 7.868877510847393 1.621987628386058 -0.1917323049434117 4.593081422238258
Ni 6.74966735814432 7.562871815653041 10.065784005512006 -1.4031065309419966 -1.1279023334261737 -0.9889267513595031
Ni 7.283835608666169 7.574092515150986 7.798350044861129 1.4462478422161609 -1.014927032078007 -0.084871344023099
Ni 0.2881155304172643 3.7975031718353365 4.72276557047705 0.3716115672029794 0.09762658680623831 0.19807958731767822
Ni 2.4021647508519135 2.7041700629991845 5.951156277016119 2.7895589982670796 0.43353555840128566 -1.3947208779814624
Ni 4.945930655846634 1.8523782494612238 12.608039004435716 -0.35068741545580245 -0.17364382287281707 -0.30293688754440085
Ni 6.636969689011898 5.170316871796893 7.346348421553941 1.2341796539288745 -0.14935204020498793 -0.1635365592354861
Ni 0.4708703589893362 4.614512668530242 2.178532136336582 0.25235608927305575 0.09202878100348666 -0.3142129746788524
Ni 3.540454721702938 3.2269046799567076 1.4092837507307465 -0.27290794528247836 -0.9748535610958888 -0.7425980992274501
Ni 2.7361472049677524 6.39160483852175 13.255404856245836 -0.284386121125407 -0.6583008825402663 -0.03893267250945553
Ni 4.2640417112742695 0.9621934979546312 6.244947889002847 -2.5567260666286162 0.22638666179248754 0.9885791382120975
Ni 5.496226347396059 4.554363423779289 2.9586883009428138 -0.32652727326983116 -0.9521939147148439 -0.4608802689628256
Ni 1.8031441901129759 2.6508254503695112 11.264459300187577 0.3579520674380158 1.0697277819679705 -0.19624150566767493
Ni 6.820639208269116 7.081057571452053 12.87546197260227 0.3498230105729782 2.1573152178251815 -1.2867507431573713
Ni 3.7071913536814898 1.571314539842297 10.305036722496753 0.4697580310684297 -0.32431612455112535 1.1276328818148709
Ni 1.3184414490115268 7.449859374422492 10.927375415104898 0.4845413600251913 -0.6282590847625373 1.9088245250448028
Ni 4.3419107735492055 8.165410417488694 13.241299363048583 -0.8143110514917201 0.09969452507886056 -1.2666514013043346
P 5.912132869050943 0.044183818773883415 2.963539494455127 0.22505842989936725 0.5686552570569755 -0.505488908811136
Ni 5.651529345810284 9.080156650652095 11.72436077735747 0.3671496747768838 -0.1359131410912627 -1.7159935877205736
P 4.395699770317411 4.602125460668649 4.853442281214266 0.7630759074658277 -0.5907749717741503 -0.45913423280599636
Ni 1.3880616307149534 8.293994819573653 13.221286338209715 -0.8385329001535624 0.1586748602678106 0.0670443431440071
P 1.9639834742530862 4.368546047852497 13.520700335349167 0.4058689457239526 -0.32433592204546724 0.4293261483056283
P 5.071172918889713 3.7999102525857205 9.439705079737882 -0.7535193741256442 -0.6929490687417549 -0.1540759280432185
P 2.4214399128607607 9.343824572848048 7.22849034161281 0.13897558206667035 0.3471439210789183 -1.2376987228257263
Ni 2.602906027431089 6.751481926709994 3.732286096304536 -0.4560779624781758 0.015900730390656488 0.432214782707333
