# total energy = -340885.322443264 ev
CRYSTAL
PRIMVEC
9.11370947373483 0.00000000000000 0.00000000000000
0.00000000000000 9.11370947373483 0.00000000000000
0.00000000000000 0.00000000000000 13.33883504268346
PRIMCOORD
 96 1
Ni 5.361440360379918 2.9105360355648724 9.261112805368558 0.09854215664197223 0.08935277683322031 1.7609452127305996
Ni 4.56670666536264 0.19192651953783593 6.088524812588841 -0.1068499051767192 0.5603372241095833 -0.37640050395119046
Ni 2.6794488177159916 1.8857723129996466 4.919135634114012 0.3203741091842418 -0.07812271244535578 0.661187460059442
Ni 3.330304381001913 2.6265619615408435 2.7182413221636077 0.5396555273905157 0.006745032033317416 -0.022690756729296404
Ni 5.471998770212887 3.142953854999411 0.45524254825905464 -0.09605898520880231 0.0193254398014893 -0.2593376627972114
Ni 4.643526122660645 4.666392419773078 2.897155287290471 0.6661352909830206 0.8205567752911158 -0.2652504287372206
Ni 5.202643086212112 4.668862235045086 11.890664063622385 0.0858193097586651 -1.0622643837113899 -0.5059067130748448
Ni 5.7537764402496325 8.190928177443052 12.705333998150802 -0.09214036688068647 0.26709879479986903 -0.958198469037711
Ni 2.3889128728585822 5.552928510491246 11.72762344631566 0.4426706879333344 -1.6385519605026426 -0.8083913435731754
Ni 0.8459910199354704 7.8798681588123465 11.806642953084745 1.172848816229877 0.45725141396098673 -0.06710784939209087
Ni 7.79216693238232 0.251437219770902 6.814063579668122 -0.09853007245711418 -0.839104199276 0.47533218272209754
Ni 8.521500648093573 2.5412302995784253 1.7000075724485448 0.2143713824991663 0.9950812009966733 -1.0482896666988526
Ni 0.9925832143531893 0.8572874628493247 2.8339553574555265 0.35902087502216234 0.6735266983510853 -0.944324025048464
Ni 1.9221998098343989 6.281733631052034 0.4698937476364746 -0.5370815960157523 1.9626845082880524 -0.08916174386833675
Ni 7.8609025293619785 4.418918752259727 3.9911658859377908 -0.22735365369144717 -0.3175471812584079 -0.5986772573403625
Ni 7.792002885611484 4.28001670591035 13.097588966006048 -0.4815293126717449 -0.39183046535301547 0.18583933649774445
Ni 6.905557931988224 0.9448273766213651 9.315335731355058 0.12242539101747303 -0.16678951895514502 -0.6286624908485431
Ni 6.83790686643797 0.9857935007825387 0.4383621355401835 0.07642989812396514 -0.3697791419799309 0.4012880112214895
Ni 2.049974016895501 6.588710707830857 9.782581946384454 -0.7381909712986899 1.6460737228009843 -2.1956426526504704
Ni 9.305097390113085 5.150494440505719 1.8304083505848974 -1.9213504254259555 -0.3779025424180137 -0.924249365785776
Ni 6.216515925935824 2.2309722873829116 7.129754274091106 0.0015496038753070084 -0.24223262768580864 -0.08041099425890023
Ni 3.544895784672435 4.549837189095157 0.7191783092256482 -0.15127651092121044 -0.6605642246531462 -0.4863311049357624
Ni 5.700971607459902 5.523062884489875 4.903395346452441 1.6741370566961038 2.59683501883436 0.12597042805625402
Ni 6.509631050579132 2.2165817400969288 11.511361499695473 -0.9677951115872107 0.8434401076471927 0.3815478524800848
P 0.26665529187865006 5.896032331691626 12.223001859801276 -0.7693733104387653 -1.2140263189094511 0.9769582661437174
P 4.139683807170917 6.24688280595919 12.769119939506005 -0.16968535244570132 1.8787930116797191 0.6116824113507788
P 2.674035274278453 8.86230781450227 1.4580549901447248 -2.0370392690505437 -1.4190699962497881 0.7729510004876947
P 6.662531754706387 7.479776312165956 5.718545573471023 -0.08154922162840149 2.4096381398674565 -0.8274758710084523
P 4.67637193166551 1.440476467278858 12.775389260264731 0.2822474775158494 -1.0504812750335328 -1.087331868202979
P 4.391896603619487 6.416935511348142 8.335837981088767 -0.7394497834064555 0.9532102717945002 0.6344181623853977
P 4.606642940351352 1.44366626560064 4.131210791457315 1.4349365309683997 -1.3444977201598522 -0.2824721919321458
P 9.399242009153115 6.15123442485318 3.7304983011946002 -1.376242873781933 -0.5488261381461903 0.15962513999622188
Ni 0.6135203409858851 0.8535617784094831 5.3469923967241435 -0.6187519166030505 -0.6547543028395885 -1.4555480365711642
Ni 2.0056722750606926 6.602700251899244 4.801940621029837 0.8889617462280754 -0.039169214000293835 1.3743996499256073
Ni 8.484262031114138 7.399812625093623 9.811913509009663 -0.13079767424156827 -0.6566816017692884 -0.06489901466623016
Ni 8.551913096664393 2.562683971719783 10.224123855165978 0.8151872834490864 0.7498231562209795 0.6941577443378755
Ni 3.601756218185575 4.717210463893813 5.468442600769575 -1.4056817478683405 -0.6047404328153069 -1.2399602651663935
Ni 1.673431995573354 1.2362564650088734 7.428036872015701 -0.2918911712532005 0.5835751115916014 0.3497870151287202
Ni 1.3601117769889293 1.3611142850329179 11.744190347428047 0.23372587576637813 0.37359800150538885 -0.5903674519230865
Ni 4.3615844058530655 7.357807538050498 1.8522575577181561 -0.6020590293284017 -0.29907149105172365 -1.0476353209443057
Ni 5.942111246877142 8.218451580105286 7.97855778477544 -1.2083961172068671 1.0479217418364728 -1.2237286337988795
Ni 6.924313946120303 1.2801845447545592 4.948307706823134 -2.6728283436415388 -0.3108641128112775 0.023423264019946755
Ni 0.5602889865919846 8.096646852760662 7.835752336651151 0.18379505237420607 -1.2067992050333927 -1.506757983786076
Ni 5.321121309592592 4.583284502926416 7.6278932301814875 0.5463072283790785 0.16834375081614233 -1.0362149949225057
Ni 0.711827191150364 0.15110803747041332 9.736829301998707 0.34844001418252246 1.7122395199947804 -0.09278031445753054
Ni 4.958960721846936 0.6137126402561411 10.498063735040631 -1.7495056034350902 -0.538960301095704 0.8595519256073907
Ni 8.987311453878165 7.644123835413664 5.386608780509729 -0.58229675909981 -0.7139251567727898 0.38765705070161627
Ni 7.3332825458107385 6.107379254783421 7.089310365483756 1.1506943916200247 -0.14003770478259753 -0.512539387900014
Ni 2.3326995127192895 5.505983792904104 2.5556536562185754 1.033290107966227 0.17475736765197 2.0435374751803774
Ni 3.8080723736384443 4.836490693709484 9.821597736714594 -0.04406716552254346 -0.9076886332136175 -0.35785179441472564
Ni 0.8893622520312678 3.2078252391549693 3.7813600911208916 0.7415272347607745 0.6456731664739267 0.5257090925127527
Ni 0.1642928409907626 0.36011455996496905 0.2795830887913586 0.5141542977956177 -0.4321559044449396 1.0943566362602444
Ni 2.719029658034563 5.316090541953667 7.505828762116375 -1.2746169360083146 1.158974629350946 0.7099641152425128
Ni 5.254782618209013 3.3664584665519413 4.908304901755138 0.2648624492701826 -2.990536733068159 -0.37695869044750563
Ni 4.220403932130988 6.796986310824249 6.174266591478346 -0.16501931442859968 1.9526556632971401 0.4675147435602078
Ni 0.6740198786987037 7.742925560003493 2.2114324942346233 0.648041152485471 -0.7745080605621694 -0.5200236120922012
P 0.4894763752193698 5.888950979417269 8.202622889461654 -0.27246185888399527 0.48101869158391347 -0.5642463293560025
P 8.560552893261676 1.702358909497173 8.276773852620751 1.610222260320014 0.21611099089809235 -1.698979055440448
P 1.8602174715874262 3.5816331476298746 10.507507360815003 -0.23192944598758766 -0.26276597175247 -0.24431702101866307
P 4.02733911027775 6.783115244979244 3.895886610066158 -0.9953262271279439 -2.480447863591167 0.027589222472178293
P 6.812616322600983 4.16379868248359 10.371170823687288 0.487550064944528 0.3294056232588907 -0.6917761314795764
P 6.487876626024577 8.166585459393108 10.388911570582092 -0.2828781691213128 -1.262329119779897 0.11136424810730498
P 2.0591788634812156 8.533002149470969 6.034835949978501 0.08752909336092023 -0.4993704546182238 0.09408823463567666
P 6.628245979601974 4.413113319314084 1.754803750762017 1.0859892381321556 -0.3561841769043156 1.0328915869762276
Ni 2.4065205595948194 1.6563437902780924 0.6102448737948895 -0.020918495320222042 0.7836002526714246 -0.6266955969301593
Ni 1.2456162446559313 3.601081803683255 8.257165706651282 -0.20258261739435432 -0.706575401275938 0.9888426762861292
Ni 7.99126502991847 0.1718435493038955 11.43689064533325 0.2752481633798808 -0.45176005182911233 0.5408030107313976
Ni 3.004826473956753 1.8336874632596893 9.656876551377763 -1.2470919911151683 -1.031099013852179 0.8018062341564901
Ni 6.0768301005702385 2.226989596335429 2.6018464927727263 0.8022410077010635 0.7855620043834859 1.345271107990767
Ni 4.289604328294678 7.207349308066779 10.554647111785249 0.5859402693896683 0.15234300451251181 0.4802100796396891
Ni 7.147353758488802 6.0109562083706916 11.484123356140302 0.47571939085818715 0.9061467426477942 -0.0666854171426916
Ni 8.155047503177748 4.1599800382069425 8.13390187441718 -2.306702225033163 -0.7114687248124972 0.603094926792084
Ni 3.3234326440458455 8.635750110270319 12.623886599173366 -0.2705846964659404 -0.24074498739668862 0.27519031355875184
Ni 0.1455623452452578 4.993191814694404 10.212385397341821 -0.2309377714982797 -0.3260835008641933 0.5890718730401145
Ni 8.555348965142427 2.6426476587921166 6.154752316716631 0.1477255603451585 0.1254883462135129 0.32127656639385316
Ni 3.3904184088032707 2.9414770792861598 11.874191033717754 0.645907651082236 0.5614764799203491 0.35963254046423226
Ni 1.0024715891507139 3.658753357341076 12.834814291628584 0.25358430525320197 -0.07520605301919304 -0.0013297745550170646
Ni 3.078784226474645 8.43940435300039 8.010290809851478 0.7284922559536873 -0.6774021221460914 0.6428377539076606
Ni 5.55782257248781 8.301842021946163 3.874010973175376 -0.33221866722765364 0.9015069298829376 0.7658249309658746
Ni 2.6940125254822997 8.646522514888451 3.7857611014340016 1.2573969725856022 0.48171674609220266 0.039843871469815245
Ni 3.47531261271013 3.0205202816999215 7.744781111255821 0.803167633280391 0.36497272173022305 -1.4312508545866964
Ni 6.336051339617238 6.349512288535158 9.15218848364729 0.3661232903948985 -2.1313288210637484 2.141094899311577
Ni 7.871556455756731 8.66526941531104 3.3753926359657784 0.7022294656024164 0.3083382610656303 -0.3136337051366147
Ni 4.598777809060787 0.7572025279631897 1.4784095489214915 0.30410493971057306 -0.7283655005678359 0.35601345565440623
Ni 6.1301270736724724 6.115371978006858 0.4323334167120152 -0.6700415680159622 -1.0644053413137928 0.684569586428808
Ni 8.233006174162103 7.14891220281173 0.18540566039716413 0.31547975720641797 1.0282738856985583 0.6090606574572155
Ni 0.3732146059870538 4.8422232169792006 5.990431223226447 -0.031942614344867566 1.447541878437236 -0.11446114186507385
Ni 6.802500105066188 6.343588377366135 2.886323643560648 0.4117315751523167 -0.2883080818876325 -0.47159585560811684
P 8.383765156559019 1.8003950824897748 3.693297050424079 -0.035756074553686804 0.03522077087550708 -0.4386767362825929
P 1.661912266776975 3.4682677152737367 1.6965133762297697 -0.35443814074748636 0.5721743259538274 -0.6047278344098166
P 4.447535800060859 1.1459942862119292 8.16064605491795 1.2834134512540218 -0.7772686540264421 -0.47777498783563527
P 8.391448013659769 2.009773444331555 12.541359225621267 0.9769065869701757 1.3061782557543633 0.9950572897372735
P 6.464873623269783 8.117617498299007 1.6466659421698056 0.510467850082966 0.8106426015011975 -0.7141439576518153
P 2.010220016096605 3.486513361674331 6.182976563638709 -0.6831616503376879 -0.7277641195384111 -0.3936742034299736
P 6.940964693360006 4.1045686845028415 5.998460401287847 0.8896153206516743 0.2151357714690166 1.4103889235360227
P 2.6736889533178023 8.76510098907333 10.45179069784296 -0.3605555664991339 0.2299954621896684 0.4419183831483422
