# total energy = -340893.7037610631 ev
CRYSTAL
PRIMVEC
9.08069492219488 0.00000000000000 0.00000000000000

0.00000000000000 9.08069492219488 0.00000000000000

0.00000000000000 0.00000000000000 13.29051490934512

PRIMCOORD
 96 1
Ni 6.385825982194857 1.618016334830865 11.52747420742016 0.6781248592447289 1.1675137771702087 0.18035954433009582
Ni 4.69905062744425 0.15156496639968395 6.147009161212654 -0.627354570670397 0.7620130134189521 -0.8886215892798374
Ni 2.7136566289983612 1.5183193882251016 4.893328457287739 0.24701385112453592 0.2944777010334541 0.4532554054277162
Ni 3.4789140095710422 4.301588622440676 4.886523384714065 -0.12724595233456795 -0.45912266284177056 0.3569223406219208
Ni 5.134951212918013 4.666641628224288 2.469430438210798 0.46183183424281754 -0.46875144418078624 0.2368759913595856
Ni 7.337727960684912 6.194931619179431 2.446424498305005 0.20555301287658792 0.24520482294025514 0.3771795482090601
Ni 5.0374336330292 4.460310084297141 11.535076564984452 -0.023244315239921258 0.6249570169724978 0.5867542806505314
Ni 5.7034753438127765 8.04405163295343 12.324799153093815 0.00083303742425663 0.05156347389958862 0.3720825933021269
Ni 1.9910785132992646 6.497409558102645 0.6299277881448019 0.882642231767951 0.7141614411533119 -0.6422780247494486
Ni 2.570390509442926 1.5932896032881476 0.2724344606606065 1.2539892324556339 -0.12446350449342435 1.1931970408689256
Ni 0.5673173065752531 0.2888505404560249 4.418936623314795 -0.43650826787636443 -0.4448867217480467 0.8226064587312931
Ni 8.754670473793269 2.512619130054469 1.404874269913252 -0.21797632624160523 -0.12540684224330015 -0.8444523509617908
Ni 6.916765117916904 0.638310177379867 4.683164860216623 0.35496958777092413 0.16337509395695737 0.21275955792735615
Ni 0.8892124948770173 7.604600495869972 2.6137925976109653 1.2432268517328073 -0.2523182940565848 0.39452086770098505
Ni 7.538356828369375 4.085940285798571 3.647302778956107 1.5724159881055177 -0.4369522973923185 -0.33769743095403776
Ni 7.528740372730838 3.981739314644447 12.5391752844149 0.5988096691531687 -0.47027019481815785 0.09123173902348804
Ni 7.829075267715719 8.677030534501961 7.119290034645113 0.35110804793298883 0.5008416398471116 -0.08982148893952273
Ni 6.795201858584419 0.7727407810370047 0.5015812499058134 0.5022431481803286 0.815426396043086 -0.5772370851887156
Ni 1.7239426379692402 6.511312101617849 9.317342096983559 0.7779181146849828 -0.6569891057073781 -0.8652978269522323
Ni 0.18349813721977923 4.884433008804725 1.4298198461971297 0.10686893134011273 -0.1547958369283786 0.16946269491193394
Ni 6.549841489034576 1.8571745899320562 6.863327954086779 -1.1313463261107162 0.8723681035354524 -0.3385037289054171
Ni 3.2183525571704807 4.394638500559744 0.25180857082361496 0.8434989859095859 -0.058268653833906094 -0.045988808025288534
Ni 6.002248359317178 5.691062034220821 4.8417074323884055 0.2664457345969024 0.18315613323862648 0.16447526899967158
Ni 4.911466236789547 2.654995341533817 9.868924375862441 1.2614282052321826 -0.07837030967978761 -1.3578949674023646
P 0.33860003418717827 5.526892155571984 12.536065146495922 -0.023599127476178712 0.7732978423041521 -0.08684697969223108
P 4.13462188983842 6.218677635699522 12.63194275293023 -0.5628041975928372 0.17840987680289272 0.7581386180652104
P 2.708553278602839 8.450140297878262 1.7095188625808995 -0.32464008354944734 0.4335995788700016 -0.6283493304834985
P 6.32267883157126 7.739385246618613 5.87509865663358 0.19374136495364053 -0.19228174968897851 -0.6515386241157682
P 4.633088461477928 1.0678624492210504 12.700255910742463 -0.032549394690931044 -0.49365643495258205 0.1116115882314207
P 4.144329152423497 5.877152709764304 8.298610746187727 -0.3391231076569708 1.3172836216389054 -0.4845308185022301
P 4.8425165222820725 0.8717984467391294 4.072014132477268 0.14748901885432017 1.9743781425758964 -1.3046379078504369
P 0.222434339757004 5.779798582379262 3.518119000670024 -0.23209399658990995 -0.9514138420157099 0.49203124064433323
Ni 1.6089538015662186 1.3070570271008577 2.5734025758596424 0.07271465405590703 -0.21669668819823326 -0.35719667732923
Ni 1.8799398914295193 6.474026769368714 4.828258015536433 0.4736694503076939 -0.04577334958037278 -0.3699866300050467
Ni 6.087743099484157 5.594034811843321 9.264843876980654 0.16039981337871728 0.844788651255287 0.5598813675190873
Ni 8.392813872527848 2.2140640512217638 10.145168187930382 0.582414772734913 0.4556208203360992 0.1797332236000066
Ni 2.527166402890104 5.223024870366715 6.901631232206623 -1.4644435392885813 -0.5495769002692857 1.226110760877811
Ni 0.6428723183740136 0.2218150363816043 9.201169137997661 -0.31395509303177543 -0.7991945075652559 0.3895714941155097
Ni 1.3349892438564208 0.6956275220356258 11.496520843553226 0.36785081460896646 2.4384841175648715 -0.4877102446714762
Ni 4.467901545027846 6.8777181309049 1.7928369602393253 -0.8881379647751996 0.6992143329251764 -0.895581051316806
Ni 5.400824871691138 7.972986116591585 7.988090944078972 0.3339004258054508 -1.0107844706645432 1.5094661267458582
Ni 5.534474535608036 3.0764303804238304 4.512302509607821 -0.9049948884315381 -1.1588031367700882 0.8752140576246799
Ni 0.5439336097718558 7.132967376932899 6.858250937705754 0.5850054162802247 -0.09376941784367722 0.6934301221432315
Ni 5.293600029217247 4.425004343482567 7.043454429381546 -0.45570618096105386 -0.1412975453316276 0.13517986246966396
Ni 8.401485935922375 7.268533067421781 9.339775953126153 -0.5043257417409702 -0.0736991294563634 -0.3246071734289829
Ni 4.722124672559948 0.24282231539406193 10.448430698871697 -1.7355254871059143 -0.49318849417722804 -0.3172749014336278
Ni 8.38599427084273 7.32077430376598 4.758801598267269 -0.9729486307636923 -0.12825073944999849 0.12027003523736708
Ni 7.14645220849402 6.169106123583585 7.117535644437969 0.7932724856538661 -0.5542385674110132 -0.14370924009691377
Ni 2.7373844841291435 5.069670099050736 2.659512079054694 -1.1370266643249451 0.9034637964989924 -0.5787751190997967
Ni 2.2713450730989067 5.168840365366571 11.442787649077385 0.010173855209208285 0.2326161876419671 0.2833322259395959
Ni 1.067971417556898 3.701245737478456 3.817287934461337 -0.05022367204224254 -0.7086016876773473 -0.2731396016773102
Ni 3.659302008871842 2.763019285137256 2.8964019766313274 0.31980923781970727 -0.9024893484008651 -0.44341579362947503
Ni 0.9477702624225064 3.3462632220660797 8.198679517659894 0.04483901069156149 0.6057858433606857 0.28154196680839255
Ni 3.485497513195159 2.922594332291193 7.124008363587307 0.1264512243474145 -0.7075909870246458 0.272785303661685
Ni 4.082416976272837 6.81008511712225 6.262423882194946 0.6586418108194527 -0.10434950735236867 -1.33533559404461
Ni 0.9531551143523012 7.462051751192198 11.404444415901063 -0.6255684253042516 -1.0559728942757234 1.0467315781831135
P -0.018866051213055218 5.514860235155495 8.22056853212325 0.48567418807805385 -0.32870679741965325 -0.3968034930875746
P 8.408269214828879 1.5760181220563265 7.944431872252226 -0.5507015007920323 0.6150233027985537 0.5991068886786134
P 1.6192331479144946 2.9852965288767463 10.460312787826396 -0.29858863787803414 0.7834025348383218 -0.014653231136800572
P 4.115615995927694 6.1516621091533406 3.9228809761059127 -0.34426865641365223 0.7603019442651164 0.10136677057496091
P 6.795192777889765 3.8847847378241784 10.472526322135964 0.3441313595048396 -0.6810433184431046 -0.7241046684089529
P 6.434026309418045 7.834678056317209 10.153089277877026 -0.5724977707315172 -0.18700044668538116 -0.19828039047457463
P 1.9627558266735816 8.508120533243758 5.820222202700804 0.9687420488815123 -0.20086152093818954 -0.21647197378193686
P 6.97136733487113 4.157487078977077 1.4084093843420364 -0.050908613924409096 -0.6269172260226623 0.15632487197839529
Ni 5.11808836294562 2.9117792249583334 0.47382792283493325 0.14264583182940593 0.047932819125536805 -0.38909146915529763
Ni 1.2191104993773114 1.0792950437903788 7.103792921148675 0.9458512603262678 0.27728833373836115 -1.4795526270158779
Ni 6.561782602504527 0.7250126499358216 9.020803840433496 1.03451986660827 0.43073536994832917 0.832457897604076
Ni 2.6872499689446627 1.6518873258901139 9.172913648512418 0.39930131980876393 -1.121231092053585 0.0932125168989427
Ni 6.30182955664578 2.207616758017456 2.43907549212156 0.9472640815133945 -0.23543463092736874 0.6608645295023845
Ni 4.242110072457276 6.757426168823969 10.543099664847565 -0.35625102558650906 0.330515825603934 -1.1723505364372198
Ni 8.646946193113411 7.187651320139011 0.5762590666010018 -0.9219274025208186 -0.4939341140940009 -0.9218975777241477
Ni 7.544595265596642 3.8780468623909443 8.248877597706953 0.18316718898222 -0.6122190005805392 -0.15640303351449839
Ni 3.1986202076874384 8.373562799861466 12.378093750017873 0.0633974904200392 -0.20229516806092257 0.5772571397933736
Ni -0.06891157558992753 4.801281087858467 10.425252225767478 -0.018678036025477508 -0.7157102736976706 -0.4550348659256422
Ni 8.63652155565067 2.4128041344182054 5.714336762688371 0.21202936462955094 -0.09576510811746732 -0.6207422075602018
Ni 3.461361026804949 2.6758809392379117 11.703932990144196 -0.7931989521034534 0.11960411951859402 -0.6172629907623499
Ni 0.9266939701306787 3.2953750092253205 12.594928933451248 0.025418182962788482 0.035376322616764884 -0.09427361117360539
Ni 2.9222946693676124 8.305003555224111 7.78102477195432 -0.32924338664941366 0.5088871358594075 1.0472879649072158
Ni 5.8519901048781975 7.741482887083676 3.6115112209775466 -0.1665025838423455 0.8285925011113987 0.08066193392744173
Ni 3.392747297999671 8.37414396431932 3.9650126750918635 -0.8559768066616226 -0.631065700973397 -0.313618278517647
Ni 3.3018767865975516 4.308353739957871 9.420980973138604 -0.5514491775913342 -0.3218818040780198 -0.11586033620544561
Ni 7.460262854345369 6.421168045788045 11.53820032394541 0.26260142115014773 -0.4836054784744833 0.08382413370550726
Ni 0.9037851936576831 0.011870284051648911 0.3950183900721957 -0.4935764736442661 -0.4916412042947662 0.608835685930603
Ni 4.794951843684661 0.32699853869728646 1.8041869204873027 -0.9879301917741888 0.042363552567875426 0.0027220269168533764
Ni 6.170132242079482 5.852643914893282 0.29237021770389754 -0.5858119713419201 0.14659196096134752 -0.6565278498002435
Ni 8.084733145003145 8.93460443836137 11.241037315603156 -0.2659991339777871 -0.10465238330476814 0.17911075952465927
Ni 9.073094112528826 4.840845674465745 5.795634405786292 0.03332355385279422 0.42617783248463376 0.2750684432689069
Ni 8.081509498400992 8.833454580610976 2.4219175195729137 -0.9563891837431142 0.6613227000857256 0.19719049984450557
P 8.422180839038736 1.744383281635291 3.340676778714967 -0.3480024124244716 0.2866808306968546 1.4870659046737873
P 1.939654539473922 3.3160245088684124 1.5690777471323094 -0.7760172981178443 -0.9346744177738419 0.40108129452732216
P 4.608951975087717 1.2295987017026284 8.078891534132257 0.361341552735539 -0.2860385691271654 0.250575086113233
P 8.547303730675571 1.5655753232042795 12.61445242695725 -0.3707263363845486 -0.37415130290569754 -0.3596572230545806
P 6.52263572785133 7.874987259886111 1.1445316622538508 -0.19534856153976032 -0.8508271441398831 0.9437820365020649
P 1.6816720043550837 3.1746199317170376 5.992586500205371 -0.23721563408719146 0.48682527096336153 -0.3658301846345119
P 6.97232988850445 3.984626975544405 5.804804999317321 0.9630138881484834 -0.4419590065782904 1.2340217881947715
P 2.52442403310461 8.390997733597057 10.180015353664931 0.30683467993691027 0.49421744966237463 -0.41968502567143856
