# total energy = -381169.86919619114 ev
CRYSTAL
PRIMVEC
9.26030713329069 0.00000000000000 0.00000000000000
0.00000000000000 9.26030713329069 0.00000000000000
0.00000000000000 0.00000000000000 13.55339553575650
PRIMCOORD
 96 1
Ni 0.2855239694078743 2.167485959165503 12.088042580143911 0.2860568239596106 -0.47579086752607086 0.650702501367718
Ni 2.195424305154183 5.241018868355662 6.343964946406007 0.5212014344503862 1.3921181502512927 -0.9624485025633166
Ni 1.5464156944095326 2.9983855185046657 5.288196428008937 -0.19492612929036107 -0.2769450914663295 -1.244703950498966
Ni 9.185724411695979 4.465727452093073 1.4772523140581075 -0.33680551526738767 0.7871308915325024 -0.07255010345358473
Ni 7.640494036572675 7.293158444480069 9.565037695657365 1.1270065610847817 0.6244931899622018 0.19094709003795501
Ni 8.274362045497142 0.4813803868739573 10.065049820061725 1.1730915283683023 -0.18281700473165288 0.6302468046165274
Ni 8.505980842271704 4.463495718124472 5.8443463850459025 0.7845592741505844 1.6158257225497206 -0.31664241005595145
Ni 1.4982157968718868 7.048890068447788 0.05476082499305827 -0.587791206555478 -2.010113648304293 -0.44541996854369736
Ni 4.371698295590239 8.263851597138789 4.552775263206161 1.8514804399076954 1.4645145017358325 1.7260527717287883
Ni 2.1899514637623003 7.8568611078439705 6.887672755060343 -0.4105542670147639 0.4657201135536302 1.2615685874647886
Ni 2.8602587804313666 2.1508729685444585 10.913302268545133 -0.27590533734790545 1.471247449584292 -0.13694338212798995
Ni 9.081666342794822 5.933421277344579 7.5584708679963635 0.08337676175544351 -0.3885973031276985 1.0130506409909006
Ni 0.3823932620441953 1.936163492212498 3.2548071213435565 0.06707853881605222 -0.48001493290974745 0.10919937924550226
Ni 0.8554745618531693 7.0385463056140605 2.2493618888617277 0.12039499085100555 -0.11545410190596245 1.5665716135095988
Ni 6.381759037053536 4.398877296411178 7.315621170984788 0.6143219058561549 0.9594922481484702 0.21132436814272634
Ni 7.294695655429396 7.763007897172685 2.082031846873977 0.7064545594273576 2.251973723142031 0.9702880532123933
Ni 1.4635822489774017 4.5750083340991745 10.906837648281726 -0.06786195394929602 -0.26665707927676013 -0.5608578724997438
Ni 0.8351259634191207 0.19880397315988366 1.5265865991939014 0.45048915553648866 0.3863018222253024 -0.20099007609625386
Ni 8.873513163764812 8.37247499735331 7.773658176165585 -0.06578450259497702 0.9120078294142617 -0.8640624118832344
Ni 3.7514892393781683 3.604991183845881 0.15486659489919818 0.45838629889637833 -0.41186990050239386 0.1761323936226257
Ni 2.205092065582483 1.2954058149368284 13.152458373146295 0.7172709333165712 0.7160524875284379 0.4349573784494767
Ni 7.2331609159216805 7.451528213488486 11.945488489330412 1.3890418253188141 -1.892009253259677 -0.7479107696896152
Ni 5.244917457570523 1.3311505996621524 5.177952474082774 -0.32705846318295284 -0.8368362291774298 -0.39980551313869206
Ni 3.3748725567929516 5.432586837685399 4.315305804517231 0.5585233108292962 0.054762954673492785 -0.43245003864659065
P 0.9305775030654295 5.837336332704692 4.539953442239663 0.4479615040186285 -0.09564015250382883 0.0654155492913325
Ni 3.377715471018515 9.2175150453649 10.96689259074304 0.35639140781911527 -0.5775875265495989 0.5203694254673941
P 8.617641623157185 4.242257725411331 9.298916847346636 0.21105363097984295 0.09376247586514175 -0.7941196641455097
Ni 6.460008630558456 3.3779932802262245 5.230960322975185 -0.8199376536498783 -0.6636706314926119 0.3565647001721859
P 3.17377573163877 5.316684836228882 12.346641281140556 -0.14576535129499413 0.15952589541419623 1.9081274989777783
P 7.3957256039665165 2.2789244926848173 12.861860681574948 -0.7487363509147041 0.3257366590477358 1.1975959412675696
P 3.399347547992183 8.406089911486193 2.3949394698858035 -2.032723672394325 -1.0030176822349306 0.16888136848716723
Ni 4.989934906427569 3.1605520133517846 11.857716522215892 1.0363072975259957 0.03316003169173644 -0.379750651370346
Ni 0.2523415116083266 6.66455028988824 11.379592985286989 -1.2914687174583306 -0.2570460385495573 0.322116031576013
Ni 4.216727059222803 4.322507545211762 2.3143099775015035 1.9107657079315736 -0.07912055758225083 0.7542781066685398
Ni 5.181345450539603 7.159300707898576 2.8394638352035972 -0.029989347273238674 -2.592397037667664 -0.8479809329403395
Ni 1.981640859514588 4.020278908144298 2.7250999707270998 -1.8732304299902771 -1.2898365811715464 1.1064032830121333
Ni 7.454472991090211 0.3610723313831626 6.195500927713827 -0.13369402195275684 0.730623186253761 -0.3680073947914888
Ni 3.0615778529517157 1.4178178121606784 6.476869797405055 -0.9449380044833791 -0.4124342576462961 -0.6892947598186193
Ni 4.741693858725038 6.062806285681945 0.5725129193710715 -0.7737516420121191 -0.12059348001505685 0.03478342622777235
Ni 6.739132801851389 7.1388817311319075 7.470536845510682 0.3072236878452128 -0.41774949921162247 -1.1692315311922636
Ni 3.575589709363263 0.7872251737951091 8.630504189474149 0.28843072350842586 -0.577639977054089 0.4846022951701139
Ni 8.391523448695278 7.39383650135409 5.631463041239288 1.279252892118429 -0.9226971908073077 0.6903378563711531
Ni 2.6618659648988934 5.689578875430787 1.476547604701217 -0.22146454190052184 1.2862923154637138 -0.7182021868815889
Ni 3.294576435457903 1.2633188514463494 1.7505971277999852 -1.2549716509735613 0.24371152622418027 -1.6083605245209267
Ni 7.723077453717867 2.397650887753051 8.123064372886322 0.16351907573398933 0.12722126974421963 -0.1925892536270683
Ni 0.7370482007292621 0.24045868576388715 5.748049379377464 -0.381274287103724 0.6439834374763297 0.7540351374197981
Ni 3.569477906793648 8.296077465233122 13.52203259231607 -1.3425997318061909 0.668389634234836 1.3861897005819996
Ni 3.8670671300923583 5.053497653151565 10.429391965819631 -0.023055339157566745 -0.9476237788456583 -0.20899366312702072
Ni 1.5902632476930585 3.932241170221071 13.23148861052488 -0.7834493289158573 0.4282653111412818 -0.011557365820296227
Ni 4.153914397359623 3.41414551845619 5.689620546811945 -1.0232700047260634 0.8846188958783474 -0.1510800786396882
Ni 3.0172209827873884 3.447723391361378 8.706240535679987 1.8200456184371816 -1.7585139775812875 0.32718264746564296
Ni 2.252477056110847 5.524578726665029 8.68897284135944 -0.31878671009246384 1.2140304326745093 -0.16072865747304577
Ni 5.336131480768566 1.4403203579851702 10.108745504311702 0.3240374169684419 -0.27141053480134547 -0.015122457463735245
Ni 4.776207022629516 7.20929710497941 11.955368310787264 0.5075897572042226 -0.8648949350868589 -1.619281542308805
Ni 2.2858789831844852 0.6884112167048198 4.055622721579828 0.6031640894671225 -0.5146752032960943 -0.3302360895799861
Ni 1.2827377150652626 0.9056598691952477 8.18828378851896 -0.0987100496784042 -0.9206469931464983 -0.968631748555893
P 0.832044133274927 2.5547056931783096 1.2140003088323257 0.7308784967976767 -1.6463660572304228 -0.25929832491884375
Ni 5.308683931046841 6.393741874212751 9.299553956462983 1.2739685037910382 -0.09907900298204872 -0.4185671100169114
P 5.862987382883229 8.343712484048426 10.37813246287441 -0.6382290514910557 0.7520019090398533 -0.5123576109065112
Ni 4.955514345592329 0.972239623914972 13.44831591905028 -0.34612859244052646 1.5204105415725042 0.2891640021300246
P 8.543309139480973 6.64638156770402 0.7750960237865004 1.091442805047559 -0.37799381658023934 -1.4263626732564596
P 4.6741862212515635 9.134116721210427 6.7368510622254 0.08210715101440053 0.37821878810685183 0.8984977107429687
P 6.012948793204965 4.673019422579183 3.504176074429388 -0.06143445315639743 -0.10902505845116707 0.10875226440575464
Ni 7.215205180796706 1.5725853217757935 1.528050653718532 1.4913933284045475 -0.9889115818508518 -2.0412029135099297
Ni 6.287989169144565 6.006651784496876 5.193607022937221 -0.20727848020812692 0.2836451291943244 0.06141928364774584
Ni 8.241867628502021 5.877609407515686 3.5448501205301763 0.8901028018110542 0.8323738225307019 1.1633745581908546
Ni 2.5569189065330638 7.028091419097248 11.112971154371685 -0.8120759915136143 -0.8754955934208407 0.7958685285158165
Ni 8.605797690601825 4.5599232941205345 12.418488298438458 0.07407656740044016 -0.2325683651231672 0.3240597855659451
Ni 3.4252578867645807 7.594961107429042 9.072304172495002 -0.6478874005164261 0.8871563175882206 -0.8296924190437969
Ni 9.073100558890436 8.744702294456713 3.7026383422637896 0.5315298129595878 -0.020738003878299768 -0.47380571877524214
Ni 2.3622394740769783 7.5545120867865 4.627304991419847 -2.723067185192433 -0.4876251411568375 -0.9040975734282495
Ni 7.206722739654634 1.0311259156425205 3.630494069113638 0.7484787263779432 -0.7657475407607199 2.3178716113864213
Ni 8.37262316226409 8.80196803247262 0.031837861234232455 -0.04767699436098886 -0.12420613706697964 0.36284384831267835
Ni 5.178252508027102 0.23042792130417958 2.398598217151341 2.4840741474898445 -1.6920273067129632 -0.6251467643858009
Ni 7.220483555743191 5.341206128962731 10.512013350223212 0.5731883690406386 -0.8781924235267133 0.7599936689960782
Ni 5.993279901299113 8.133447955039822 0.1798490509178458 -0.4294878706944733 -6.119225523860429e-05 1.4973588019593633
Ni 7.6963429476292635 2.7202614603594877 10.82548955608015 -1.6370334669755873 0.6711232311159152 -1.3006897218359663
Ni 8.001636746288458 3.5428174831604333 3.56038243333323 -0.018477232868581082 -0.36574919488493135 -1.1761889363467033
Ni 5.725249577700722 3.9027748735899874 9.58031257192794 -0.3555496286441102 -1.1909586384567104 -0.7522942434692914
Ni 6.056814867102338 3.3946710929957344 0.932228615789918 -0.012195513624927384 0.9424275793566996 -1.847546652070928
Ni 1.1579921204966503 3.6523298728396263 7.433915109719687 -2.321374996553989 -1.22713226016379 1.5193713016747123
Ni 6.952258765699404 5.477341901047444 1.722148538899812 -1.5905227250085576 -0.8687924703690522 -1.588662274761051
Ni 5.415538612638943 2.3227072238198776 2.8817093553893303 -0.28800494882491695 2.1722366150217045 1.3965664158306335
Ni 6.701156283157464 0.2976670098768685 12.043560695836115 0.04160893379003802 2.6898120226837285 -0.6832493249554878
Ni 0.6002447605153535 2.471585178231545 9.646913625353589 0.1568144100203041 1.7562097549281432 0.05229675252118736
Ni 0.8582998814955777 7.288148618434369 9.217474300014437 1.0110120132943168 0.7878633988231527 0.9529225653507524
Ni 4.494462184477188 6.894511491723467 6.761856669011356 -0.7628532499320604 1.053236983401799 -0.766369490615435
Ni 1.1048749999825418 8.68843666958856 12.34401228000493 -0.07586862630385643 2.127546471203181 -2.1248889789756755
P 4.35335362757447 4.955968100631588 7.458609570193008 -1.3449571762947738 -1.7059256619616106 1.0561207327074973
Ni 6.732391298410966 0.033310250035094253 8.522618835721442 -1.8286045637507862 0.6134569867526983 -1.1236898380067228
P 8.477598001550689 2.4164956123426973 5.671919470127369 0.6715886007881079 -1.9880412418852857 -0.3324528947256468
Ni 5.167010495421779 2.244698398294973 7.543630300120507 0.7967349902811698 -0.28638361117141004 0.526483508784932
P 6.991161315085696 8.123604248779971 4.283415159533534 -1.2670483796324372 0.29345774440937206 -0.6188483329715987
P 1.22771297132488 0.5389813480005018 10.360187840117742 0.843735013179792 -0.6156339397993591 0.8550645792599983
P 3.3039756469854176 2.465862308552724 3.4318419649873024 0.13966155239010142 1.4423533922577612 2.3353057477024683
Ni 6.410632674041506 5.4477737410402 12.771703259396896 0.12738633456717416 -0.9735374133876266 0.13210533730939827
