# total energy = -340862.99675656686 ev
CRYSTAL
PRIMVEC
9.28863656810523 0.00000000000000 0.00000000000000
0.00000000000000 9.28863656810523 0.00000000000000
0.00000000000000 0.00000000000000 13.59485852719727
PRIMCOORD
 96 1
Ni 0.48640037528538654 8.974113907504199 7.107786273936153 -0.23129155529327264 -0.0040577150091413985 0.8699893188906307
Ni 5.779872593045414 8.804280479100205 13.156886278320355 -1.773262853755688 -3.466747204630152 -2.1265740799875825
Ni 1.017728027233672 0.03736725547617749 3.6427830654010847 0.6976374753563598 -0.19986521846319127 -0.34845878323559987
Ni 3.8530285643015385 3.6875329291082566 0.33585944473717294 2.2941786386448553 -0.3782794661414582 1.7737685897475128
Ni 5.897215937008861 3.046180449836182 12.72398566225497 -1.1981453860131366 -1.0979101579394575 1.1101892324171267
Ni 6.282675771394604 8.564782277504897 4.6742926424992834 -0.8136078547771085 2.469453312252876 -1.5464925833715366
Ni 1.2949752472622449 2.3157499472434835 7.303076139327896 0.33053356621574687 -2.447785597471455 0.5397807401144704
Ni 1.4079064889235753 0.5824067925157983 11.722384565583264 -1.039409076379771 -0.07869658267095479 0.33911308035464177
Ni 6.322858412571354 6.189037027589055 8.02497688709105 0.03381052079154177 -0.8880911706976641 1.5298914844797458
Ni 2.093602918491026 3.806771154902507 4.557540055812499 1.1044163344890916 -1.7807802451786554 1.2897288519490884
Ni 6.741599431269696 7.16862591365959 2.799956346605165 -0.3910989865036297 -0.550117346153788 1.1105162767392422
Ni 8.130742874613743 2.7299209568204748 0.3618118949100433 0.7188945849629231 0.22316198420760278 0.015215531398173795
Ni 8.269710164175773 2.344293926979071 8.066726521232782 0.07802732451807207 -0.15154493409124867 -0.8632900524935841
Ni 7.130988358863431 0.8270861955092538 12.362497940756176 0.6745911350598576 4.740680227197565 -2.0245984721840298
Ni 4.555063705341459 6.37212534017225 3.246846577991009 -0.4484096472996406 0.1483876194091896 -0.2473177555181999
Ni 8.621758773338964 5.770639688438458 12.664630346632329 -1.1224775628661765 0.7148957482161753 1.9496862962561714
Ni 7.492994386274766 5.900838505214809 10.579926870700582 0.13372436097006 -0.5863223353194355 -1.3959213260474668
Ni 2.2892216016122315 7.842841588605113 9.045093951613364 -0.762844765291628 3.183043197173434 -0.005894511107564042
Ni 0.4997732251471909 7.494703495377061 10.877069421088951 -0.96247087116082 0.657314607367597 1.188153050687115
Ni 8.142344381509204 5.294959328451751 1.6970868201679985 -0.5680407634014282 -0.03996445620807956 -1.0026471862693893
Ni 5.626322144295335 2.902986830700546 8.301577618024409 0.45019399289357304 0.20592710838655504 -0.6751727185949404
Ni 7.953283475704407 7.585945770984829 8.966679282909222 0.8373370800732483 -0.49879812705452153 -1.6126126149290616
Ni 0.04950378782974668 7.257109464248983 2.2951793330155525 0.6276510188648933 0.588430897022006 1.4108563500907443
Ni 3.919683819290986 8.9289246912941 10.665886698773164 0.49699758351067314 0.9903406009878944 1.2237525450582796
P 5.158630011634565 8.245476111741622 8.818984390561784 0.2796601764046474 0.22098348849904523 -1.4167886564147791
P 7.915395127724758 0.6488521243220295 6.460888478718051 0.48803034701505627 -0.7321000279096037 -0.1327673963734294
P 6.5632111687178085 4.681129078908458 0.35066274460850566 0.4311773425817542 -0.11654219276381865 0.19316620917646085
P 2.2522714059115594 7.277637350749355 4.80016759901956 0.8902768654950731 1.4300154395176985 0.4776405191403
P 0.5722524551754324 6.4600144180304095 9.086490617570925 -0.2391753289167236 -0.45289030877881353 -1.29012788715972
P 7.406749397063922 3.177558923438572 4.686745917354962 0.2963684902982638 -0.5912781366628139 -0.34291085683417716
P 0.4350370024432531 2.651747792663396 12.076217521803796 0.5917694744769356 0.3353659546073837 0.01275035768713288
P 3.6120627581510014 7.82771039986796 13.189011027397976 -0.6842777662200021 0.54543048220108 -0.23796845309281597
Ni 8.665656869085918 0.2801294839114081 9.658861038428963 1.8818469680146945 1.6300225828753927 1.2377059219145778
Ni 0.28137044573785597 4.576539032757234 7.895526734410596 -2.762719252366416 0.5643903111330344 1.2500474741990666
Ni 4.911004253166938 6.616648694073757 10.034935634570372 0.2089304139892531 -1.5078417037685579 1.1876419153786515
Ni 8.153035602034965 6.498469372832015 6.51560783590072 0.8888470750270822 -1.4754512032529945 0.7062252170253708
Ni 4.616340839840537 0.4267227439787807 6.655634958878902 0.49025537969083305 -2.2176299555548384 -2.119297858041144
Ni 4.684538008476618 8.39661151502107 1.3817682660221946 -0.6772110891812079 -0.3626224763304916 2.1797162112282007
Ni 6.377596347026875 4.393943017904591 3.0424882168570426 1.7204932753631401 0.4567436210866327 -1.0726624391162625
Ni 2.761883154760649 5.844019916199974 8.80249427431558 0.565714943481729 -3.913121823777635 0.31107520038081904
Ni 7.722302953711291 3.5631023555521466 11.56748447796056 1.7539484696977923 -0.012672196151029788 -0.6181392227197161
Ni 3.509571943831942 3.497227346022442 8.520495916755358 -0.7227520110358004 0.4251349930424162 1.123780083727684
Ni 1.1178130847185244 5.026016149387583 11.496111524530598 0.06391376793482541 -0.9821099855479861 -1.239389480264588
Ni 2.7023801498188424 3.1715305983984177 12.166079506038734 -1.4307993688715746 -0.8209236717122314 -0.7975040072367103
Ni 8.175411927184014 1.9840341632157297 2.8639067506675047 1.1602501536292598 -0.6733912012144855 -0.5014229662718783
Ni 2.5520157033627133 9.261430009418023 5.899720153389177 -0.8677768846203442 -0.14876737134611154 -1.1998032333315336
Ni 3.6726618221910177 0.9825240951809953 13.030916577708538 0.6231428465818946 -0.10379312062826641 0.14605125796652912
Ni 9.28852496187123 0.10621834411661549 1.1122928480908445 -0.4587560235309713 0.22489413640736106 -0.48156247990252554
Ni 2.6620581790957107 3.048307547577624 2.3685642050952813 0.8420607108011627 -1.7378515641359298 1.4445414010480155
Ni 1.3371085020883504 7.722916003715374 13.289572591931456 -0.6617029662432797 0.5564252906496869 -0.3818137045469618
Ni 8.3848613899428 5.8643713186082636 4.109331766917875 -1.2406081831630376 -0.5741445623063209 0.29097868674126015
Ni 3.800427016223885 7.320755201036565 7.091064870642953 0.647459311840072 0.18677264694529122 0.18620520447759545
Ni 8.680007812363328 8.140505231496952 4.910829626802138 0.5957222884770965 0.5975482859422419 0.8067682061474558
Ni 2.463894409593916 0.32893569514559906 1.7207282575982024 -0.1298767050891957 0.45701127292572263 -0.8486761592351514
Ni 2.7588457706495078 1.8656319146997749 10.252847973976442 0.24663538473919458 0.25082885399525184 0.2866926577713966
Ni 1.4075442321029803 5.695986917486648 3.712457127228823 0.8252613798556366 2.304922250314605 -1.1426350116506578
P 8.618479884680761 8.851271690776851 12.49556415959708 3.2148197182540827 -2.075710460368496 0.26935468071358126
P 1.884014126185856 0.6191777175334581 8.785541583975384 -1.920380091092886 0.9138641658967099 -0.7085106706254378
P 4.369448883650525 4.296802458166625 2.4972935595891164 -0.2588643227052187 0.9810164953734909 0.27892432667988737
P 0.7700985533114749 5.786411793088971 0.8699783319313235 0.7422414872189798 0.5924351330853925 -0.43417602019876195
P 8.011486071546642 4.113556238764196 9.459016954597793 0.5523256666590164 0.5469068096362905 -0.9575425806212672
P 2.4830011347211864 1.734253441097385 4.481871108035738 0.49011576878917534 -1.2868332755688483 0.19874730280866415
P 6.388027485732721 6.848056493342447 12.021592908712668 -1.05603820029602 0.035828579662835064 2.0547451709707385
P 8.015888885212334 9.087946146898803 3.082987600535902 -0.6868943779072428 -0.19890028344676067 -0.6424896265396226
Ni 6.60179616442937 0.6851010279725758 8.617712643312014 -1.2894606858893665 -3.6173827395332543 -3.2855829050105734
Ni 7.205464645723156 4.118692854707502 6.797225359367494 -0.28289282440933217 0.3699087255792597 -0.735233945552895
Ni 6.6344271441921805 0.8840626913433219 1.1137344444640835 -0.13626049712835242 0.6851501415226264 1.3713297527510317
Ni 4.043529208752289 0.7875741938824263 8.613117554872314 -0.3248807388053437 1.3068621691952655 1.016334711058811
Ni 6.0635939926625655 1.6814010998362428 3.4245716319021158 -1.802364656217651 -0.331607516006216 0.37626886346933264
Ni 5.320670274077558 3.9857074470034997 10.459394737852259 0.07834485575849087 0.4652611716393406 0.1103401777181648
Ni 7.595958921051526 7.725823346916559 0.8826647515612828 -0.23773371137419058 0.28869631846498667 -3.057227035306857
Ni 2.104052634469723 4.299059596818023 6.915881187657866 2.9906544895929463 1.021251688744454 -2.1046862787755556
Ni 2.9326918899893215 6.970462144157795 11.31979927221981 -0.9615213627633568 -0.539452153130458 -0.41758469149898403
Ni 2.4316071093788487 7.145952352144924 1.7832101282416692 0.8255681124627782 -0.20718977714906253 0.38472470754616966
Ni 2.666553879125657 5.63152378069362 13.194149501068567 -0.7247680130245647 -0.27127889431948765 0.32259425676401215
Ni 4.7359320338189566 6.064857247216435 0.44213073408141385 1.9667553359233163 -0.13025594280548533 0.8715623198047053
Ni 4.073763720317318 0.10405037637490185 3.533479965127558 -0.5478226365823403 0.2506912999761231 1.0717062458505802
Ni 6.149263086415029 1.8469524668480775 6.28124625024872 1.7948241248662313 1.041776548170683 -1.3253262894377238
Ni 5.257999844114653 3.583351582959755 4.8418763631610195 -0.5420165714235246 0.7247394737794745 0.19934251319050186
Ni 6.497726281917974 8.46087959044916 10.657784221219192 0.17826075281953815 0.5395467697267933 -0.14939523473809754
Ni 6.520966450254596 8.096922949388468 6.8596394229650555 -0.33597222073281496 1.7399678391479838 1.189422661428158
Ni 0.20079524020114134 1.7621472162831864 5.127369105744517 -0.4284663714084943 0.4660206755131845 0.38730815200262975
Ni 3.751494479534307 5.557688409747254 5.3501208247282745 -0.1578575065728378 -0.1299206709532537 0.47301304767061764
Ni 0.731443892826722 2.8923513419933387 9.679621140839973 -0.4257859963628538 0.07565445341052132 1.0421755833813149
Ni 1.524265237425918 3.7882867684157455 0.6374651849279989 -2.334892057203817 0.1735980572365462 -1.7020736352053718
Ni 0.1852005485063554 3.866980096212652 3.0918647503677597 -0.14309166111757293 -0.9229555866750169 -0.514864436488765
Ni 1.3165806155879771 6.484081275008902 6.69179747821069 0.31818172951861334 1.4344961009968713 -0.14814182194697068
Ni 3.7554885931972755 2.6591322586216752 6.24228320703464 -1.0138183723948604 -0.6840018868507962 0.4402278828197967
P 0.36097591763174747 4.695944454007143 5.4842608099399675 -0.5711548835503776 0.633742990695244 0.9369557576088509
P 4.925754607810645 4.944508364753746 7.227054223366965 -1.9084488868729388 -1.8979310180607507 -0.7717117287639548
P 6.978329619210202 2.0981450617030997 9.848292560827137 0.8249358781954179 1.7712607357239947 3.7871066585263744
P 4.430270874964754 1.3607016386091417 1.6305811122250014 0.5726602644513106 0.010603229437143029 0.27066594332583704
P 6.3657347583115005 6.541856593575564 5.200998268962236 -0.2115285137337325 -0.6914380314138672 -0.8495871010851949
P 0.8674174548688109 1.9571528494003085 1.6194876937420166 -0.7553392009432024 0.822664565662738 0.6433229210741952
P 3.2946700514913814 4.751072511192535 10.904531274680966 0.3806849902591573 1.4364244283678358 -1.3633917288508777
P 4.711995217750422 1.9524063561868736 11.146043252653325 -0.6551623369112846 -0.8595436980772745 0.9521733458895538
