# total energy = -340861.2493303401 ev
CRYSTAL
PRIMVEC
9.31817393039771 0.00000000000000 0.00000000000000

0.00000000000000 9.31817393039771 0.00000000000000

0.00000000000000 0.00000000000000 13.63808944259450

PRIMCOORD
 96 1
Ni 5.157264558105112 8.606107133391742 6.933727847755818 -0.08670711168025712 -0.386690830133605 0.061513643133765034
Ni 4.672924507909908 1.6098077469645469 13.599861964366234 0.13447923685821356 -2.326997484947089 0.3697945685988986
Ni 5.473709748466978 8.983959090670117 2.9242107405471183 -0.09319091963238789 -0.4640992901207555 0.09168965249651305
Ni 2.62337349170045 0.20700509990950916 3.621840067223681 -0.17494814350653742 0.5370592274182493 -1.9256256557625417
Ni 2.7834410853410905 0.32048089153812437 12.34365749037857 -0.7755182469942387 0.7813901323939834 -0.29401310269220976
Ni 5.729540216705642 5.239329716865917 11.207318279958015 0.932255266809388 -1.0433726890132096 -1.5124838305262598
Ni 3.509764797153116 7.567885500148844 11.034905969350607 1.3251139163166017 1.5685400500898794 0.27695691854087146
Ni 5.152530925693338 2.7695104151528986 10.154225772766399 -0.5174599651300831 0.9408232109840571 -0.8721896689760592
Ni 4.235920781832441 3.391768759298219 7.751494528681421 1.632316264005576 -1.5229050258595838 0.3502984075474999
Ni 2.1316441294923805 4.942797464425231 13.270897807183072 0.67033724487951 -1.2978126573984874 -2.8909941601861306
Ni 7.283867555442434 1.5090037402114649 12.89368134937415 -0.45187189481662826 0.09095380277175304 -0.8014128553728134
Ni 1.7259401500116593 3.3214258634783795 8.137698365350886 1.8805976689886257 -1.2256705880165988 -0.424504815657585
Ni 4.855337082895889 3.9461628419180537 3.0943456894194123 0.05696150498670835 0.7905455736410063 -1.3566947764466764
Ni 1.4853169418045193 7.271045747964874 4.16268552479092 -1.3847252002213315 2.313216886223229 3.5046707191488027
Ni 8.629682113710219 5.088589615438241 10.430860928181769 -2.134767928652285 -1.4385599866535999 -3.2723301537657252
Ni 2.194178395467601 7.355291359450788 2.123518681730439 -0.4678636422591943 1.8746807892835584 -0.6864259229112565
Ni 3.05186972488038 5.650587328073836 4.227576356980585 2.745456608631226 -0.2697470310559935 -0.15017967831260587
Ni 8.47695724121225 6.320517450602293 4.404925436193813 -0.22862429287375466 0.8097506858145475 -0.2770062837215681
Ni 1.9734028979633695 6.149864411253435 10.203718322356739 -2.111818261834647 -0.18856393451775913 -1.2888965858557802
Ni 5.756553603244483 0.7810689161081091 11.066150738720523 -0.056217170621516085 -1.4967774755345964 0.48056489187594653
Ni 1.0997588545959522 5.246942665055718 3.13779726678032 -1.272856244563466 -0.6743198836763419 -2.850015918001556
Ni 3.464804607415307 6.720779616444283 0.39661875979277017 -0.7644748446958834 3.067595265915059 -3.811196095375411
Ni 0.2146189799167141 8.055719865608642 6.467877850306052 1.1696909873271855 0.8529688730732342 -1.2736288610634323
Ni 3.5244968303086552 0.6025159288090512 9.708369781351951 -0.4422472272426706 0.049192659674566895 -0.0746506947363553
P 6.014853387603462 4.6081352438172685 9.071511722122446 0.06560272560147412 -0.5056174639692002 -1.0695840573012545
P 1.0010514370016281 3.381993994731387 1.8383872152263774 -0.6292505021415292 1.2732267405290072 0.1463991282242511
P 0.528927512971455 4.858756852768174 8.58311826622031 -0.3126260898077068 0.24750955981403183 1.0695917706107387
P 7.524975308699598 1.4803783095638896 9.893001945394005 -0.4082567292298388 -0.05224893000238743 0.4006534629612842
P 0.02558956954569367 0.2256656752398588 4.8736528857867984 1.4966494345971646 0.9035239603129664 0.058264540068848035
P 1.4576419649089147 0.3635616055722826 8.286312059462881 0.364842623910262 -0.9049900033355318 1.760338432384536
P 9.317456539523215 0.20104519579421323 13.561034064963438 0.4404407701615512 1.0568244436427412 0.7440461445278863
P 2.965154797274151 2.353174399093765 11.12547582555674 0.5625997948915149 -0.529171082919424 0.2933263610378303
Ni 8.661438450834874 2.761841557918864 11.18622007029908 0.21417392177637953 0.1409298775795637 0.5187249478854357
Ni 6.731663243721747 2.57876739257612 4.553308039589642 0.05001695534807515 0.28639312425310676 -1.0486015415123167
Ni 0.6405387379748815 1.9836249348840695 3.55379969220886 1.2601922759425521 0.46852415866132857 0.347271447795718
Ni 1.161761984650954 8.403716393266306 10.226684825910477 1.3408850631079294 0.04811768144283326 -1.756333167879885
Ni 7.524723718000547 9.315182905057718 1.4187432473834254 -0.9074508061711984 -0.23340037410615933 -1.1702085503935522
Ni 4.488368752894976 6.880847210084923 2.4302254484042254 0.009360872389609686 -2.083759813035534 2.263375794331386
Ni 8.564240577434854 2.0442582933553495 1.089158499809272 1.6308563916305976 -0.5314830188820524 1.6573966040129713
Ni 1.4024504200763663 7.626077497021926 12.70574868808751 -0.5410092132049328 0.2317669522677944 -0.8359921360095797
Ni 6.535823179945676 5.7764851775137425 6.681054376881541 -0.7543884069941588 -0.38983888884428347 0.5335008206430296
Ni 7.395331553296045 6.323760175167839 8.752558079309301 -1.556182556965791 -0.04966548554592737 0.7000633111890331
Ni 1.2292628373889212 2.274706055511984 13.130343401797342 0.32050549255578353 -0.9830970320516038 -1.474752377413757
Ni 2.3304380544387895 1.7193615191401788 1.5147688944893472 -0.07033278408729178 0.8776321801478691 0.40239178580862955
Ni 8.014934217840272 8.792014023642318 9.310028091179385 0.5597960068941327 1.3058591818520477 -2.2888729101612255
Ni 5.086204162884275 5.288054448915451 0.525065129832321 1.179162931373363 -0.8019782409579801 -0.12173787803214516
Ni 4.56966982138459 1.6916119968522627 2.489224399149078 0.2724263776603695 0.6011576005600551 -0.15370157542293528
Ni 8.12938003138634 7.7601007942237725 13.44399220813013 0.6744353262082835 -0.12789464166216039 -0.7829813881405031
Ni 2.90470780228365 7.704154477294071 8.412355272417793 -0.0920362372026544 0.3548482317017115 -0.6048468764861841
Ni 9.13049669560624 2.499525640549108 5.683905391167414 0.8700543678006113 2.375354278983922 0.325669039034594
Ni 6.829587934696801 3.0629676701607385 7.628451767767044 -0.47259627184817316 0.7041449374575743 -0.5232516321111956
Ni 9.301680870875316 0.3683986697158882 11.478320599166853 -1.4017986107638503 0.9245717821222011 0.4731287473128755
Ni 7.5898857090547445 9.129341242025413 3.755138410485299 1.696181438090653 2.0258734822417113 -1.3542661124005257
Ni 4.325095707384945 6.402181927879425 6.678449947237661 -0.6483926222876188 0.32371808595581025 -0.6470687612698728
Ni 8.428912735867558 3.887178800251663 3.262585321692189 -1.0631385587862272 0.0022893102548089605 -0.14444097605661574
Ni 0.1853468679908376 6.964636231042929 8.44383206432128 1.5079329779307837 -0.12893850954564245 0.8080018214442407
P 7.166505153422183 3.9747044089992785 12.373416010989278 -0.40462221780104507 -1.0391401389891006 -8.741750748372042e-06
P 0.10147584710128855 5.812788783569391 11.995613440033308 2.382008036855014 2.2296467775100566 4.75779837493509
P 8.013983764088302 4.704708799556679 5.791359778732077 0.9626616470153874 -2.5754699228950226 -1.3476496355252725
P 3.2255791253140056 9.203746861726223 1.2437637798282948 0.9081419187009521 -1.7448076837387885 0.23983790220138693
P 4.663503833956556 8.691107516974807 12.627711775963734 0.9179146818169999 0.11408010437657128 -1.2833507163368867
P 2.1292120860682213 6.502305707927666 6.4734417320246935 -0.45051769478157894 1.1520169670861902 -0.06151390024408116
P 5.441878865950013 1.890126376577504 6.288454545551759 -0.23179986238825886 0.3636162077023286 1.3784355105578776
P 6.528247504452031 5.148244565635432 2.118172845284308 0.17060940692186746 -0.736489415226551 1.7797898562409282
Ni 5.345389173776953 8.156682281320387 0.8748367696443996 0.058956166819233956 1.4404692878611707 -2.1110934678534803
Ni 7.585114803946815 5.588239425579395 0.1934862930138379 -1.1674775246156346 0.17051479032553216 0.24892135255989387
Ni 7.594749795903062 1.0241418722700824 6.0414828653719 -1.4443429118839641 -2.6079689239639925 1.6393587726746541
Ni 1.521881456733258 4.009237561987531 10.949681017773203 -0.039880638245021645 -1.2459355089132218 0.13132449327931575
Ni 6.943968521024595 7.197963308977592 2.1770618415755014 1.957759560182609 -0.385219130684085 0.8300508308244802
Ni 6.164428717276274 6.979107355325379 12.486475280238354 -1.674830740329019 1.4321671957533786 0.7618852295918361
Ni 0.8735676343402982 4.975998118525919 5.264943513664112 -0.11124674869283423 -1.0126804021356755 2.3018788355025905
Ni 2.9060496193452554 5.102380513015848 1.7612094387489876 0.20291274704026344 -1.576145630351279 1.6633633631193674
Ni 5.914580516770599 0.8306145792904731 8.409777865478627 0.3115297714197344 1.2352788005303241 0.9921077201906462
Ni 7.706605157066308 7.402254956606966 10.866298269203291 0.7680952150572901 -1.3962486274798986 1.9112393051338827
Ni 2.9895777314301717 4.48807057132573 6.282140550822984 -1.8962770273970957 -0.42022829976941817 0.7983131334015672
Ni 4.729513778848295 0.5801085156976502 4.798316380499499 0.22029571840340123 0.6087600954976613 0.85113284830576
Ni 0.6081375832067343 6.161064856448222 0.7510867593204666 -0.9182437830216444 0.46333053027553106 0.7477428766531832
Ni 9.142340094809711 3.9909459863491232 0.10687666077424902 0.44230353440190273 0.45144869123628056 -1.1997906349260434
Ni 4.937551332441317 3.89353379494621 5.331729662453293 0.019046732218805908 -0.03845213332861119 1.2661595492695807
Ni 6.176775297877848 5.790499711268284 4.297948139139944 -0.7383321248622446 -0.9422422028187708 -0.9494320356989907
Ni 8.85782828687924 2.6157419071625716 8.611880674026258 0.6024485514573367 0.03812945988186981 0.15049386711891502
Ni 4.035225949382092 5.385671640147222 8.959051611464073 -0.47769836896142887 0.6723787007895711 0.5841047588428263
Ni 0.3531271142834953 0.06444635528800764 2.288130748849862 1.1107911276671838 -1.2130014771893625 -0.3638157253076444
Ni 6.6077035744819375 3.3127320071000637 0.9724138927278023 -0.9021219377591173 0.0009381955435532228 -0.5512992822770312
Ni 6.743003461527117 7.90607930871756 5.205331427067498 -1.55616867300872 -0.9355933300436854 0.47724328370188135
Ni 2.874162827784057 8.883229629309348 5.730016375399031 0.5336170345059197 -3.7403434342289064 0.993670950912708
Ni 4.59521093642528 3.5130075217186616 12.467341341666828 -0.09956674125174465 1.2556411662367601 -1.930004758666844
Ni 1.897515688590371 1.280037567727019 6.488102947057538 -1.100784394163459 2.441919111388349 -0.5320687161821934
P 3.7998581913329046 3.4863295894452215 0.7507336005243914 -0.19321274614368014 -1.2455002211480164 1.4782477921615251
P 5.167011368149827 8.137048888620374 9.257958134649876 -0.7574950709439406 0.6490935050093852 -0.43199598182830756
P 9.25843522516067 7.1746026466620085 2.563115655642939 -0.33537752457160946 0.2194950768789768 -0.6223252357766056
P 3.6045026726068583 5.4461372714858 11.30174865566847 -0.35319012727299814 -1.1798537867928003 1.0486676188635615
P 4.648976800629874 7.542894157376449 4.483617415952528 -0.6476066360512137 0.13467746891194868 1.1397422634838952
P 6.879906074506992 1.6901583617021902 2.5137861740982785 -0.8056898854816124 0.6385136726110099 0.7626642738497058
P 2.415466392543973 2.9940318186207775 4.796761177252403 -0.4505634604178498 -0.047417312941698986 0.344008203663414
P 7.511361456428729 7.770499876451212 7.088206400607911 -0.05461923000677691 0.19923941195373426 2.20742293311485
