# total energy = -340858.39121052745 ev
CRYSTAL
PRIMVEC
9.41756420540117 0.00000000000000 0.00000000000000
0.00000000000000 9.41756420540117 0.00000000000000
0.00000000000000 0.00000000000000 13.78355715657888
PRIMCOORD
 96 1
Ni 4.10554940009645 4.305860988550184 2.8420456793508064 -0.22568783595325004 -2.2091892809866533 0.06618610890876989
Ni 4.1073293197117655 7.567163437141065 7.138531482837253 -0.9349364131859769 -0.48762668381873436 -0.019430083700153634
Ni 3.3893436501243546 3.7400160670337685 9.238002232729812 -2.0049171917050184 0.03260055964384063 1.2411985084488688
Ni -0.17493125319831254 6.4682561347479846 4.136790285492669 2.3793682852393214 0.30106255333982346 -0.330435864295618
Ni 2.7543832256619143 2.549381690285286 6.756065369518822 -0.41750627285256486 -0.23006976707102955 3.6923802760860664
Ni 5.926407166563967 1.0647780500867192 1.5937786355661083 1.0942967295565864 -0.4364712439908418 2.911069076559135
Ni 5.040186131854907 2.1302906701734097 6.546321148860327 1.242630355799389 -1.283349430785306 0.21398803101781855
Ni 1.5217747657099394 7.474711210349796 5.8404097382083435 1.0744544980196786 1.1914751730818125 -0.5187401173940873
Ni 7.9099062650764305 1.5584467603238952 3.377811842881214 2.5012956535744535 -1.7508780583025847 -1.11207513658593
Ni 5.235977289539586 4.1023474283017025 7.892299187230962 -0.4713659989854979 0.9199584517199059 -3.3327173966045316
Ni 9.067117706826215 3.472924531531355 8.079783111621094 -0.171264266897047 0.08042205000249376 -0.8542135441136128
Ni 1.2759575075143887 9.284362075535698 10.675227049686635 0.03632608812454389 0.32153984735756885 -0.24232981538530524
Ni 2.9920260382167583 7.487217735477515 13.056199149914383 0.7957469153362876 -0.12898196118906818 1.54890247836461
Ni 7.436372306889751 0.6235340939372443 13.456501187885964 0.5717629494480218 -0.11056386369319669 0.18416194879532152
Ni 7.484693828298125 4.630974136486235 13.326274169724371 -1.7159488505255671 0.6883676200186597 -1.0953449683154426
Ni 7.969557116099747 8.851888696834601 11.225163821921619 -1.046259009422069 -1.0284970574529577 -1.308551126861914
Ni 6.761001114864784 2.6312862452820953 11.834658211295308 -0.8544436578465479 0.47577955467216126 -0.46328707863210533
Ni 6.493429283593157 5.486597505427257 1.4533523954818361 -0.7386177744234634 1.7023975942036937 0.16291949447677748
Ni 4.959948485704186 8.218435082628512 0.42862159498330005 -1.3587907397437566 0.8574292228374331 2.1062248269072694
Ni 8.937202410036404 6.413210472570642 10.558521770062978 0.4145158227656732 -0.028589381601918505 1.0735407279561575
Ni 6.183101711297556 5.171410470054921 3.9052952587837395 -0.28192557540005636 -1.7316294944856176 0.6365969152042713
Ni 9.055289246313855 8.764343020940576 6.794177309684003 -0.543828942041915 0.5543938620419548 -1.5651562212193109
Ni 1.8643292423632596 4.888120724296729 11.44962863702826 -0.9550406401350197 1.2326724732557286 -0.9780743820260317
Ni 9.14232637374636 1.4852911223780274 10.422146966055472 -2.1092607855201155 -0.056381464113522246 -0.994674452476558
P 2.889864302836123 4.2921772679096915 0.694786442178058 1.6796461594397911 0.7860289167175754 1.5778813820954631
P 0.736024071868759 2.487979172338961 3.730244402521329 -4.356361239730246 1.0504720190621522 -2.9934886166076318
P 3.8027276263903 0.8221891328654017 7.639164481728004 0.012947047078971251 -1.1372544640650348 1.358059775115003
P 1.9566496232570985 8.121792039811764 1.2376685171440855 -0.6132070755254213 -0.18191351908077702 -0.10848666944919383
P 8.223642995577027 5.020032544676205 3.0166689782029774 -1.505586589185794 1.224545216162904 -1.1413659151302473
P 7.784897519183865 7.5455877977829315 5.276773235473893 -1.025482696106666 1.1933651910156737 1.2178423502214315
P 5.237003804026726 5.526010011194952 5.903318124654611 -2.5194509843272415 -3.4663160306300047 0.7030802436384859
P 7.0194284913931755 6.626414706280284 11.454314816925512 -1.3101297842029436 1.2509033944414587 0.17571638913112964
Ni 9.447417780401139 7.9079756644354795 13.083641931708183 0.6104079155137294 0.1412440663858729 -0.09629115582426644
Ni 1.5209083498125373 4.125834833172583 5.642161538049401 -0.8125997252275683 2.003755310186433 -1.4365910358526872
Ni 2.332947232088591 2.0579920305608423 4.700854345637358 3.073016179820314 -1.9081406116039006 -0.9756346622362874
Ni 8.326840663008904 3.6676703396006904 4.536581891489912 0.7367105300984216 -1.2801622913065758 -0.6408058110792964
Ni 2.098930181713093 1.8587634619788609 11.51354281932064 0.6515319392475489 1.076098975601637 -1.0542212016919392
Ni 3.643693221396496 0.6750566453839548 1.3509429781653133 -2.2528558686366686 -1.3942917608638439 -1.5421055100474346
Ni 8.334035681982982 5.444199631839165 6.026033693688291 0.5487762587448612 0.04893426380685766 0.812741393011755
Ni 1.7236685049328424 7.330876753816939 11.353970671416603 -0.8381022403740469 -3.0931517742279246 0.25758494177216285
Ni 5.087970852109454 1.3411270511015934 13.424385410784652 -3.481841894179745 -0.5082680142181699 -3.6793779502891275
Ni 5.256206217231105 6.477315831414298 12.851237168306984 1.058283287576455 -1.2793431378393902 -0.5604835198794604
Ni 5.723694099264173 9.190139346693217 7.2369600958077775 0.0370663087246781 0.17873075047742124 0.19074602977074245
Ni 1.4183416591755078 6.015534993227162 14.099614397591678 0.12174224890751938 -0.7483172610994144 -0.8783466897163904
Ni 6.899429889602979 1.6053462295528371 8.413083889787593 1.4452687661323431 -0.48289919643607804 -0.931409630979641
Ni 0.6800168763965821 7.641194908548438 8.645584712342638 -0.5266568011380026 -0.20575201626127143 -0.5564180915608352
Ni 0.8340609141726315 0.26155683307955285 2.6062637774625577 -0.7889841426911574 0.8647995471595751 -1.9164511883521251
Ni 9.104853886183719 4.658473423664651 1.2190725950678871 0.5835193186530016 0.6968126654622192 -0.9087893224769639
Ni 8.49630031146384 5.924712005025572 8.351264173751542 0.3132380123600928 -0.060612728586050456 -0.05281585824945097
Ni 3.445801946917027 9.555625591935385 5.695599622034498 -0.13373027450733097 -0.8752523670617829 -1.16346917478719
Ni 1.972160351333417 7.688979628802986 3.4420848343658896 0.4152164483771236 0.02997957708122579 -0.3351237566895906
Ni 1.604234956988778 3.4037619407648187 13.158059523243747 -1.0503987426220556 0.04579057597155339 0.4577085561030633
Ni 4.09924904971208 0.6180304694759203 10.595930218189725 0.2760331211750214 0.11796221303979684 -0.694256731809585
Ni 1.6735764814732557 5.613508599268466 9.192502213526456 0.1478991098085453 -0.4216223519034674 -0.48604879780865323
Ni 8.934979864908286 2.4344214852897657 1.3204526726280397 -0.006775371050620589 -1.7994983904134494 2.036718395376015
Ni 1.6152535069883487 0.8185304092116982 13.643337183865864 -0.10806089476568485 -0.6167564834395766 0.7916280080719076
P 0.9604408573984768 9.38092977783963 4.627746737268412 0.85394409250231 -0.46030511318564593 2.529498341260915
P 8.757317518120336 -0.14677556180197365 8.880359876628363 -1.3503703768905453 0.601491586860706 0.689182145500155
P -0.11664312370058355 5.090410001211923 12.37815807846644 0.9704945127962447 -0.026385174861748108 0.31377974379617574
P 5.232125505821787 7.443275381376662 2.3573189462286672 -0.3375274810350768 -0.8412970931622609 0.7109889569626013
P 7.7587355261079605 9.28530383194592 1.7840332073151057 1.5419805544337961 -0.21027458672197336 1.1683437292706715
P 7.149259030106066 4.348183521625458 8.80405406349031 -0.07567913600086966 -0.6109825570702768 0.3178554565274461
P 1.2422991334131361 2.4323307860590777 9.190779741052165 1.6021489963935764 0.8895777825455196 -0.2985233318577375
P 2.573650752976649 7.745692199826418 9.536581393807923 2.104028847697215 -0.16274440235149393 -1.1165514271897288
Ni 9.265319760921056 7.295476130356779 1.6959836917416136 -0.06989081145386673 0.23629286516260598 0.5388368881439624
Ni 5.6867489952912536 4.942591915063837 10.89058131328081 0.23622318826693514 0.03300268017826574 1.0235533402944372
Ni 5.548320220553057 7.1866279244635844 4.876622820284355 -0.45550229248036395 3.7098941166001134 -0.33020060835636034
Ni 5.136650240953712 6.133311049889239 8.942399963664407 -1.5002284101976744 0.5755987782543442 0.7935149406819753
Ni 5.73491041810989 8.832610943117404 12.294850306418404 0.33558706947925426 -0.3265419285578505 -3.0139764521483383
Ni 6.6855852615343885 3.3729005832019188 2.2953485491669787 0.21897674248166157 -0.6052112018041383 -0.009930885960466767
Ni 7.140218168567957 7.276970616895962 3.158722573364109 1.746199936100625 0.838536499697988 -0.8130892632694772
Ni 5.542142298502015 2.9918376869347143 9.687153175699493 0.216760194446317 -1.4478406406245774 1.9056253013812148
Ni 6.08188173232714 2.093006533892811 4.315810645024156 -3.0330172708298733 2.0081593527913997 0.15286648111614964
Ni 0.22489708129892985 2.2654515501681436 5.959540982344727 -0.7337676454200136 -1.6387864451109517 0.4100770702680292
Ni 3.5936106155010115 6.186209507451281 1.8883336715033499 -1.4619151164397726 1.6805792127770218 -1.7102518001407898
Ni 7.240939016640955 7.775432867261157 0.3532405866400832 -0.04268416913208778 -1.3182570412957684 -0.3008928605311786
Ni 6.445738738979631 6.569598542051728 7.141935932260198 1.74650975403156 1.0970092433917429 -0.18852433952907532
Ni 5.344025002484094 9.329782987200595 3.4230227428666327 -0.054451079860028805 -0.9177527023178389 1.6921733453725245
Ni 1.7383693224963723 0.38251037586971204 8.438169455286618 0.8479405666207073 0.623491745280881 -1.0694860982708096
Ni 1.867408785824678 2.5029719343896586 1.5809735736563508 0.6448203315553283 0.33916861618292554 1.6019937017626344
Ni 9.280491456689695 3.695320307804741 10.453628941092704 -0.2868019296557512 2.1193209979695955 0.8044112758795049
Ni 7.091039648826284 0.4890663466604322 5.508750441464855 0.723770939218618 -1.011371710626581 0.5444902297749977
Ni 3.0645506993677785 5.287076992358108 7.082653307993277 1.4288820972442036 -0.2536174724839826 0.3452922125821602
Ni 6.845325983835856 7.835714695079321 9.074942760838729 1.0654967746057584 0.5123416700669112 0.8766469334164643
Ni 6.988764902676421 3.3957381761497465 6.312758966830965 -0.01062842624812363 0.009659120356318848 1.1098950982154756
Ni 8.729413275685525 2.702906820279305 12.962484027777007 1.3957146093532993 -0.3714552441307732 -1.8413739476013127
Ni 5.0330947060859526 4.0448626170218915 13.513413411268363 -0.8603818777078537 0.09471532669671429 -0.06948534848533194
Ni 4.098523897276211 3.697476929984144 5.241101386167591 0.27180365647470606 1.693688239355154 -0.843420824373483
P 3.3856142947398844 0.06807957089478338 12.535194076357758 0.4448155021904791 0.8467853699703416 -0.27741123246947064
P 6.541166916027195 2.5207334602864027 0.2635938521948581 3.1108929002614296 4.029335943778074 0.24606100029296335
P -0.1397236898022484 0.6227364262577882 12.368040789351449 1.4874502845963995 0.15727695147901946 1.0711496020161617
P 3.679479964984845 4.046246998944914 11.720943950030508 1.7491456489925101 -0.7653073678995077 -0.4511848960519326
P 2.253086288501959 5.58197859465431 3.7480935117642233 0.15991516043281492 -0.28798772243373627 0.6759970142684487
P 3.9540867166408127 1.5385757000682592 3.1033407041483185 0.5397151769838576 1.9621980555699368 2.5671979126942173
P 6.333340111419907 1.0944904648291514 10.441071561118838 -0.4289317410806871 -1.768040429014484 0.38574337861867114
P 1.0150344764989139 5.862320642848516 6.978076909176838 -1.4031214433403318 -1.1597068795312802 1.4092630374616955
