# total energy = -340891.19077343633 ev
CRYSTAL
PRIMVEC
9.11735211936907 0.00000000000000 0.00000000000000

0.00000000000000 9.11735211936907 0.00000000000000

0.00000000000000 0.00000000000000 13.34416642277266

PRIMCOORD
 96 1
Ni 6.584943528749224 1.8772900912851376 11.495625803426824 -1.2757171110510288 0.18883595723222318 0.08429721668718386
Ni 4.330240658977381 0.5696402890019898 6.105649814112697 -0.43379266871741423 -0.9386763398443834 -1.54194507321017
Ni 2.4258537980905404 1.4689968421924529 4.553149881829021 0.9114542709036367 1.5076409006116616 1.1308123079841172
Ni 3.612732422993124 4.744186666196935 5.357241961083646 0.06521371769317155 -0.5405955227062819 -0.5927611489662437
Ni 5.066257119151227 4.684978583493887 2.40950273934098 0.49879632728230866 0.06841448401865637 0.9982359445755712
Ni 7.280898345036837 6.055298326965199 2.3677224746371426 0.7100877853045706 -0.24043234125227625 2.357205633099353
Ni 4.73700219296472 4.349532975423277 11.416587480520645 2.154632785897012 1.5468404536292586 -0.05538336186631107
Ni 5.72018094356002 8.02457338073741 12.404590221962602 -0.2604578924445837 -0.3258145634735227 1.063352474569246
Ni 2.0827313797895695 6.409671557409003 0.27668609907698444 -0.3105398967026394 1.162775491154275 0.5205398896069875
Ni 2.54093301273142 1.5098881650940807 0.26046177151768757 1.034141657333245 -0.18328983060301338 1.1089414760529548
Ni 0.5796985515270904 9.116111857684068 4.901258579839 -0.3302993387177537 -0.2306580354743318 -0.4093769588772111
Ni 8.665824086119835 2.4053124044456426 1.5478829053232785 0.15976912177325386 0.5266843119418284 -0.3554899790507684
Ni 6.710288881536644 0.9099445338561621 5.347834677478316 -0.28704438468386045 -0.0453642870674122 -1.5922685040550708
Ni 0.5693540041549193 7.440096425122751 2.597348450572758 0.630795735141462 -0.16146862096286385 -0.3457069315220756
Ni 7.702074412247694 3.642336464344648 4.07225242500779 -0.5175998331420569 0.6159836098292939 -0.4107599552676668
Ni 7.684705857035297 3.8019995293732554 12.638686435494353 0.33234079462781474 0.5979614622202605 0.11889372371513073
Ni 8.110741472764897 8.84352127304352 6.898359791358316 -0.4468777840361465 0.9012845294594864 0.7909358671008895
Ni 6.6775120017526195 0.9899802950511785 0.4968218235057313 0.8981020179664468 -1.1053164777058577 0.011287657098677335
Ni 2.0921040174579915 6.4260189692178376 9.313494318916984 0.32287219301574716 0.7571839674614249 -0.18070792880845005
Ni 0.030074496705308592 5.040363839989437 1.1508486739900634 0.3993090331182478 -0.8455671812925244 0.757178053924154
Ni 6.570857220191138 2.211030754565869 7.443002125146998 -0.815552380097989 -0.034580309078030766 -0.5914588852150523
Ni 3.580867278390852 4.3749795043460065 0.35566698266671243 -0.6577547802288091 0.2984927357301182 -0.18911286504269367
Ni 6.20600815250899 5.456333899312483 4.776757493829884 -0.6799197463616226 1.0187608040018001 -0.18878093562457166
Ni 5.336048676783793 2.761399697031143 9.548457592606582 -0.6884488668785562 -0.2182750884289467 -0.6169200056006343
P 0.2570208829417513 5.521258561605124 12.402414821818939 -0.3336191471196061 -0.7177216477007446 0.6357929312457372
P 4.165690693374577 6.258177639608904 12.574153819329867 0.07697060111878357 -0.05483545978264105 0.514832554809565
P 2.276438636504838 8.389285688142294 1.4983765966892657 0.5589722254412567 -0.15377870851777387 -0.8402280284677982
P 6.416728387715773 7.812841119478882 5.660515169795732 0.21003598834860604 1.1719322179528784 0.9282368896786143
P 4.800495431022007 1.1305151559666051 12.835873785398373 -0.46247281026092607 -0.6673575934258958 -0.547057990502174
P 4.1799684663208305 6.2922765354064705 8.226838183868614 -1.6272933568696877 0.2423861225445374 -0.09718975637913584
P 4.752629333979969 1.1402616050595462 3.9373429701637797 -0.8108310633629197 -0.15465982557114655 -0.2179249041783795
P 0.1415952089318056 5.608411327628905 3.6511237680263844 -0.1637864704627631 -1.1792704034855046 -0.4291672541302609
Ni 1.3229915701865076 1.0069659214872393 2.4125588756702165 -0.052304722940987335 0.3831594199415788 0.8948482869158394
Ni 1.8931816355030944 6.305979915188221 4.797614347847667 0.4058622608557333 1.2152360229468362 -0.21423125737687618
Ni 6.03284228943862 5.820070650072893 9.093955781032285 0.9309203500480484 0.012161060842566154 1.845597241654041
Ni 8.718112098793377 2.4291907488557567 10.403752719668462 0.10326450181830603 -0.05953980723684585 -0.5181001698172432
Ni 2.1605479775521985 5.186542341679916 7.1463745541747095 1.7719731884099867 0.18830039644372729 -1.3092003304101387
Ni 0.8398603621699811 9.063231217142386 9.203498027914378 -1.3963062201907115 -0.30642356054142067 -0.993644725660463
Ni 1.4258170639846248 1.1341620966936177 11.541822513351073 -0.4159137315544643 -0.5876323123801105 -0.7942461624210451
Ni 4.235356378612333 6.812558216873892 1.659586876321308 -0.6716014563039143 0.4843438993024046 -0.17416807080740326
Ni 5.833290810208313 8.03417395220127 7.945356357735607 -0.42323726179907106 0.9784716174644502 0.5799182315653044
Ni 5.190517507072359 3.077279468101331 4.851939176917246 0.5654457489807423 -0.2576463911377176 0.562531917768057
Ni 0.7794652002602906 7.418105372538866 6.938299262730193 -0.03185159729295805 -0.5088053747788785 0.31368564142047267
Ni 5.113129424845154 4.49273922042124 7.370369653627817 0.8447457138324934 -0.06570351284539652 -1.1257014691201128
Ni 8.228628831765576 7.202015017111557 9.231173749356495 0.756144213343001 0.2540090514954464 -0.5345364609963955
Ni 4.741360287133499 0.27305648131842525 10.517911993510952 0.21550241077981597 0.5668351731291013 -0.6129692484830025
Ni 8.197812182622322 7.164205359124255 4.861973734327621 1.240318934057393 -0.0834981178246562 -1.136214967056927
Ni 7.322537290787503 6.327761268680303 6.972233134459863 0.19553316674674068 -0.5643365750769634 0.29995209388446403
Ni 2.509851960385456 5.083105985310024 2.488139898767187 -0.7083443202509027 0.08590981258994236 0.5127286210926847
Ni 2.5133256714279355 5.168608510654832 11.562105885939536 -0.6078779500030241 0.5342240719622993 -1.0836739597354175
Ni 0.9175885216199803 3.324961447576385 3.881191023789968 0.3918664607972735 0.25763533539412403 -1.5211790443074125
Ni 3.7246935033124076 2.759867981925798 2.773945173132066 -0.8625547169894565 -0.47444078125607975 -0.04820484184000085
Ni 1.0905720376540007 3.4118498103974577 8.271674584901687 -0.39462962536470747 -1.5640717299058806 -0.08252546949874175
Ni 3.585052142875099 2.799300528536621 6.939820037013357 -0.4508725070178364 -0.21917985963140316 0.21121741025121687
Ni 4.508886050490088 7.07381593320525 6.119581127689885 -1.6293600095907295 -0.6958598146306468 -0.7921923652158098
Ni 0.8890147410238374 7.140600535268667 11.283773193124304 -1.184486143358489 1.063074024096879 0.18531406012189375
P 0.4485153583709054 5.676262659854972 8.154499291077956 -2.1381088201000598 -0.3280406245905641 0.48628893884391733
P 8.733246902810478 1.5093775933922988 8.316351432277953 0.7549355377468805 1.2602802076706683 -1.532165111005271
P 2.0937086713778768 3.292066042218732 10.341834960005244 -2.1285494585463987 -0.22447324681985856 0.2610024520941441
P 4.2215344732569555 6.170122255755188 3.869047622904198 -0.8639071172522927 0.10697640345225447 -0.31340153452115055
P 6.774812380349313 4.050921468695494 10.494839623001507 1.0068676521086402 0.2059322505928776 -0.14175828701813004
P 6.523273761055443 7.915794256202444 10.353004627716903 -0.8265176208602412 0.414017542973016 -0.6599029369200635
P 2.4261637880523366 8.295176382681737 5.951471747937516 0.30190896050051874 0.636016360110453 -1.4144055008945835
P 6.966340589980192 3.874446006915359 1.585927790987473 0.5452510192004223 1.1347257841059104 -0.2005858986792997
Ni 5.187016443974428 2.8575148198915574 0.8155471200781705 0.03359866189105182 -0.42242402186915634 -1.1513981025552686
Ni 1.7013799053176895 1.1008108237450884 7.025343532267345 -0.7460716595983473 0.1193305541422332 -0.2407650420013466
Ni 7.014562263743115 0.8148222906086768 9.266068589967732 -0.7383197835670704 -1.6895845015994257 1.079312083222296
Ni 2.8845295333269028 1.541990360843608 9.227143879853145 -0.6468211640354409 -0.03325541961902014 0.5854509884580755
Ni 6.422928186951694 2.0877823926964814 2.7402109714072007 -0.21366972844645138 -1.1066711919615393 0.5921294289195157
Ni 4.161906992370302 7.018738010875544 10.463214264752036 0.5252982302275793 -0.04363007798512486 0.034218040642605585
Ni 7.99406672155595 7.170715148321973 0.2793264841633415 0.7678298772110453 0.7642573293684386 -0.29075422943527995
Ni 7.837357678516222 4.300901020828565 8.264909509853078 -0.33172295853815775 -0.717964616949486 0.5302810281541512
Ni 3.227323726962443 8.639283474979 12.419215366013104 -0.05169202905765291 -0.9631696970000575 0.7211445573393646
Ni 0.247685626415781 4.712239465428306 10.201495210418713 0.1103103529214939 1.0797316872582179 1.1358820091975406
Ni 8.648054367427466 2.3445452545817966 6.118300139759522 0.6986317209488291 0.088640324147228 0.08065396350764174
Ni 3.6244846894859215 2.452476465397732 11.54749441791676 -0.021212372411557018 -1.1103625247701974 0.585677759756901
Ni 1.2838325441302108 3.379811436110653 12.535629360960069 -1.2060517853444068 0.1787952851667695 0.6163638759868482
Ni 3.158168613426468 8.4222084455554 8.004204305041863 0.6266596014859015 -0.5900530060064613 0.9372604333334633
Ni 5.733638154842696 8.229695561928228 3.557354539788621 -0.4793752424432196 -0.2827154182912034 1.6496136176334426
Ni 2.998368788120598 8.581917097343094 3.692344227328625 0.6745713375655157 -1.641464763274063 -0.28311753882562857
Ni 3.4431952659461302 4.283842455577965 9.067534607200262 0.5718786490902796 0.17874180622101477 0.27326352884968425
Ni 7.331955515215013 6.136843921621199 11.328689826853374 0.20883322628975648 -0.9636762043228306 0.7044349578941675
Ni 0.33310974253495834 0.057688220155065494 0.3514110028382888 0.7360962935531904 -0.2613456943661757 0.031438421014939405
Ni 4.467392982368503 0.22682056678136076 1.6886374944175078 -0.2663125514531478 0.5275224915724075 -0.4908583033821547
Ni 6.1964440504524 5.698955748528808 0.3543112324514455 -1.6215016898885752 -0.7019196476714815 -1.3843858146040418
Ni 8.02822943881624 8.857206418121633 11.753021409528277 0.1901474769547951 -0.33308487188269087 -0.8310219364884979
Ni 9.095889571352785 4.95286461459659 5.826502941780161 -0.028407861718731723 -0.594657594658008 0.2587761338667866
Ni 7.936891808308212 8.987858069666856 2.3199101699708273 -0.21657378946712375 0.20608266012781282 0.4755815797287422
P 8.376621686467743 1.4951454072051324 3.773636359604097 0.6452234805310179 0.20646266917505088 0.27212530148018294
P 1.8875926988389478 3.154375795070375 1.4872470453256053 -0.6479097691139293 0.4485189191839953 0.6250225801031106
P 4.606724352844016 1.0902073435812996 8.083068486528326 1.786191388891898 0.4838379062002635 1.5150006834108425
P 8.469928664968359 1.72486620359965 12.582187118016293 1.0743339132814145 -0.25155236242483775 0.2028350997247926
P 6.193143569094454 7.805337538933053 1.553594926236962 1.09236454553088 0.30953151004278306 -2.0098927905427386
P 1.7425173967183907 3.2009381108025075 5.818443202773464 0.34757509507906587 0.1785659427647828 1.3325194647520535
P 6.933034903790751 4.005672051625086 6.224132536187061 0.6304810321145207 -0.19709794013069926 -0.5491755510658091
P 2.32507059109955 8.45921577658276 10.435364401890208 2.3900131665476776 0.48543713236658337 0.22400556315482067
