# total energy = -381161.60966702225 ev
CRYSTAL
PRIMVEC
9.36512068243708 0.00000000000000 0.00000000000000

0.00000000000000 9.36512068243708 0.00000000000000

0.00000000000000 0.00000000000000 13.70680075966112

PRIMCOORD
 96 1
Ni 5.694545820788353 5.509949930137019 12.589477202903042 0.012507131328075235 0.18522612839377778 0.35090467367293116
Ni 4.561019727907958 1.2742557589966537 0.07288873303938556 1.2102349701878188 0.6477914983685102 0.5216076687498694
Ni 6.1279074079224305 6.752017769892202 6.688466062015384 -0.24103320806106873 -1.0449868275778649 0.1788567345323242
Ni 1.4932403722126313 6.321550005000083 7.49422042864728 -0.05904358432671766 -0.4655326801331724 -0.15689642821114913
Ni 5.701063944673154 6.326157644297961 1.2659713733809992 -1.316349025639778 -0.7561429277914203 1.2119843487787576
Ni 6.947570851556779 4.914384455524828 8.037160481498168 -0.23734907434126223 -0.18968570682702815 -0.6210990766789883
Ni 6.520596276620165 1.6741276751364051 6.8211342323844635 0.014726507576897217 -0.8730324765923289 0.33419018913172766
Ni 5.1601252180782735 3.346438516891127 7.79901857773801 1.5791959871418286 1.0191513545719997 -0.9664331982426775
Ni 5.021652546008332 6.120284199815779 10.510415763983588 -0.3158129721761206 0.7472852202904743 -1.1202856974211803
Ni 0.2936452270585304 7.436814112858404 9.329534002660825 0.49935991309526256 1.8768027207225677 0.03834954631247589
Ni 6.265555949386248 2.1862218305169323 9.93133102846978 1.3483289209804843 1.1833692561452267 -2.082726743785329
Ni 4.990850664604435 1.122110010961467 8.397909606648323 -0.8093863604965932 -1.9274897055544742 0.3387742089579843
Ni 4.5226601942410785 3.9792584409483496 10.1022276208184 0.24990068575402768 -0.41148989145515585 0.1337978945204728
Ni 0.7769968910384178 1.998722752503115 1.2816120611683663 0.6056814565723375 0.5414504145074094 1.095947377786132
Ni 3.0308058598660197 0.24016008723311155 1.454277724783997 -2.811317987210726 -3.0013916735047923 -5.234906161500371
Ni 2.9100707260688 2.515284070373657 10.681229943271598 -1.3227724126676186 -1.4446822975012539 0.518707464383939
Ni 0.3247805067530879 9.18332480452589 7.304066338964868 0.3630924739883747 -0.38631030686573464 -0.7508222869094553
Ni 8.82959483720858 4.935465341824667 6.588036382538606 0.6861495293214184 -0.554883914304496 0.6566160386386756
Ni 8.172079090329198 1.5160912662915342 2.8067416052777485 1.6260566562491092 0.03128826859032031 -0.8648900499908524
Ni 1.6428575377063 5.792617362917152 3.371598849691283 0.9758429215923516 2.0110029928877817 0.2714120774632422
Ni 0.5444459642311704 2.9104266006487176 11.122575295652503 0.4845380175910816 -0.08588281600674887 -1.149150958392305
Ni 8.12272490516698 8.425667823881875 0.9324560187150454 0.1899523302248535 0.17470028916178948 0.2260133376134688
Ni 8.982630271693559 5.3363299607399775 9.609344137169042 -0.9914916838732021 0.9384549678621966 0.39296020808208454
Ni 3.599156294235059 1.0056828326053524 3.117282446273881 2.774725532798673 2.6145103246269357 5.145182888701609
P 6.0533704136707955 1.3894842019256786 2.566296818380703 -0.7597422151069044 -1.6731888338502219 1.458335112397998
Ni 6.825777459140332 4.472697276244788 10.320877899231666 -2.271907743061797 0.5354345473306328 -0.7193877225492579
P 2.1049232192468685 3.749606955455376 2.848917425558215 0.7290468429055766 -0.1712169585988793 0.3289196847614077
Ni 3.9110241728094617 7.389613905416735 13.44893491666857 -2.682337054462922 -2.516313981360157 1.609405163735357
P 8.57500403575982 2.668319504858637 4.870190451771409 0.14295642109128928 -0.005774440589931991 -0.02598228299637461
P 6.000054782526863 3.574394915569231 13.468671908173196 0.652386059717728 0.28899893730707005 -2.2814560488718643
P 5.71118763995975 6.106564298247914 4.104679881055849 -0.6358788060913243 -0.2763640221518789 -1.0933621335574588
Ni 7.046363507965937 3.739108655347814 3.427262316550617 -0.35675624735770173 -0.17976536238952268 -0.17778355607280352
Ni 4.715450565351034 8.15932379617532 11.521525683932682 0.9441044528384902 0.14167061240033021 -1.1066930463384101
Ni 2.8497874452549077 0.7117341756418398 7.378096680196147 -0.05560447673818165 -1.8246527781918898 -0.6925250938304589
Ni 8.314044952354644 3.2476833209640654 9.099766389673352 0.983349514382042 -0.42891682868235165 -0.04775541300740807
Ni 0.30691466632918507 5.375288862120402 0.9799868149112158 0.2101277767314639 1.920989442542111 0.9163666206035895
Ni 3.913262436614731 5.391359408939827 8.181342131039626 -0.4401237531417646 0.6479367656971228 -0.1632820200225188
Ni 4.183839498798199 5.233341730336004 5.512052399694689 0.3724744294239069 0.2818990930374952 0.20780324236334538
Ni 4.55489493908517 7.534473589684141 5.182952699355866 -1.1208264004159987 2.2526820620629655 -0.21451587849683054
Ni 6.383144402687356 7.953263049282656 2.7271324617502395 -0.418360393322744 0.705627692650688 0.9434709330195493
Ni 7.776927194933614 5.771358539327352 4.746829338179221 -2.049655158042341 -0.3992319000234092 -1.2120673954108674
Ni 6.832735743689768 1.0171363750063762 4.656405353470434 -0.29219276165401936 -0.12313372993840728 -0.23527805074484642
Ni 1.8975888159629217 8.727402642049158 3.5943070348276587 0.10788785952293031 -0.03782401282630905 -1.9304786129794689
Ni 3.1699715508547475 2.82138303470519 1.2280604289872261 -1.165457151751496 -1.0338413524840067 1.1188242823843055
Ni 4.205135782870094 8.060119074463099 8.9828203836402 0.7195566440269543 0.1419565190718652 -0.18657647177408512
Ni 4.4249070662101 0.7109549976142314 5.386567276767624 -0.23958104899557447 -0.9463220293150992 0.7841725802351269
Ni 6.300000862674036 9.188147841595823 10.281416090879095 1.2622771834960391 -0.22526566081416688 -1.8916940360121033
Ni 2.1000533565743154 1.8972142111419563 5.438008947294676 0.5949288460415239 -1.3508223768262995 0.12328902456934895
Ni 7.10191740291514 6.8064853108606025 9.36016824840734 -0.511141479111223 1.0723117406450628 1.212602441978731
Ni 8.265046641772342 4.336903028644751 11.806338665824894 1.644317145121194 1.1958288220648177 2.8349723934048723
Ni 1.7271904480261853 7.310010380961541 1.2291673862331793 0.5313914876095106 0.02143271595247922 0.5282717110336063
Ni 7.650189018880421 8.21107545219172 5.242439944925207 -0.3776629156033819 0.08581956686898123 0.8439934090475013
Ni 6.683680485427549 8.656564870404559 7.8271588918889465 0.07501964803999983 1.017366494757435 -0.17571767468271027
Ni 3.160615795451131 0.018810781084788623 12.532812604659679 -1.3219743422463557 -0.08746841532631389 -0.49216699489124915
Ni 2.330435321468172 5.189925031586089 11.16205115168586 0.39027520505075364 -2.170068917946424 -1.460964065380413
Ni 2.2140362384736294 2.034310210494849 13.022172929967853 -0.6427122840733899 -0.43468252752153524 -0.3540259929107322
P 3.2194381174632576 0.3268586269973947 10.151585552028829 -0.19231003182375267 0.0039623270818576915 0.12713642333989716
Ni 9.39733653874355 4.228108423515811 2.9772542276848792 0.3305973295741468 -3.5584581972829037 2.166288367858069
P 3.4500354801291695 7.325856164888386 7.090884354425649 0.0037543248361096627 0.02039913248164229 -0.5987546475455171
Ni 3.195482139162506 2.688136099887718 8.460618453677968 -1.9492510084909656 1.0496605789044504 -0.41014211917800975
P 6.876339744850166 7.530053252796747 11.809696998044851 -0.6141496419443488 -2.714589743849041 -0.580529125676426
P 8.56143397612034 0.6427450787887065 10.439428150410603 -1.755173600354145 1.0822601101070264 -1.8552743597324886
P 3.347506140630879 3.575069204246969 6.390549403485793 -0.20269034661681223 -1.6000399204703732 0.38234206624660605
Ni -0.04260380628841999 6.744432022267648 11.600627237927782 -0.03266329456097601 0.19642302555086172 0.9165851643722988
Ni 5.040560724346572 1.387508161495085 11.534148929887168 -2.047474348340938 -0.6187259484611215 0.3960133930861115
Ni 7.587470806730252 9.376733273590439 12.276276667678054 1.342801820514668 0.5300383160157258 0.7619857597254426
Ni 1.510284891566567 4.068648516351271 5.251952097841577 -0.6147937032862509 1.2234851503295059 -0.5828662584500349
Ni 8.45497128600191 7.09782484524609 7.303833147463818 -0.06815248860652134 0.1792470279922074 -0.20801381571225466
Ni 6.62510165654905 3.6690481887067192 5.815631210093175 1.4863020299245693 1.4586115059878364 0.16928040369779876
Ni 5.790098145496158 8.398911674544406 -0.0046432267558688635 1.7258457979243051 0.6390443483034994 0.6105842931905937
Ni 8.70831652642096 7.6303349633692426 3.216465628208896 1.3311259268386366 -0.31779914936821396 -0.6704539729630324
Ni 3.829472703285246 7.518243835815805 2.8588547549463805 0.31636421669390036 -0.5149379700391777 -0.7286166973466937
Ni 7.608326930137513 6.265818172760922 13.888552404312772 1.2536035669814412 -0.2505144080786267 -1.259547700380018
Ni 2.5998417435861216 7.38967009613988 10.747529377510196 -0.7929852934307504 1.4027506902644746 0.32582536210680013
Ni 1.2385840149202028 4.302486210718535 13.17100155231339 0.5594931309417331 -2.5857545926504826 -1.613006250823054
Ni 9.42524459790549 0.46123218581391995 4.5797434133718715 -0.6012779281880032 0.5039403333770933 0.8384459968667107
Ni 4.993894328774781 2.764695960172567 4.538650201023995 -0.6703467579612068 -0.38486174734466616 0.06739812693900005
Ni 7.097375319460931 2.351113507585474 12.017396641029238 0.433328327486486 0.3143335594171167 0.9534655823384158
Ni 0.7939852196692087 8.81134221730703 13.334345174959292 0.21155499609629372 -0.17115422368174393 0.26149687523205933
Ni 1.0131374685425683 0.3407630214395861 11.179595768475785 2.302455791051983 -0.3868240132773596 0.011134162239948566
Ni 1.179742962667028 1.4177200403059622 8.835444291487958 -0.14494156984211812 0.231282299321892 1.1910995349099485
Ni 5.44166883639551 3.1062887312905922 1.620870107739723 -0.06580661408216408 0.49372791162046586 0.930322054342417
Ni 3.9352142791233167 3.516687042899477 12.496667921996758 0.877186093749386 0.6392965735236216 0.12871893733566864
Ni 4.215015985023062 4.382829579695136 3.16321461639658 -0.5771890055595994 1.7380423399904972 -0.1513724130691264
Ni 9.222321166388411 1.6737437051949153 12.970348226011364 -0.7190143983702392 0.19270083950426814 -0.32732071570540405
Ni 7.073391245798607 1.1215200083684462 0.6000326371022064 -0.8341126595986798 1.0171379236863967 0.3250380903188144
Ni 3.8178318584737396 4.881512882485095 0.7587208583355576 -0.05547386469758833 2.109302437391329 -0.3983225008352624
Ni 1.7554637468885654 8.202290969140076 5.712021135686399 0.6798762947181969 -0.6842520551883893 1.2314406577311567
P 0.24225412818230938 6.603636800307719 5.172823384996955 2.2141260561666387 0.7123328725850054 0.7864886299628132
Ni 0.06939554308388116 2.7464058797889206 6.952308666029943 0.3087609504253457 -0.8584869746779861 -0.8808486302026378
P 1.862338502310057 6.307717721985928 12.88468078601679 0.003671792424632386 1.9391614854654473 0.9267790741861651
Ni 8.241128123953686 1.1911403143449069 8.263171744643408 -1.289707768903166 -1.3929337041740528 1.2512733761863677
P 1.340851131043817 4.464577716750359 9.106784610994142 2.184803138832805 -1.3406297525640138 -0.442459857474109
P 0.49981648237337883 9.304350257059358 1.9546448762441955 0.243664989256961 -0.27900943019452595 0.2125929504425048
P 7.9923062367477975 5.438924856081936 2.280400292043846 -2.7382384936162323 2.250987447969362 -1.059145378466434
Ni 8.055221116428973 3.410111971334758 0.7706426567627885 -0.3774855094852531 0.476221013084954 -0.12186951851400302
