# total energy = -340867.1188084246 ev
CRYSTAL
PRIMVEC
9.29479244086146 0.00000000000000 0.00000000000000
0.00000000000000 9.29479244086146 0.00000000000000
0.00000000000000 0.00000000000000 13.60386826922145
PRIMCOORD
 96 1
Ni 6.5478094146352985 0.8955764793226693 9.221449926024523 -0.019387917608308543 -1.0095793946128484 0.3666310832692525
Ni 8.372897660128483 8.373576179969593 7.569654718471609 -1.3290847280388915 0.3606573821843208 -1.5152179416279712
Ni 4.178696973249368 3.693899194172418 0.9724313992980453 0.9070949654936765 1.4171635232556947 1.1207765210146698
Ni 1.5695744039573636 1.143538302079012 7.8364673095807635 -0.05602099545030997 0.8229059922495827 -0.33164016901636434
Ni 2.0964497079754794 3.928062897694133 5.4837741188704605 -0.827982892551858 2.8649643117812724 1.1970284987998738
Ni 5.697428863085199 2.8419942966779064 7.637864552087855 0.3469729427186927 0.7061822796025774 0.09680203402241394
Ni 1.0316754762192957 6.789120813469529 6.731289544984563 -0.2881741274129295 1.207973684957468 0.678353173205451
Ni 0.2408392233831561 8.766485641934025 0.5651103618042836 0.9495654759530614 -0.22804810865531047 0.1006247502026138
Ni 8.705130717671457 5.021056119006619 6.564464753036464 0.34517985537401197 -1.0763599425725077 -0.5094309241780194
Ni 5.398526930887711 1.8021486979882588 1.6995314020730925 -1.1616974275987477 -2.9526168180939343 0.8945094155191821
Ni 7.73163134673309 0.5728064498650933 11.52146952852153 -0.3465086014877645 1.7139161363662547 0.30776310528845063
Ni 5.71565595087173 1.9150153614211243 5.227694224480891 -0.16931511359047613 -1.6348246322497262 1.446922242575366
Ni 1.1153657864844295 6.246267761412123 4.564750596380885 -0.5050397370888593 -0.4024792033161133 -0.5191689774013898
Ni 3.9027067041797743 9.309478115876589 5.093383545631246 0.29754914086992623 -0.9988838625722152 -1.4415537791746011
Ni 6.741308401652131 6.435026404333529 6.22375577435502 -0.49383615506355594 0.6215803871907811 1.232263153632452
Ni 5.852363756666886 6.552559053523069 12.913077472948075 -0.9395299460939304 -0.4147338523137502 -0.3515549056624203
Ni 3.41197884758737 1.7196574159354976 0.0966537571472732 -0.47514397797069136 -1.3276068579417846 0.008481812218766038
Ni 2.2750863220342987 5.112182263146932 7.762530024922159 0.15654290152647232 0.265191293364511 -0.6778088706662068
Ni 8.39347633037804 7.566156158633337 5.139092545941202 1.894402693192518 0.3957076889202346 0.08652122092169616
Ni 1.6234377255906878 0.9192809882375039 1.7188078719152582 0.41752324213342934 -1.0458337489591922 1.0216368399980147
Ni 8.495068410697666 4.017822707359882 2.2122470194344 -1.115622487617556 0.11273824563669617 0.7500309013564115
Ni 5.225959816229507 8.292144504244044 6.750756558069779 1.497240274103628 -1.8343322102631827 -2.0602288197931293
Ni 7.479036069993278 5.626342291238492 3.946441490595871 1.6448316228637672 -0.9603599954654042 -0.22795734871371706
Ni 8.91388245892475 0.5051598806648915 9.3222407952441 0.9820940447083861 1.0863674474071807 0.8229126771178021
P 2.9586532353871133 7.032793089559128 5.408666619855752 0.12757299665668353 1.2251779646508965 0.30662770613242674
P -0.060470989510654674 6.9897582010065324 11.087764293480166 -0.20030821953788083 -2.3049459044636884 0.11876902521180836
P 0.5833662634470813 2.8866185947213214 6.578762932099198 -0.4333812922116084 -0.8869097487950532 1.0348571953430306
P 4.11146774022541 3.8908930231105843 6.1652050889426295 0.909477349682924 -0.05833498829546728 2.197567894697641
P 3.752047415076314 6.30715794605749 9.223571927116653 -0.17425317432204182 0.1738345987273845 2.041376720083633
P 5.934947986643087 0.4317384569813791 3.5716680274529997 0.10774079242210477 0.4622555520437974 -0.2229313562540354
P 8.987348497611514 2.626197102827883 10.712964804918732 -0.28826360180294225 -2.4570022309737167 -0.016690316171487384
P 6.64197495587209 0.706477647001474 7.015923041454816 1.0979654366574252 0.15304414434459448 -0.5657375691895482
Ni 7.872400976782563 7.865876032557094 12.901935805365355 -0.628450374837737 0.7961971154998289 -0.45650142316883957
Ni 1.851122958848653 2.2291328686856957 4.227919405065347 -1.5453348156180096 -1.2993195809613172 -1.5017864987134137
Ni 3.415817596825431 1.8468752387474574 6.195487522399295 -1.3412545306322061 1.3121429579782307 -0.03660479570722728
Ni 3.2873914510087547 3.145376318785189 8.3258260432609 -1.0655104014525134 0.7158591405707091 -1.859463458113172
Ni 1.9185380877194902 1.9934448192195693 10.831631418774236 0.27161673727488056 -0.014986703216819351 -0.46288752920084153
Ni 4.14768025119753 3.6202472596387754 4.044048893437636 0.8533524816648981 -0.4830107823132779 -0.6940111914576823
Ni 6.577840888698676 2.9157298843426456 3.4345410265231306 0.215164567824423 1.3321032031502413 -0.7249677877401967
Ni 1.798282064373166 6.810944985893178 1.1148722330109644 0.7236776081738634 -0.7472764785397259 -0.2230059182457127
Ni 6.829348674734245 7.200880114307537 1.5636015703971264 1.133388039131093 0.9056302080226919 -0.12159646735827448
Ni 8.624182371147796 6.296673420293489 8.644115053329447 0.26177866813853623 -0.18750669689783836 1.090972807389676
Ni 8.551924655465749 3.0743641052772346 4.7472055111346085 0.9201039761588348 0.8225532368958545 0.29435171697855117
Ni 5.6463260947780345 1.74710493772725 12.795458382189736 1.1449837143884927 -0.9795270553121581 0.2659196868901033
Ni 3.041646436226449 5.530587340510881 3.199357684281282 -0.7287766199633255 -0.6680605330301914 -0.9511315348886006
Ni 0.9635818275073486 8.784099273425854 11.281633213232288 -0.8910034592484527 0.30639733528917557 1.041913845079496
Ni 5.902583519701373 5.214071776821565 2.230327249501896 -0.8537818558928327 -0.45418794454431455 0.5959950825225091
Ni 0.24252343975588406 4.1567891476946235 0.2001196676034443 1.8715275883665572 1.0207490380764226 -1.6271259780538878
Ni 4.15125874624996 2.930239055191587 11.571912366572272 -0.9666504564598061 0.2821142943720948 -0.355013296524666
Ni 8.065444518974541 2.6178596740953393 7.9516381520357 -0.7197808442226185 -0.20929885307226537 -0.7058284958075843
Ni 1.4762732784085615 0.23327976876980278 5.512681852539451 0.22138355215094133 -0.888688952182663 0.2105422385610632
Ni 1.7059383024357933 6.2049524094431625 12.471971724242438 -0.6722298339165326 -0.30364008425901257 -1.3668876578192781
Ni 8.011599786925904 5.613943038251632 12.567376261298682 -0.5356713459317872 -0.932425473838665 -0.529684789331049
Ni 7.336435365852041 0.5994044276366068 0.6208028985709018 0.6469875144099761 0.4837160359104185 -0.8807457860761864
Ni 3.5407489007207738 7.5549559338588494 11.091410640516706 0.9164504385666475 0.36735510591947057 -0.1076384625162856
Ni 3.685320100838931 7.514607240293662 13.44938234379915 -0.7385972055981731 0.25294178657319666 -0.7607367178096898
P 5.86287616680792 4.425232045380911 12.052714314420548 1.4962210888104943 -0.6478393208873101 -0.670127442861549
P 4.0309655437342595 1.9000135665779516 9.630096400906536 0.8833122612517819 -1.8516172225958756 2.2992678802423048
P 2.3808610589087125 0.14538914184442742 12.73964129520571 -0.07973427990684978 -0.9378990953587266 0.4287304237031584
P 1.1091196860292796 8.306858160524554 8.314520787332926 -1.4356204444093017 0.9065727744416193 0.3961920847558209
P 5.292519824204698 5.784837090287922 4.429909184888398 0.023756993210281668 0.03354672560719384 -0.3752368226603925
P 7.103758829105362 4.837047114972983 8.10221936488347 -0.44293731133115977 -0.9473859518032394 -0.6677016070288758
P 5.663856073138767 8.93935948473958 11.009869286241498 -0.5147783045328619 0.3750013096108186 0.23634788677025748
P 9.006635191725259 6.4814074181299555 0.6387641552963954 -0.060321679708192896 -0.2800795233302531 0.21500078855304908
Ni 7.903566415511905 3.0430127707010133 12.555417581468928 -1.6827386823221857 0.43354147193855663 0.4150508693335368
Ni 4.6244473296892865 0.7914023056898875 7.800159062247501 -2.2928025842329354 0.1842113139760182 1.719006920625601
Ni 7.387082689334351 7.802708623787452 10.467251392430397 0.06453906022365014 -0.7408129823025693 -1.3163441405437717
Ni 1.7175474980734156 3.1725821759759985 1.8195857284255523 0.7482766376694662 1.6806889988820086 1.0793563061966702
Ni 8.407427813686343 0.7119913178199189 5.225871515702239 -1.2992704728909366 0.34032818370866547 1.0211850971725769
Ni 0.490324462604676 1.5021964542559025 12.663731655611715 0.012308642164023964 -0.0324735471476731 1.0683165034427409
Ni 6.375251594769439 5.470208369444433 10.05444178005752 -0.029579513429329705 0.32029749031003546 0.45664746182840066
Ni 2.050282474402965 7.902051364359838 3.0122228415823677 0.9374530089602435 2.11174035740886 1.4428768688613989
Ni 2.232943733546725 4.398704708031212 10.115931478809072 1.7845361126766621 -0.15048718225069566 1.697197538059993
Ni 4.0238643223834645 8.959742964349912 1.609378422691194 -0.5028386156724824 1.276089406788783 1.030513059441722
Ni 5.3425629861846495 7.857045979830319 9.039470904638812 -0.12586167039253163 -0.28794812744505244 0.7361888532669967
Ni 0.627159607054945 3.457402497772367 8.944311750100448 0.6139730071571685 -0.6693679389877053 -1.7100108877745774
Ni 6.314919097664709 4.27005548719828 5.59048205289621 -0.3333844054009807 -1.098816986024443 0.5711695388383969
Ni 3.0941248338005214 7.858235713250348 7.791602276415639 0.9156569961310748 0.12198598948720926 -1.1349602687142195
Ni 2.5451465135884375 9.210070311757798 9.799736585455625 1.1649460164430325 0.9527166199875335 -1.4798863562062126
Ni 3.9758938990962185 5.312382795443769 11.66904480552526 -0.6553556838690133 0.4094674617084883 0.05697950270883736
Ni 0.04188977013581802 7.196771816091501 2.6398846140336176 -3.3183840107009948 -0.637771652238663 0.34739280386493077
Ni 8.12659495780554 1.2166790230337363 2.77214207325448 -0.005058902580146126 -0.8191462680968344 1.112635122854458
Ni 1.6799221786650125 6.529768222695647 9.592400441076318 -1.5068919382607788 1.6252020215582978 0.6571328303740941
Ni 6.383765624556517 7.651045497110844 4.037410552745571 0.4226165974959367 1.2706594940224631 -0.10828175252723932
Ni 4.1753973219672575 7.511437716104368 3.468441922639303 1.035627497850152 -0.283120367039106 0.3387790940539907
Ni 4.822444996200602 5.126440474602586 8.00401244793552 1.4326662468769844 -0.4859585520876921 -1.7188503404430786
Ni 9.094424505414084 4.695636144251777 10.749586286753987 0.34352123672466645 1.5927115051297602 -0.3766771546513448
Ni 6.4543502776166495 2.858185824941108 10.464843111734075 0.15489739550324935 0.6077262549165082 0.13773399635008537
P 3.573066893700768 1.61717303555085 3.2547388455043764 0.32990647415470925 -1.1397566616615984 -1.2018444321312785
P 0.3275633538693628 9.133629939520963 3.6730444685902457 0.20094456757029908 -0.15547075150821613 -0.12713796600179395
P 6.4844746996034655 3.4294158780246633 1.2070551950407866 1.2084010023028737 0.6631988340625159 -0.9144912579577475
P 9.082527171213798 2.1811996245678262 1.1486355662004468 0.7431166907350815 -0.6361248606638593 -1.309222441897326
P 4.219240857453779 5.870544370491698 1.1047622873784249 -1.1458987700035943 0.39744164089220585 0.11974321619961957
P 0.8118238939488308 4.416178917637881 3.5785656928514626 0.4918250381707981 -0.618606906384754 -0.2640831479019968
P 2.5023161104674094 3.594119598359867 13.308514188950832 -1.2474861412297933 1.465774599395179 -1.4780516169903188
P 5.6591807925897495 8.614794630880384 0.2564238017062958 0.31886332896667013 0.2251427620830574 -0.2551503641887412
