# total energy = -340888.43805093254 ev
CRYSTAL
PRIMVEC
9.06736860963908 0.00000000000000 0.00000000000000
0.00000000000000 9.06736860963908 0.00000000000000
0.00000000000000 0.00000000000000 13.27101050387182
PRIMCOORD
 96 1
Ni 6.488064773713628 2.0027368571490767 11.47224393604656 0.05489716625851191 0.7614550840329531 0.9231206514979715
Ni 4.264011589040161 0.08767510511846884 6.196858077419766 0.08619211971705157 0.5559570927640167 -1.1445587110359319
Ni 2.7985979149772797 1.7892093990668139 4.572831648420557 -0.2033189813397466 -0.5415422028902673 1.7961978652853066
Ni 3.337743639108722 4.354803148672319 5.2282999213438766 0.5118858134764152 0.2758546866156282 -1.2468955588336461
Ni 4.6646079242592515 4.606839720282773 2.3725648912296666 1.2572272797769575 -1.0686900847320755 1.0184432727613817
Ni 7.326460856632659 6.024604373486073 2.235541540416395 1.1214210965772042 0.3671393903642387 1.4411038361213762
Ni 4.729221991365889 4.721297111397997 11.493411707539744 0.9555625740767607 0.7223771441948849 0.32502703457522086
Ni 5.53902866176917 8.081990259887423 12.408660084673725 -0.043856849283950276 -0.1829944108497816 -0.07508341139839972
Ni 1.7458129739794763 6.751290477910327 0.4976271510364969 2.4448537685366407 0.31160356208046336 -1.0060194451757318
Ni 2.845294862156508 1.5211326527845046 0.3152288753544303 -0.27718266139843234 0.7545573284718553 1.9021774520419308
Ni 0.7168770253061015 -0.1596672898794243 4.563767906983594 0.00375303928452902 1.1477877594961912 -1.0790824837099933
Ni 8.68693787638385 2.532561326581442 1.4216835698190011 -0.20674214808868266 0.3853062910812525 -0.5955487390137097
Ni 7.1411329142256195 0.6517533720962656 4.77092825898639 -1.0626788455409892 -0.01117144323578721 -1.1037984983994344
Ni 1.0723251198660049 7.536143750519971 2.5501574616680456 -0.5212109475320831 0.6896886528229283 0.7014522211167596
Ni 7.6465570953357895 3.984546228067151 3.5637305680878737 0.10514320689825762 -0.35995084303559943 0.7852514151216025
Ni 7.65676695213653 4.053041128842276 12.649979933590757 -0.2897844093228429 -0.7301663012220004 -0.28952215680039173
Ni 8.482813279316122 9.021278950818742 6.595253762331984 -1.6664576857739752 0.5514111252645472 1.0318400057832615
Ni 6.922545864584909 0.5783149420780116 0.3834309001307416 0.5376228132312031 1.393725861058045 -1.0266013830921419
Ni 1.7682728454674275 6.124916669921764 9.354257199785469 0.1319217605436825 0.8453774338792215 -0.5849619646367991
Ni 0.21985013405664636 5.0003725755304815 1.0327632848683947 -0.4520135626008151 -1.406544867199584 3.4321314143284956
Ni 6.232464726328138 1.8549478198531064 6.922768921847163 0.4630932174537444 -0.8760059573983557 -0.16284313271288728
Ni 3.4736725585580066 4.684655875756976 0.49360849336856794 -1.5977230994117386 0.5081548856790733 -1.2819214400895278
Ni 6.239600745246595 5.63730080031839 4.998406770064761 0.9673284563634372 -0.3302137209824829 0.13606355062619793
Ni 4.95684013991738 2.9367302049439528 9.52883759044658 1.1261544974971316 -0.8978019702275248 -0.12284010995738844
P 0.32735013341058417 5.569676366908159 12.405686894580509 0.24546681835239018 -0.16129404305821254 -2.708425009799226
P 3.7604371510803913 6.742386322156929 12.357181914145446 0.5712261031079452 -3.4424536221901096 0.7324011040897902
P 2.6781016565181015 8.714910707849464 1.5554689633822334 -0.4003197337709493 -1.3333553303897876 -0.25390672158962724
P 6.6469250678068486 7.874728353358724 5.908213819431313 -1.139580026874418 0.5532798030421697 -0.3003382735792892
P 4.834285588834961 1.179347268906089 12.694158872569659 0.20766183168947464 -0.49427684214540035 0.04656962022942302
P 3.912261167307382 5.855371009961194 8.322131350914493 0.3559535489507482 0.8198720905192654 0.8952195542123293
P 4.970377720915163 1.1789301699604104 4.1397061291227315 0.5172684179445672 -2.00761607869342 1.2547343381517746
P 0.24128085923297773 5.4497694873939615 3.6762022055269323 -1.4289872553635001 -0.024627568740693072 -1.8042616161300475
Ni 1.6937753468218855 1.2610895948907 2.496223847781294 -0.40024517177927205 -0.10531341392753475 0.15015885237699947
Ni 1.690429487888073 6.374958420487667 4.819460441526604 1.5400324295684897 0.6838283373874094 1.2577463855052209
Ni 6.081638120623422 5.786531549187467 9.288088079000921 -0.99233526282042 0.10866124735384511 0.9312229688901317
Ni 8.598041396744012 2.4105689523388514 10.235691546740659 -0.008141398160211786 -0.6150449000651085 0.09621119451595044
Ni 2.1942850142677566 5.168001014851336 7.078372217216736 -1.0078642116939547 0.7721734988917218 0.00788917294008964
Ni 0.6307841759706959 8.920613027016062 8.974852211217366 -0.10344113660548637 -0.39434140470032736 0.34845646924275475
Ni 1.367676510248337 1.1821672204736113 11.475309613297297 -0.5786360224187712 -0.2496849701987958 -0.16540935077816674
Ni 4.042287229938476 6.744172593728639 1.9637508000438704 0.12203766866075111 2.2202421963667054 -0.5152207913869191
Ni 5.539273480715547 7.9868100939572555 8.032571288719224 0.3760438919427201 1.1830638090896657 0.7484090494822724
Ni 5.3474261004401855 3.326781190732084 4.541273579495782 0.7024204985672999 -0.24405322583431516 0.5374130112132421
Ni 0.5887215607726913 7.1888272719271225 6.962157570108632 -0.0862859649824385 -1.2232061856365062 0.921296196694723
Ni 5.193380578959037 4.504723017538604 7.12673121302081 -0.010284669755459708 -0.7536859816104955 0.01113750467405824
Ni 8.371937498712704 6.907194809910261 9.291817487617392 -0.637188011821051 1.5004091587499127 0.9815502563897741
Ni 4.536504143725632 0.6160007385569066 10.60891168333382 1.0003959283413673 -0.5159923794456209 0.015243042201999554
Ni 8.216803893025437 7.078296051322308 4.596161987273402 0.20970483026143238 0.6375045146202053 -0.20276902237354755
Ni 6.973295925431926 6.3483366269113155 7.288200188998198 1.7521697805308147 -1.2939955976452424 -1.1042795518009112
Ni 2.1727862838285428 5.464948262069307 2.687684958163485 0.579929287308898 -1.8846463851367028 -0.44300827377841123
Ni 2.4434472301003822 5.093739267783786 11.417793482161901 -1.2108687471170758 0.09644130824888553 0.0589790496373694
Ni 0.900894732981607 3.2253989448270444 3.6549156515079115 1.6031635537010196 2.1627901248968238 1.3455541864488245
Ni 4.103401292848768 2.3806012998286863 2.754477913892874 -1.7283675359048942 0.37594490447101064 -2.6145537762703612
Ni 1.0290465705676635 3.1433845977909036 8.10314624380171 -1.7385866425297412 0.6027336867979232 0.6107192761065611
Ni 3.6416092884039273 2.5533346675499105 6.957194092655057 0.03641042030823407 0.35043904689042227 -0.15140249497611344
Ni 4.316130822513211 6.660362907752405 6.301247969417884 -0.347751215645614 -0.0012845231393784331 -1.157426825247852
Ni 0.9432057940733418 7.409608624716839 11.432152566735304 0.0893535481641687 -0.23944889429308439 -0.40381180608460776
P 8.94119595324846 5.395401546561602 7.981915528503402 0.8385035895775236 -1.167178248207661 0.789749302991956
P 8.65038731442667 1.5429668758539383 8.15259423054874 -1.439766091146559 -0.2843809789190844 -0.5193767225368217
P 1.6481483491120064 3.0991811769173623 10.36561424137217 0.1519506541700996 0.8032825615917005 0.7580560856537332
P 4.384562251709645 5.887650841409361 4.042203810149341 -1.3420572290391597 1.5477771065109152 -0.1217461055622613
P 6.527698240921474 4.107300261254024 10.529485163234563 1.7611578429620378 -0.6704053791132841 0.4438618800279582
P 6.480411914797265 7.9900471444704575 10.295198871973248 -0.10269603090934572 -0.5242582189988391 -0.7518229602598279
P 2.119025856677932 8.215525394083249 5.969937209497031 2.4405505131755967 0.282622601467081 -0.06940975805239014
P 6.652483364626434 4.089446612905305 1.5762377706665096 1.3035655007218645 -0.384021510831558 -0.3630197117689103
Ni 5.206745879957518 3.0511513265856394 0.43985532011266454 -0.07904188182551548 -0.3856189372256649 -0.513654989561696
Ni 1.5515446063455012 0.995714924386917 6.927785896774204 0.8469141822387221 0.739888413605771 -0.11720913692385619
Ni 6.78560139987658 0.9333495646395901 9.422669587508297 -0.0769538889482352 -0.43740686843123383 -1.5832076794043832
Ni 2.775149700335438 1.4334330657713983 9.44722039414567 -0.42027689361916654 0.4612541073624766 -1.8890128896355145
Ni 6.483485752679548 2.0198288465535126 2.5528912732359172 0.4091216483332954 -0.4348915582085478 -0.008471270695804766
Ni 4.371786329656143 7.300745799894737 10.246692984801347 -0.7744214143856339 -1.1683373015127687 -0.23649315409887015
Ni 8.498454489779068 7.156946404687867 0.28301342222179315 -1.572590823120485 1.0515701372223376 0.6038410609294891
Ni 7.24138173908262 3.6273281831986295 8.330465169196518 1.0282672008303388 0.2290600948595926 0.47012904125460325
Ni 2.881455527273161 8.607126899865097 12.337659870014013 0.3181693882234391 0.4986063227586896 0.06556518749531935
Ni 8.927767180671287 4.724525094542813 10.24799324542766 0.0537630526540687 0.31209284301205603 0.367344050175877
Ni 8.612521984053766 2.2550998540213656 5.8097168101461625 1.5932756051633463 0.5952756878579812 -0.05919116564817548
Ni 3.4846622090397976 2.6584345344925193 11.697918040816452 0.12365232144603866 0.8430706401229158 -1.1105412164399067
Ni 1.2897787484586765 3.392356398887459 12.803154080970172 -0.5536495276767627 -0.3169802530113444 -0.1424627692843224
Ni 3.0601370886544967 7.941264702562836 8.094188590574843 -0.6647777485138615 0.31693911536076386 -0.4524048845019628
Ni 6.010296066175623 7.798771008403306 3.496035409204246 -0.8773509014620244 0.259608657070411 0.9290311034451355
Ni 3.422496331396926 8.134281773359774 4.083131190825629 -0.13364208566889887 0.10042214727350447 -0.5109697294200489
Ni 3.0553676528843465 3.946236596643415 8.948044536589133 0.3493085328304048 0.8554476736310299 0.5776487188048375
Ni 7.337495843956372 6.306599530238308 11.608869229387759 -0.30025599827812804 -0.07675308579133878 -1.0538756454270626
Ni 0.4569745116222535 0.22123200099841614 0.4636789238056169 1.152203114955067 0.1940514399948916 -0.8230947112216213
Ni 4.787008330079137 0.19279038658733147 1.4295794342080639 -0.5549708175913474 -0.020722320149015927 0.7156642509510837
Ni 5.909330919216261 5.83090725006031 0.30041279541445753 -0.8949585872414588 0.07729456011710559 -0.27580789253809274
Ni 8.170116013214592 8.817562385328308 11.340409840159632 -0.3052830191790742 0.9768201979039565 0.25925872993015997
Ni 8.97520765205803 4.924315489522837 5.829967870695695 -0.7232518334903544 -1.3812904635081695 0.08982071760857434
Ni 8.098982508239633 8.865229540924659 2.2882537797817792 0.10950636896295979 -0.13193615872138567 1.6732878213219313
P 8.759948326614362 1.62714832393393 3.420709153088377 -2.2497193798902155 -2.0993823500641393 0.9663573506994195
P 1.8611498998279785 3.398685422019711 1.7147871595788613 1.2263596436638233 -0.029038553324195148 -1.2251476256335931
P 4.621039219172613 1.0648808104224812 8.10310634738082 0.09410160437211536 -0.6722352332331712 1.9622872728496334
P 8.513352176034498 1.8274736936486282 12.496991667263218 -0.1275711968844706 -0.5153151508729382 0.26748985959070065
P 6.392821136204771 7.768848692735062 1.346039049072843 -0.08039248231613896 -0.49337232805326 -0.6209011017355693
P 1.7474541676570376 3.225562157457962 6.102262756750388 -0.8416426494271375 -0.9016046318030666 -1.542424069729118
P 7.011106851594525 3.60709888433322 6.039663458898746 -0.906564289801187 2.185746990803313 -0.998179380306023
P 2.418239945991983 8.461586569928437 10.098216640981848 -0.3149796776415479 -0.1840778737219475 1.1498032472643231
