# total energy = -340884.9461336351 ev
CRYSTAL
PRIMVEC
9.12884034905511 0.00000000000000 0.00000000000000

0.00000000000000 9.12884034905511 0.00000000000000

0.00000000000000 0.00000000000000 13.36098060816944

PRIMCOORD
 96 1
Ni 6.541754313056418 2.4664026735007303 11.737247515691733 -1.5369026256902563 -1.6666083524192263 -1.4153773778895495
Ni 4.3828109793348125 0.5998588317900304 5.855903631834933 0.9642994397291265 -1.198382184614291 1.6129358025964353
Ni 2.7024653536476544 1.4146872454344177 4.540235090875462 -0.1300538540970083 1.7293098452135054 0.6030836139381742
Ni 3.4978155608405355 4.2798011459005005 4.718176270888605 -1.6589989155030846 0.2423799518969503 -0.277645974188096
Ni 4.032117452109312 2.7289572480668647 2.672610394478603 -0.12114549586378492 -0.033449280797381103 -0.494088123173362
Ni 5.492576702580919 4.7110566883739455 2.999299636254305 -0.9724534362948285 -0.9426078136883056 -2.079131056014271
Ni 5.525184919970796 5.078382962543555 11.497751478725005 0.29927409398083293 -1.5094494145753101 -0.30663310544906547
Ni 5.6055095853721175 7.9474952950412066 12.242679449654943 1.723415848326574 0.7838236815361405 -0.5331966591390495
Ni 2.0942746293571366 6.423444543355187 0.039620992473555744 -1.013579516911177 0.5774355743527668 1.5838437703264852
Ni 3.1245737981858652 1.696969243791012 0.3391847983163692 -0.2036128584310816 1.1627551794393005 -0.06044560688056687
Ni 8.551368077891238 8.999393299912613 6.354535492692398 -1.3585948216828667 0.8757074523213306 0.7507122436941523
Ni 9.08985097799668 2.713209998627465 1.0915536869379308 -0.49307099476275723 -1.0781792551694334 0.49756528308868503
Ni 6.91295121549403 0.789798046549958 4.486403232777376 1.3009632872123273 -1.1679806895042981 0.6519546286072643
Ni 0.9838972738139635 7.286768095084748 2.165480496228014 -0.15913123107893884 1.2902932090929908 0.095768450551577
Ni 7.647412058187899 3.863608189847351 3.8987606150162186 0.5002001496083708 0.8338550350619187 0.4053464975615793
Ni 7.66111444741024 4.154224819356509 12.714202306491977 0.8641868532762407 0.3362640409416208 0.45612449944539507
Ni 7.8962733723719465 7.399837910479767 8.773420726899237 1.3556506514528783 0.47449220331930536 0.527735121803846
Ni 7.2751562102807386 1.03754746799098 13.362583662887946 0.6335457870827734 -0.6028419302410134 0.4239119192685925
Ni 1.7826068942205837 6.58511630426636 9.270997293823257 0.8428608381049549 -0.36584586836379573 -0.8670050394513262
Ni 9.008887293777526 5.088360784941967 1.4268724214064241 0.6206609607003053 0.3955009722260672 -0.12460003007128863
Ni 6.9668205018371605 1.8370512974997613 6.644495758587242 -1.0750522795046773 0.36064118423440467 1.5977907194248806
Ni 3.74180207432856 4.4995597173524855 0.5120503431478853 0.23824998888897678 0.9929201887896125 2.4260939714306344
Ni 6.093491741188421 5.996543457683246 4.648044868515709 1.0139132461015121 0.9790989666358041 1.7430832448485143
Ni 5.437785403372062 3.1063526330374347 8.699681606857673 0.33328876036338084 -0.12626507647853738 0.5139604366172568
P 0.13808192480893894 5.609453244362158 12.35866684239537 1.4264269508354919 1.4174553434645007 0.5574565601276786
P 4.142293425143584 6.253666372297819 12.562061054806739 -0.5613101295458139 0.1283975494405079 1.0441707594344727
P 2.6659226061079915 8.720488972450267 1.3585713515046003 -0.3981031857356047 -0.5737036181141604 -0.3836505006453844
P 6.777890023925379 7.924791869327706 5.590033462488282 -1.0887765710693056 0.09919444551399045 0.3588671230531174
P 4.675773720789435 1.1439349723195407 12.290258052178542 0.6131386841813311 1.4019708746756563 0.4809667553000555
P 3.925236990406996 6.3311337106994126 8.06756054072342 -1.4185891999586278 -0.6346351634922103 1.5053351352966204
P 4.987916155619233 1.1751647348309535 3.8846382991421593 -1.5225833808541067 -0.39960830952622145 -2.16043936527646
P 0.026270063601021004 5.758846715130726 3.6306456638509315 0.4510488846947006 -2.410812619791532 -1.460226930104072
Ni 0.8184927301226339 8.992391479437238 4.014747094872622 -0.8798376724396202 -0.08751495229353314 0.7843931808863652
Ni 1.8004994211198437 6.5973763367284555 4.547249691727192 1.5547100861853222 -0.5249930402823346 1.0725372263923076
Ni 6.2543510353169225 5.537390179391362 9.052478418877861 -0.8413559714246542 0.49330625070201484 0.9136980726324908
Ni 8.667130901161402 2.1739328894198633 10.13268678314722 0.24012740841734778 0.7656662939008233 -0.4208211961584108
Ni 2.390085568971233 5.193342447871301 6.781860156552159 -0.26213142349226465 0.5759649033445113 0.5068757618563334
Ni 0.8203084564492985 8.93267060649083 9.135944318210836 -0.907077996212812 1.176332146792787 -0.31981720823950727
Ni 2.1084152029117047 1.1139649897632797 11.311005532286181 -0.08879561877816965 1.0546189513509903 0.13370867724077617
Ni 4.273392700041684 7.0356154419967645 1.53973318635961 0.10735101318285382 -0.11885078629233725 -0.6781361720986385
Ni 5.590072716501378 7.612923299705549 7.675789971003736 1.1907218398555557 1.28564105503296 0.5148896332997455
Ni 5.216694021242886 2.9209915316652517 5.204957071327387 1.091936456854526 -0.3926413912900851 -0.4519300017480733
Ni 0.9677939996046293 7.570757186568977 7.123567253430909 0.8161010535126073 -1.4202457617254443 -0.5185601401727973
Ni 4.899704172237829 4.842228993994083 6.898180751961886 0.4167843070848757 0.05694325015426323 -0.2808665380079227
Ni 0.7339651466680368 7.969714892221205 11.429851164910366 0.16917678824039897 -0.7845651876878553 0.34368835843015005
Ni 4.632384343058729 0.5888238896901193 10.14624858822964 0.0871511411962112 -0.8058233257356832 0.45673513644620045
Ni 8.728175455944745 7.234240748259063 4.9080223714779345 -1.5874620838053626 0.4454994156313811 1.1679956019026336
Ni 7.292008049390961 6.0857048404511405 6.90166796893919 0.35135590227773683 0.5157108436494602 -0.5467947095384583
Ni 2.521997310652003 5.6227996088145655 2.42368152687667 0.2568848303813447 -1.0737978382722861 0.2791829796579127
Ni 2.3710336793596225 5.601693730145643 11.30966907007289 -0.6981043876904492 -0.8746869814766162 0.018710174814993586
Ni 0.9480848334946789 3.215131893512733 3.792007044193444 0.7195101070597351 1.9652188446741314 -0.917891027667916
Ni 1.6629551850019082 1.3811204998177955 2.4936933414422295 0.3451451454813346 0.05633801247009652 -2.12220628993719
Ni 1.028537302659567 3.6457027729670743 8.200916464932488 0.5272101025383114 -1.1497497683185682 0.037050882105710385
Ni 3.5518765528290146 2.9072252405611274 7.021956871207646 -0.7567245113265032 -0.6269709620787332 -0.5580638546943744
Ni 3.988737203218861 7.151433038308456 6.059859267921965 -0.4330367643879961 -0.31562939541040486 -1.8438890007136826
Ni 1.1316384244964266 0.41145143642484566 0.1627288806126699 -1.4402003504705003 -0.7027711970384993 -0.44409147954026096
P 0.06397947692523741 5.61718537205791 8.176105190004172 0.02066447032788699 1.111951209413556 -0.9460304662166094
P 8.861803419593404 1.5524688313989763 7.9392017436697895 -0.7016381118753207 0.030782532598495376 -0.13224237710789483
P 1.9574150562583053 3.4015428115142097 10.43485869865081 0.5934754014244489 0.024947413973957035 -0.3689733582491839
P 4.0377225600257125 6.175039671183876 3.9130974586362632 0.27238189757567927 1.3081163533173408 -0.6109131372849221
P 6.956221918301425 3.8048549739679434 10.257090966602506 0.44259149795596686 1.1038470922491828 -1.4834810155360065
P 6.221715431406283 7.889627576666507 10.058319598896132 0.9292432194559417 0.31044990809199435 -0.7336761141474719
P 2.4413074916404924 8.55645284191312 5.538968555871404 -1.2336862592322237 0.14638987225287045 0.8832747231456273
P 7.042224722341185 4.188594902915546 1.558544987472521 -0.32758708199291325 0.08978652193652924 -0.5547705286550833
Ni 5.615103996479832 2.6979739642423293 0.5288547122887824 -1.3346879331582822 0.8850953212941338 -0.8574207381970007
Ni 1.5880347930313834 0.950503976162181 6.877297616995178 0.2853713678568118 1.1007268014526463 -0.005154547617745962
Ni 7.008311080794884 0.634162274815209 9.015575082148139 -1.0030711611806855 0.8212437740558114 -2.186700355855518
Ni 2.761328115610118 1.7274321837210282 8.989521372061153 -0.38423439817331245 1.2139157614735159 0.8161072241601945
Ni 6.589507276428883 2.221485018306724 2.5119044648663795 0.050747148645880334 -0.8204585591503548 0.17617455971447077
Ni 4.340690510399513 6.892146588553513 10.270198155440239 -0.9015822632055635 0.6936746340538699 -0.252544551134778
Ni 8.692855972999215 7.438078622306809 0.222458882399333 0.012409686518262499 -0.3271060285914366 -0.7916120672323076
Ni 7.684018707609344 3.897914371524606 8.032849038538856 0.6997766331865497 -0.7767752593297912 0.4555647702871831
Ni 3.458086848051974 8.417557537437485 12.556355529647535 -2.3514455906871246 0.5657738217441224 0.12120951633250095
Ni 0.09358248010325837 4.834277774132218 10.278308217122538 -0.6147101424335091 -0.6607755693330039 0.11393046617258443
Ni 8.907758001435688 2.0350375849442286 5.393172761047222 0.1997358919741786 0.11155450974124015 0.5522264220769909
Ni 3.751980731212578 3.468265504935992 12.015917231959532 0.713473671057668 -2.208334389185526 -2.7013583327604316
Ni 1.5103209759429128 3.5464448928774535 12.778188173605395 -0.8348487664337557 0.2787901150948683 -0.2855829696469856
Ni 3.279809726717457 8.708603222438615 8.179725688049196 0.41312125641099173 -1.2031806344441989 -0.9586761800050779
Ni 5.516238656521166 8.065512941854285 3.3572934970315083 0.6607670846925717 0.10564431490439226 0.7723812440271537
Ni 3.12871829166151 8.387505395318932 3.3924997823578797 0.4767959117518176 -0.5831884176761439 0.522374371712565
Ni 3.77760538580759 4.538932405371113 9.760343298373616 0.028705081244176367 -0.2856055953548049 -1.639403252759344
Ni 7.416972743637885 6.522556362000732 11.320077773731327 1.289883889469714 -0.09700386562057488 -0.01256241004604288
Ni 8.472604444173475 0.11666657845538049 1.899837635003706 0.02637926132447715 -0.9193043630756749 -0.3674821184156381
Ni 4.650085164312639 0.435836394513266 1.5937512727988918 1.5668456931065917 -0.11470925332013793 0.2613189548932983
Ni 6.308457671506676 6.068542620772258 0.26334878366829545 0.24439621099603073 -0.3414697535122765 0.9575950311257574
Ni 7.712728910210454 0.11864844967468119 11.021927112359943 0.9447875949484438 -0.5861544422830034 1.931137072499074
Ni 0.009105105270062324 4.840257164499063 5.896467633506801 0.013419615840015598 -0.47568185275203234 -0.3250226636998467
Ni 7.644673406111481 6.939379208031458 2.545293198098035 -1.02193534507504 -0.0599270153729355 -0.1402999573050487
P 8.582068367667878 1.6284390399987942 3.2483079247664537 0.688470464145111 1.423410275496355 0.9636718334474565
P 2.148883351760899 3.569038772507897 1.9089637366063543 -0.6756218903172171 -0.9161892144854609 -1.3723268265569786
P 4.842484601521216 1.224871270017929 7.917249621509252 0.2835867651525632 -0.3707579609534324 0.21862244446603638
P 0.04331999854477016 1.7688406031164587 12.180096685288678 -0.5131040021542325 -0.23390071078134553 1.1353922140453157
P 6.735240082255306 8.221789558174915 0.759663744869112 -0.6869352584475074 -0.4238751524933861 1.645142726346283
P 1.5903626472963381 3.2344850348527494 5.896013930146142 1.3923287236002022 -0.21886644215604242 0.47155240396469117
P 6.786343330001254 4.189078731449047 5.997409784623419 0.8631350149729587 -0.8244941626723091 -0.5260127397961005
P 2.5912852081853632 8.40183767451885 10.261566836979396 0.023988649605113523 0.23753213688634572 0.4539058945275215
