# total energy = -340872.7254916171 ev
CRYSTAL
PRIMVEC
9.22819288187333 0.00000000000000 0.00000000000000
0.00000000000000 9.22819288187333 0.00000000000000
0.00000000000000 0.00000000000000 13.50639308265310
PRIMCOORD
 96 1
Ni 6.378111557648996 6.66265365279198 7.963328661989749 -3.6672762819295874 -1.5331686125691208 0.26097108463557633
Ni 0.31526459443435145 0.7206701756156922 12.063356561607975 -0.07249765294909451 0.9630074603905803 0.8442415205025654
Ni 2.8270753042499663 3.8873485098494065 7.493279590619766 0.8450082234652608 1.5223589235481265 -0.5180400060032692
Ni 4.013645555776853 6.2791207340581945 6.913719555928067 1.7472587163824427 0.8449377752386416 -0.7480496092603246
Ni 8.451769521503339 5.186678048544748 2.4330416249900333 -0.3319232474744219 -0.9251459094581164 1.1331507263093066
Ni 3.5355052050068125 4.157568449849954 5.130943455633496 1.1367348441161391 0.5732027672183418 -0.035965105240699353
Ni 2.103132811486395 7.581200274191968 3.9104928172574174 1.043451621880261 1.0938853530507806 0.19721723931738291
Ni 6.95622092044096 6.956839209354969 2.001039469494248 -0.8169335767162318 -0.4090476005622504 0.28122212157512855
Ni 7.7300510231916535 3.8257041823033497 0.49385688583646137 0.19133429817404465 0.368805722323068 0.5334738240598361
Ni 2.608136431341252 7.406695149357246 1.5927279304170605 -0.2306726907623511 1.762392486700087 -1.2534220470982542
Ni 4.6980267862365395 7.764749027918178 9.429042515902966 -0.15605336348456353 0.29128079136271123 -0.36282790747307836
Ni 1.9914901356402568 2.603992972798111 4.608462561536202 -1.0414446187525612 0.07930927655428922 -0.5152801838699448
Ni 5.705773118723382 2.0861160240620045 0.49651921944380234 -0.4728394982072308 -0.5795467071584987 -0.5768737883120257
Ni 8.695319984466744 2.373472717992645 5.890637812735231 0.4888775255067 -0.7948514001052117 1.6612709993667132
Ni 4.493004027989421 3.732868563274407 10.206362721150358 1.1855330965657649 0.31334831268571195 -0.36510719042555834
Ni 5.981096249312697 8.583871100668281 11.778641899260636 -0.5771846346842253 1.28292545587401 0.4475244164812099
Ni 0.6733498488506215 8.942737060190899 2.2869833271154127 1.273240624486078 -1.1203301775058705 -0.8655860476166124
Ni 3.151501648442959 6.104532555488754 13.160332135398463 0.2706212061308307 0.05976323610156159 -0.6232991696541007
Ni 5.668731153039269 4.264532431973659 7.366670631777491 -1.7519874893166794 -0.6398830421547109 1.259322471743089
Ni 1.0710701911127471 8.023489096142182 10.811597433701134 0.9040746906101139 1.087665597393314 -0.595613016592742
Ni 0.2531837733713886 0.141635225091264 7.972701737362283 -0.5069996890287075 0.3201334539283454 0.12693304907983946
Ni 6.216627412779467 3.4787979605800876 5.17158441648871 0.02115786502453776 -0.16066540833527812 -0.835483057583645
Ni 8.890874616956042 3.2971963555233716 3.8991338348058546 -0.4262346538644982 1.0079511149808058 -1.5881966479785423
Ni 8.892683342734339 3.5787577444092635 9.98731587838651 -1.1166936091945479 0.14793407681153878 0.278533776109688
P 4.51362903877766 2.448165710082134 6.382270704119806 -0.5491668093150607 0.48868957786560996 -0.46810146930161317
P 1.1500266082510806 7.349055857463132 8.017057045797932 0.42563635815886697 -0.2767489162951234 -0.771980151933993
P 0.8369860082686152 1.531547780966148 10.035520266016686 0.4914290882839601 0.03140139712941689 -0.1023144792002109
P 6.967737704988486 3.695762000241069 2.8022929926294666 -1.3471233307081574 0.6123835511828615 0.8552682106303722
P 0.6850585798072738 6.633538704677038 2.3975333849403753 1.4155442424847169 1.4863408535823046 0.09838043425312733
P 1.836244249067304 0.46011123060136816 4.775185551427872 -1.1065878882191136 -1.3302815765604703 2.554460410522891
P 4.880532754182405 0.6232232286713656 2.3924006641348186 0.8788549968113767 -0.0006373764736827733 -0.46602170395444903
P 4.305404097647535 5.523950037040752 8.709003548671129 0.4806111717328497 -1.6524477446481285 3.649479620067799
Ni 7.079481890954835 1.6144815491781865 2.3534078585041134 0.5308255878037116 -1.217132982859233 -0.3686619976563522
Ni 1.9678936467876715 6.337202979204136 6.076431785756643 -3.5365932788890126 -0.6759872440764358 1.0375609674274389
Ni 2.9913002223651812 0.7249465201343813 10.755748411199827 -0.3402906456025107 0.45530328909568035 -0.026006194255774565
Ni 8.631470118854294 5.401639570379757 5.184779809296811 0.5210731364026381 -0.06560838202842895 -1.0778840925265178
Ni 7.10956579930815 8.823518038099952 8.45493479161536 -2.1822009253232677 0.8694984952971412 -1.9322112793998596
Ni 6.289631645596362 6.537417849030372 13.145677765317153 0.8119839460204403 -0.592685815643618 0.12677981133142682
Ni 8.58024442091894 7.315908189118007 9.252743430398342 1.3218164765122526 -1.3492066955997473 0.921552021459271
Ni 8.13124670284208 6.955584175141456 6.918123249506657 3.069278052934121 1.3039118283176898 -1.5845366826284517
Ni 2.19748185412575 3.710010329841535 9.891326063076841 -1.190672217564543 0.3369574674642197 1.094591892199502
Ni 2.831993930983806 0.7202133800747447 3.0381683676856777 0.08545806976450443 0.6241548327861767 -2.515956855131054
Ni 1.2034670724455743 8.027171145048003 13.225905827415945 1.1890755625013845 0.41111888126898233 0.4044625522947292
Ni 0.7075615278194087 2.8515392432207145 8.066733330171163 0.08130625237965998 -1.2998163180920774 -0.0969249327535234
Ni 5.788568464044224 4.1002244601237265 12.404339206407315 0.20650380682563144 -0.35071338359773147 -1.133197520386842
Ni 8.320277003059662 7.665933539989558 12.103753898174688 -0.7321349949125973 -0.7385786936554118 -1.6947691311241586
Ni 5.936154950637652 8.766893847407944 0.7609881497247829 -1.014441607801156 0.06094362956290794 0.3115338851847925
Ni 2.3903879952968254 6.387302837624426 9.65746243403935 0.8170767871623154 -0.7852879247864928 -0.6245888349998018
Ni 4.95809571421603 5.980828631723051 11.158820182435598 -0.5787512078403968 0.6016471386019638 -0.5978107955750092
Ni 6.808708259389503 1.3461626168834016 4.736488970784326 0.2798715210845051 -1.1023275702808628 -0.6945593506516683
Ni 6.996705002019485 7.381456042195798 4.600938815990049 -0.9097380595434784 -0.3450926949768444 0.352985724571676
Ni 4.618544362111661 0.6225440336852294 4.5786942573748135 -0.7453376096458002 0.8391003426212581 0.35362258682472647
Ni 3.4094111793197874 2.0545648330620088 8.695253541478971 1.039984489267267 -1.274281921266399 0.030936798788172522
Ni 3.387318885884868 5.555205925872863 2.6193754472871116 1.181676956044468 -1.094703735187018 -0.46814826337914855
Ni 0.5376289724905353 3.2144102383952755 12.09074768331789 0.0538044474149654 0.23304376209768896 0.5524300534473646
Ni 9.004196823882028 6.252155954853168 0.4776641760243256 -1.1308832704313685 1.2581240805596139 -1.0343419462695091
P 4.729061198442736 6.653120929684933 1.1099310335871786 0.33653992031082686 0.3468289609416607 0.6626486179860007
P 6.716472472889078 7.48989653515893 10.222570196070887 0.34102572399632236 -0.6114674671264952 0.14065374110004164
P 8.13199418645454 5.106964919601209 12.239344657017048 -0.15548926345097738 -0.12537290368157117 -1.0759591075896633
P 6.426984066434015 5.492122000258363 5.825388030283149 1.088645701918396 2.01878597926731 -0.21553634934154492
P 7.72673810199569 8.676992793672364 3.0922345033483785 0.5866164695210865 0.7611216119529344 -0.7411940197910719
P 2.1770598635779317 0.6267087170716868 0.8560311524586681 -0.19723909369425385 -0.7721243908213412 -0.8602013862659315
P 6.990079159627559 3.2922131314403074 8.86277384722393 0.27350289855399995 -0.9093961028230274 0.8822115719884355
P 4.599746533487212 0.2505066746556534 7.910654137793208 -0.19801402418706543 0.45260003123190434 1.1005643077328529
Ni 3.790664734445209 8.982953524179777 12.87482015719783 -0.3717550347593791 0.15589189820603475 0.7116181059061679
Ni 7.103272171855094 5.3562460902601385 9.736070025491868 0.45338833146115465 -1.1532858064962848 1.3619740225677448
Ni 5.729526486852656 1.3390199956976758 9.814218052945616 -0.2630809318897276 0.19236376787982354 -0.7893716079375631
Ni 8.074428720102398 0.5504653886007996 10.1394380217148 1.1718018630226013 0.01751255496246661 1.361442832654623
Ni 1.528197946999199 5.320468386982284 3.8739713216442024 -1.14858942946188 -2.322431719953278 0.7671331082543369
Ni 8.282007687740276 8.631488575239787 0.6875566515837286 -0.7812194111440739 1.2802630785504985 0.11792107538921627
Ni 2.6284384553833666 8.897048277903393 8.657044209412437 -0.665236433317835 -0.3692037290924351 -0.4065065793079515
Ni 3.2559463339468926 8.470807283139196 6.146435010292404 -1.2734049179780844 -0.12985922158769894 -0.281370988448167
Ni 4.727280157242678 2.7579376841938195 2.8530905024213866 -0.18935352029859 0.32837409667058287 0.5299061613132358
Ni 4.538489790036504 7.639162552832205 3.23167434138527 0.917479394051794 1.2751337277437331 -0.3894246841250003
Ni 2.033367674323492 1.2412749781276398 6.8560202807811015 0.45919516795091886 0.47405717266441577 -1.306179541305944
Ni 5.48072518221654 5.4784735031864145 3.7729032318661826 1.2677181520059522 -0.8604191587036923 0.10391293403558234
Ni 8.116961460470629 4.402152470400957 7.188466847290005 -0.9236533840729899 -0.706591342115538 0.8412644401521125
Ni 0.5902038322054153 5.178437272422199 8.550275864974955 0.46405995224238783 1.520552466467007 -0.3670370604584195
Ni 2.683706101741651 2.130466718401278 12.736892819952075 0.23955353819174874 0.5497507068429887 0.5343747386075506
Ni 1.0634477039042076 4.432688560198847 0.5668758837617509 1.659410806229523 0.7679995700196902 -0.16730322536676995
Ni 1.0509342745400678 2.5180600419434875 1.6329905353696728 -0.7758591752734251 -2.301759022095274 0.6272116173346295
Ni 9.109084462637789 1.0155533835503099 3.8759433864341117 -0.018709917704677455 0.15804725398614072 1.2511435354767226
Ni 7.39254832987699 2.3350096106255838 11.487740656496095 1.0089916404301784 0.5351177874211622 0.860128624046467
Ni 5.309043884362222 4.3878672280295055 1.1140532672870027 -0.2841243828235881 1.4803476121133474 1.2885003788586262
Ni 5.533695008580968 8.553953299784402 6.296478041794928 1.4963064494354488 -0.8527557286211637 -0.002100077062138319
Ni 6.593663683819775 1.6905679983723847 7.291602052243222 -0.9593976315521349 1.3441588487631948 0.3169488855527768
Ni 0.09203830317565238 7.8286081217233745 4.961100413774263 -0.43735056127200167 1.0695845715218868 0.026448938220148
Ni 1.0889267440770616 5.860852897826899 11.820835964955071 -0.5369119032071076 -1.0177868701243054 -0.12879144244481688
P 8.006232375706386 1.7379732245107227 0.1911084892240736 0.8856190550080876 -1.5265032847338034 -0.7359163163319004
P 2.777686016671149 3.6259876348854196 2.0676264170752856 0.5359127725186319 -0.3981741481828562 0.42974420967965343
P 1.0735710313470257 4.100944259157946 6.239345377682593 -0.7824638250741364 0.029972635102690312 -1.1354004415754317
P 5.417761223107746 1.78110579740747 11.894081053602648 -2.1518860763898098 -0.703236309600376 0.051653462510233616
P 7.583894906473922 0.09503838863751216 6.2594296163758925 2.2455675625053715 -1.5395128096195938 0.21963288800842176
P 3.3338138243411493 7.709324502283204 11.116328968934727 -0.6612864475311514 0.4818283319694024 1.3089640460296166
P 3.6855463908707864 6.354238223014018 4.819755876754511 0.44606377277528336 0.5191152413453188 -1.3041686815235023
P 2.9748186701200825 4.29673882465865 11.954049541345958 -0.5588141025968375 -0.4768720164053917 -0.4156869602556389
