# total energy = -340887.7114698398 ev
CRYSTAL
PRIMVEC
9.11669159179150 0.00000000000000 0.00000000000000
0.00000000000000 9.11669159179150 0.00000000000000
0.00000000000000 0.00000000000000 13.34319967389751
PRIMCOORD
 96 1
Ni 6.0283939577603105 2.3516778978328032 11.387700258316418 1.3523979488435354 -0.031162027425101168 0.36855709664737174
Ni 4.760918585192831 0.3940133741365525 6.086540215537417 1.023460523470315 1.1356194995647733 -0.9162545205057576
Ni 2.9408167297663392 2.181405452473287 5.276274210252478 -0.04247076756970105 -1.2921863123506454 -0.5186791822491648
Ni 3.1709402541955787 4.6008568342062155 5.077781046650718 1.4049818935878384 1.1546454058479727 -0.09153152965209398
Ni 3.938647720666612 3.091871189645432 3.0664274156049616 -1.2301777318583331 -0.7682924186697606 -0.8967884413613457
Ni 5.2698761162248875 4.942450144436751 2.7496333293326076 0.5040236371195191 0.5453862592267059 0.4291307444653706
Ni 5.636266827075324 3.4109098053415434 0.6896576480198964 0.12195796446275126 -0.9583792175899494 0.14134253963695012
Ni 5.833123544569998 8.31292742339989 12.67433162286277 -0.1345226885016393 0.27125189773629416 0.23754344974025543
Ni 2.697355485812499 5.269265297900795 11.776600991913396 0.0572083308901918 1.4727397178591022 -0.4836628140749799
Ni 0.722270788180768 7.900433604117528 11.559894502223974 0.8990150166990195 0.6796716349065585 0.9996929887370719
Ni 0.6524086702799 0.41865670267171917 5.104708106382681 0.41099495409660836 0.6475457009062912 -0.7607506017667608
Ni 8.719850944234178 2.418612646123726 1.4835901889847558 1.7376456187727107 1.669934845689298 0.006209214134505435
Ni 1.8948587249423692 1.3801941450911746 2.9712500690124246 -1.032016383460126 1.1251029163041655 -1.2653805050117108
Ni 1.9300947372202795 6.678186137607155 0.5624934779659685 0.6753591235741336 1.1635985012762025 -0.48223945136489205
Ni 7.6574828948823335 4.004433765840584 3.8076818902970597 0.3518390125617424 0.49414777276670374 0.3065667709875043
Ni 8.048142238251216 4.073638570291196 12.707542817979768 -0.3404778219126523 -0.019563009733592113 0.6859644098938056
Ni 8.043228341584257 0.1349644112195113 7.1935855227855425 -0.404282060852807 0.5920582093619481 0.1457236994237813
Ni 7.176012188434468 1.1234225316869462 0.4553422688829251 -1.6769665557250988 -0.9549905036233746 -1.1586581265517917
Ni 1.867344550283965 6.65498415798302 9.817272672035847 1.3718971952187275 1.0078806667541866 -0.5467227186499423
Ni 0.4847563620300014 5.0306267836998675 1.5711350415335497 -1.8174945698805538 0.18991196390522133 0.3786239939650705
Ni 6.271390250452528 2.451770052761439 7.027956208358274 0.8415927700258086 -0.7778592364225894 0.8469604620956253
Ni 3.5956960234168247 4.856197127059957 0.7990789132626291 -0.04306880616501615 -1.0383176430878052 0.28829265526866477
Ni 6.477190442214894 6.126325456826109 5.103586753339942 -0.3956040734628348 -1.1828840889786918 -0.062038405288983474
Ni 5.7039947275184275 3.599324466595766 9.216414333301985 0.014423374514181611 -1.5412413622749261 0.6318804835652085
P 0.34312309104818955 6.053473975813747 12.623747660605593 0.3844501137285444 -1.2353178812983756 -0.12084750500739187
P 4.440767733145386 6.5366768536284425 12.977288394921562 -0.7024955747796096 0.0007749304928115686 -0.7182260981409888
P 2.5051756310082687 8.826014815638128 1.1812560869488815 1.5314071497933237 0.2539578865425368 3.6267734367195343
P 6.898573035616521 8.106917547735224 5.800528637791936 -1.2733272706626135 0.45169834535324144 1.0139860083209762
P 4.747270898160482 1.2139330439495835 12.824428830144404 1.7593362163722668 0.5624342158479282 -1.0439447594665958
P 4.435625919193319 6.392824579958806 8.497096441467095 -1.107848500099092 0.5193319853418153 -0.17015355033137147
P 4.968159214197089 1.259379750600394 3.8376375149135558 -1.028763423740467 0.21723482008989037 0.10914564318943139
P 0.4226698702279252 5.87599022755337 3.9073957025324138 -0.3835646257997975 0.6216881164132391 -1.3160104113534368
Ni 1.3101779551055728 7.906651187655313 2.9015985466829974 -0.6745006322285804 0.13094139890828416 -0.9614496289851571
Ni 1.915872698629454 6.923133402259909 5.144603659637367 -0.13519657464021234 -0.004649840067185541 0.06225694905769279
Ni 6.3485630431905635 6.013351416943092 9.414641289514739 -0.9086383987213965 0.5994007657699484 2.4200590780904645
Ni 8.518144146912377 2.5023312232901036 10.662029855910957 -0.0493482114158247 1.6566869795404566 -0.6691519663221572
Ni 2.4716991401714035 5.851083426636617 7.612775551904417 0.6092118383230992 -0.34045828152862656 -1.3805589846587836
Ni 0.5727296990748011 0.6901271576272217 9.387274805257084 -0.7750945291932587 -0.7422165475183152 0.34507572569597994
Ni 1.7861695300194078 1.5724013499696172 11.423980131760128 -1.8460595260024402 -1.127604856790413 2.098082143195477
Ni 4.260257243338757 7.16840886780322 1.837318727143655 -0.034324484313482825 0.051906716171620286 -0.4494972239368646
Ni 5.522827835930682 8.405999725947156 8.132653055900633 0.8376193872003576 -1.4978820214526847 -0.29629598518911554
Ni 6.956044658229704 1.1742845530319557 4.697286814197714 0.6869134040706363 -1.5155046196304547 1.6633456225075547
Ni 0.9830801842079939 8.118687196338271 7.194092410827626 -0.17577501028320697 -1.401177946460716 0.7106470002421503
Ni 5.176311512341784 4.885434356393788 7.12596246429359 -0.32545049526588465 -0.18947461925748657 -0.5329575465450499
Ni 8.613276821717031 7.6563159583825735 9.648054116202676 -0.5958955808301672 -0.7981210719954189 -1.896575532474121
Ni 4.698733633123589 0.39944236386785803 10.311771130500563 -0.6732783297857049 1.205730654559562 0.3833131719106237
Ni 8.500056631166096 7.708244632621894 4.463220320736082 0.33079761851041095 -0.3140396823257817 0.7838684187311468
Ni 7.274062204488525 6.363250033043013 7.456339509089322 0.935146472314254 1.784426069461359 -1.8956820741255738
Ni 2.4311845635703597 5.80820762696184 2.743695628220938 -0.024039814558023113 -1.4552307624410614 1.0912561429580496
Ni 3.639036774353225 4.433893747826487 9.49284609171975 -0.9813769640367034 1.138914111155645 0.39304454026577473
Ni 1.110950897845761 3.7891795650918803 3.84756468018378 0.2844573406829746 -0.06398755859555431 0.4982880201873225
Ni 0.7074005528310914 0.097905060660726 0.38332314179578214 -1.2203838856963627 0.8735731795871472 -0.7001671837567489
Ni 1.0984610306217668 3.7315073752678023 8.423815564289587 -0.37931484938450805 0.047098239039383406 0.09742629786997414
Ni 5.438534907205829 3.2921010829597255 4.902771568437489 -0.24638573062223376 0.148738317880389 -0.05317298447855358
Ni 4.172563788720072 7.195403391051574 6.024547625656805 0.35179504669768447 -0.517259933304135 1.2193922112070548
Ni 8.507714651945772 7.331807327843837 0.8364783164107976 0.3090165180795775 -0.4362028208208036 -0.1365469180205197
P 0.40661902334138217 6.00469967680034 8.136642520059189 -1.2231866452524807 0.8429238301324062 1.0579906960367005
P 8.319682891730531 2.2076159402608657 8.29046298411037 0.5089192746489235 -0.6321697326708532 -0.2700928444311865
P 1.8621845029490884 3.572958995054313 10.607243098916365 0.02671221918386367 0.1346998375094519 -0.586925259010757
P 4.014416542928375 6.491658631473638 4.00294683347253 0.49134012811457967 -0.4152555291451752 0.08194799972871693
P 6.969136227086386 4.438260643009183 10.908692881886015 -0.5877400416025684 -0.36085741401026883 -1.0730725300704875
P 6.563279359146409 8.056994545604864 10.30870245217385 -0.9014097421834412 0.21197588568379622 0.3212256585512597
P 2.6888678461150253 9.103973619866125 6.256132555718165 -1.2581896436902267 -0.1890881824523453 -0.889302674507262
P 7.395870318342381 4.381463655559926 1.61187206540486 -0.671726669027869 -0.5641848799904478 0.5596332560640234
Ni 3.2044349784152533 2.0278165523837774 0.6225068341426897 -1.1782270498226546 0.15772818008382514 0.3847352490691309
Ni 1.2378096587376421 1.4247291826015476 7.238925564146921 0.35520227260702053 1.235428438734311 -0.34253753265515846
Ni 6.808563941381125 0.8678825832914491 9.29175011272204 0.7666592539417119 1.742439183506612 -0.5348221105576144
Ni 2.6560659904420834 1.8120062334594071 9.277219929961747 1.4591085002289128 -0.08455021323825437 -0.055735345889091105
Ni 6.644636713239055 2.0814591646071214 2.6227791267864284 -0.7954954614471139 0.8497441954883496 -0.6964707087417683
Ni 4.3889666925857265 7.243120153862075 10.725143798834306 -0.3042036700719664 -1.4503420668901925 -0.19317032294151892
Ni 7.540187543273642 6.697559106841452 11.790277852358239 -0.11270996350192201 -0.9306087323449005 -0.13335155101167356
Ni 7.792464627815513 4.385064748664654 8.564572721227439 1.0825087357827228 -1.3684146359867657 -0.4008306119690968
Ni 3.269099670546487 8.546770557922116 12.598849064711104 0.30980738941198904 -0.0953439614196487 -0.6646715619533005
Ni 0.25182854332477606 5.122140132016987 10.320924288670556 -1.0479909045115112 -0.6221959092875929 1.6072654916845353
Ni 8.49677462226052 2.6046569676128115 5.896239310831628 1.2679109847430485 0.4713824540457301 0.3293773411241166
Ni 3.754773171731768 2.79379184748798 11.461954798135913 -0.17141364799071768 -0.19903758035557334 0.07347055838532508
Ni 1.3388225994981198 3.857299483265372 12.913908244609205 -0.3242243361682674 -1.2289626285043092 0.24341893468442594
Ni 3.136141843105078 8.464610934985885 8.383198880744814 -0.014891572399851774 -0.3074509733646705 0.049213999830805565
Ni 5.565421018171924 8.070997783601983 3.959728246200949 0.2768216785145878 1.0875750945620366 -0.6376145578355082
Ni 3.1067678634001816 8.86208956352524 4.0199722546702015 1.5969211723357337 -0.13264192653915866 0.7616913684134753
Ni 3.281863038512612 3.1765652527920785 7.481024774404948 1.6614229515635452 0.07627743170650089 -0.535834868092845
Ni 4.953754841778176 4.597337791324127 12.121282125522594 1.9052568622982022 0.9450971557690626 -0.7836894699511213
Ni 8.353751967508682 0.0855428271163932 2.59902832233975 0.62974389683818 1.0098532170995254 0.32598914137817403
Ni 4.8851882057258695 0.3800876280163694 1.6056809202721487 -0.022919842020966977 0.6031345217807677 0.36288344330136213
Ni 6.374718830829717 6.008747487783882 0.6699108944380197 -0.5547502169401091 0.6178705424393618 -0.9981163882785713
Ni 7.854658696576161 0.36741178028772603 11.406740468314455 0.23375544345273291 -0.9582174952011047 0.6623429138201238
Ni 9.030620720826521 5.376322605062373 6.027617215652659 0.6363958549370589 -0.6977860851190821 -0.16529365113590888
Ni 7.286315037736005 6.460415730030844 2.874538383256531 0.6141115896175617 -0.5232156366669376 -0.6463023154174934
P 8.867477528145226 2.0864915782623368 3.705086291908783 -0.4569289976245614 -1.9124456667371579 0.3998445939067436
P 1.9491850890210412 3.4814456467371944 1.825162530825061 1.3824924542360706 -0.45028346728358576 -0.43020880802089784
P 4.734999831530192 1.4121481484635097 8.077345735826851 -0.7323666513074291 -0.005909166395583371 1.6084852230242492
P 8.934494326658788 1.7808362655478485 12.659947307164947 0.5500049889456399 0.9456288599028165 0.23992300571602548
P 6.738192200430753 8.269923990045452 1.6095500441041657 -1.5269668546337833 -0.6018119463146022 -0.19816906170769097
P 1.6414602873577597 3.756815310606348 6.250595077359148 -0.7911826930043729 -0.5314513943131687 -0.21083740120397884
P 7.082921652504393 4.245278519361369 6.144129443469714 -0.7706118108315567 1.3648850255669527 -0.2387752652648275
P 2.5183401333961863 8.804107406193415 10.509970736639103 -0.4367638355305962 -0.2444450619560951 -0.8421180464016594
