# total energy = -340870.85048985126 ev
CRYSTAL
PRIMVEC
9.26469795413725 0.00000000000000 0.00000000000000
0.00000000000000 9.26469795413725 0.00000000000000
0.00000000000000 0.00000000000000 13.55982194590014
PRIMCOORD
 96 1
Ni 7.4782326373164985 4.072566698025768 2.7937576486887745 0.5455513240496603 0.7109493619739176 -2.291642502486563
Ni 0.4618729911953906 5.694454000929429 2.3677344065442045 -0.9657701107373818 -0.06972471818964766 -0.08481580819481523
Ni 8.862517494385468 1.5649835275657271 10.905540911219637 0.6991881076729314 -0.5980293393437185 -1.7052360920937535
Ni 8.44257652650162 1.1002848034693156 12.99014707224939 0.08573986267098137 -0.7227417266231553 1.0038800302352258
Ni 3.8192327949257185 5.323791961899779 7.624633395683489 0.19386734900854355 -0.16326607918291883 1.9282975461677498
Ni 0.8086775063121927 3.4700370612457903 6.290388099177484 -0.09373650772321276 0.10006424971345347 -0.793784135182962
Ni 7.991144849992952 1.7480817548538439 6.592635902029107 -0.6491670385597981 0.5287923594237668 1.389663260952897
Ni 2.242325600987487 2.44491675294363 4.699522711178013 0.4268833431920906 0.1308141293018005 -0.31044605143725246
Ni 3.043249481513239 0.6547843866433809 8.29834000159587 0.362689325012685 -0.1288608622301716 -0.14419003638807426
Ni 3.846637771716603 1.4979812313684056 10.577434409679363 -0.04078078146178783 0.7012066807648569 0.4523920289861563
Ni 5.0418857300562925 4.360504248290778 3.566233347424774 0.2280187980792718 -0.6411287416363539 -1.0355724762425003
Ni 9.184947515439005 8.047418625864431 10.355771876815838 -1.1617943581879282 -0.18204773066579613 -0.212481364565305
Ni 5.694037089517804 5.037512792583237 9.137435364500298 1.7362376826815906 2.3261207387690908 0.8130717797679804
Ni 9.196407946909702 5.753182921780484 5.337606553141459 -0.1313237219483674 0.62997966699807 0.5663338080126504
Ni -0.24112210461862107 1.367441636039277 4.551707233420905 0.41269625305843116 0.3469348903919057 0.27366667782537385
Ni 2.190193145138161 6.324573908461015 6.048698068569247 -0.31368384164825974 -0.4041216240155427 0.07879711280456107
Ni 6.936692507708392 7.843298798732325 6.890192988265035 1.0665676390724341 -0.08177933536133657 -0.7663034132641899
Ni 4.9118556931191515 -0.09441746415604567 2.712005026748124 0.3409933280964902 0.47912198878183293 -0.05512188067480829
Ni 5.631157583946562 6.048615612756726 1.7093108465122304 -0.07019805828164039 -0.8822030873480032 0.09318089233005887
Ni 4.123253860981457 0.872586319835249 0.5125907276545992 0.34960318125268824 -0.29889459915422717 -0.7201929920593725
Ni 7.666509830806815 0.39147518316782604 8.695032136227843 0.5762950329904204 0.14263323342391565 0.1528446267392787
Ni 1.7271805960843258 9.02319515242614 4.274218409601047 0.7340553518637616 1.082109443461775 -0.044426862854807354
Ni 7.908309184851878 0.12767958304537413 2.643039541036946 -1.1564279516696923 -1.6240270274135902 1.0831733659499152
Ni 1.8962428058476997 4.420974932372625 12.058166626244095 -0.041518173848444626 -0.7098013644124034 0.4891672888329769
P 3.349067898987988 9.295642127574732 6.035408785706217 -0.7287218554659902 -0.5948596833664853 -0.8324298725796181
P 1.49842593687414 6.807134970371093 4.088665963803158 -0.733752218801046 -0.08642814698725759 -0.9706845173198637
P 2.774100738865509 9.071677317249229 1.7901944397770913 -0.4893410954066798 -1.0613920084087656 0.6169560010448923
P 7.582210343376031 1.9481899677363033 1.8243246608724055 1.547593015524567 1.7795702840309544 -1.4228130082319883
P 3.041646688752988 4.033682760368113 6.243362344885674 -0.5583646737642448 -0.08603913907895505 -2.753922480010393
P 3.6975965744093147 4.258277570160074 1.8651124939764856 -0.3045379134829336 0.5995218647288448 -0.2068745599014889
P 7.262003849851166 0.32700400247397643 5.1531390034836 -0.8989060019249809 -0.811327543383364 0.10421735264987858
P 9.102871555536893 7.382546835999306 7.3082152371856 0.09624153353325361 -0.8355715035323933 -0.342154695394443
Ni 6.348588005770674 1.9087501481964808 10.683350290568054 0.16245721012837827 -1.031706565529191 -0.5280505961617358
Ni 7.821915875664927 5.33155577885406 0.5020641777459437 -1.3652547502015457 1.4022894343573398 0.19601833391327533
Ni 7.743740353636029 7.013533913220088 3.2588454901027037 -0.11946219462409102 -0.7349529239773666 0.25713962670462814
Ni 5.869176941192882 7.813744411997058 9.163077269254906 -0.945975701719274 0.30977782172563423 0.517915821720579
Ni 3.8946196428457416 5.420394968322549 13.228813105418633 -1.8330834254577464 0.014308960423504389 0.8817708849065912
Ni 2.2712221941621893 2.9559019084285674 7.888155687213875 0.6367473247392067 -0.08031432078003588 2.5687068931395762
Ni 6.420908238640736 0.14645542008540338 0.5100660974397527 -1.3036976554243547 2.4618965829515407 2.1965453669703976
Ni 4.560742166945743 5.894441772737419 5.306460491283583 -1.2264447471784619 0.6063304030102461 -0.47880265776920117
Ni 1.3293544624127298 5.522621646453252 8.227720767285241 -0.56880438104033 -0.4043447957699423 0.4874485063696573
Ni 2.7234598994 4.844417956114131 3.920686797240208 -1.0569812809355796 -0.6094023570673505 0.4111685035599951
Ni 7.636510738565812 6.226127227129055 8.570106021438809 1.2279347014604272 0.37796270623198774 -0.7503384052945012
Ni 0.720790727801818 8.264666530113736 2.314634716219906 0.9595079318777539 -0.6943508341852881 0.02627513164644507
Ni 1.9311336586517804 6.742115319553504 11.380066700522978 1.7684214665029867 1.5227705571642485 -0.48495453630320995
Ni 1.8216527219587844 0.10828579064633473 10.383338985822355 -1.7519396667978797 1.5820820504403723 -2.0159569944589473
Ni 0.3322904391733945 3.8998356678400845 4.02679260443864 -0.2570172421941509 -1.2129279436389497 -1.1005781916899238
Ni 1.4091142478058079 3.446866051457419 1.69207572875561 0.17961623840616808 1.9986164462979708 -0.21677484973433633
Ni 4.614875797570874 7.015766705446795 11.60387215804226 -2.233741259294405 -1.6300122984627474 -2.326685095912993
Ni 3.0592125562294985 9.03630470014727 12.03926386284097 1.1088725704882323 -0.766111608968358 3.0274289781088184
Ni 7.649861168435882 8.15205412548453 12.929927461484324 0.972016605867726 -2.2521971520067474 -1.7436835974366747
Ni 2.698426685306366 6.329391551439805 2.0333084544734814 1.194661027008962 -1.2590172817978447 -0.6563720409486695
Ni 5.721293831140111 3.7643579884576965 6.686172293401916 0.8436969608530049 0.06117271485457852 -0.12377342040493522
Ni 5.230237041130898 8.55655084174214 5.165085831601196 0.5357078555966773 0.34648803266247424 -0.31505526807448964
Ni 3.549778317242796 7.602676061337851 3.6960141639847426 -0.9087692678723059 -0.21053246836905032 0.8627912584802947
Ni 5.105108029454871 3.808606186278273 11.26940544130018 -0.9489077877644043 0.6992899233581183 0.6480876894526902
P 8.35435807180155 7.429064884838735 1.2635148858189431 -0.4841204704376888 0.2953410774750139 0.054657282333563935
P 0.5947648933558938 5.1766963511800785 0.14596439108948828 1.9241094762283313 -1.0116794716749866 0.8131543121794577
P 4.559602609087298 1.977253325475656 4.173929906299503 -0.46757336471228506 -0.17888733065994353 0.11089296489784127
P 7.190721263161151 9.023871475382778 10.752667834804605 1.051969429543285 -0.1625227732589911 -1.0112426412478843
P 5.608273779797312 7.10962736125087 3.5324690819018865 0.32455035204911853 -0.19022101050520787 0.7035954927120076
P 0.7352492155570087 1.5021318160885935 8.450318108180612 -0.7225643205050265 -0.28783757000911714 0.5973893917668743
P 2.551145780625943 5.17887355521857 10.131465199132798 0.18370789197703846 -1.0310792163578373 -1.6142293245968782
P 5.837676967870026 6.165610219557027 13.005469029861548 2.067838256709271 -0.23003737117119738 0.6084718748332811
Ni 0.5920966603214872 1.4156829187134268 2.522601245976614 0.3107522698237616 0.4724774868821217 -0.6838604761769255
Ni 1.752714103871911 7.3191577720360765 0.24643726188195117 0.0024698016967312306 0.17082537958741548 -0.8073454188071645
Ni 7.653817194497311 3.5967688656820678 11.842850411535322 -0.22536233429303124 0.5231076503341636 -0.1825699217178533
Ni 4.669259575042981 3.2650741465923967 8.866319726459496 -2.4334797223717444 -2.632961846463904 0.2536087307332342
Ni 7.150225268045209 6.604265877473866 11.092490473481377 -1.8187189292059582 -0.29979397104004496 -0.7303447357813938
Ni 1.3083977154549944 0.7461083681251615 6.357210660232905 -0.40769005809309133 0.5880061507797615 1.4486952753153888
Ni 0.6530694910368925 3.546804349173197 10.147940611650455 0.6632029478275739 0.3330367922535748 -0.5598335450002875
Ni 6.647532017302612 2.8471436181823897 4.422779695550064 0.24854134351265586 -1.7004289005130973 1.8586589599340055
Ni 1.5195587130945616 1.1877898764206014 0.2993498053059199 0.2583141066287035 0.11033143596741643 -1.0943455805166509
Ni 9.084416277048915 6.358445644481121 12.133924988555366 0.9055155368216985 -0.6244993606097891 0.2124476831138922
Ni 4.3209532523745215 7.7199393443812 0.5094990979199412 -0.19076325616192308 0.5172712461580445 -0.33012861746784433
Ni 8.753898174609832 3.145494689040014 0.3311638518922006 0.37346970345764063 0.12515204592001675 1.1005244556338531
Ni 8.96503137815529 8.145272366522077 5.196869304683958 -0.23773988202177768 0.26861908809913737 0.18870277408846856
Ni 3.660926899582296 7.64205102799142 7.277787189425524 1.5570641882397958 0.34546936158997277 0.9935161705023987
Ni 5.820778158652118 4.081358896462059 0.22053872499174207 -0.009757079386763842 -1.6919717708846795 0.03883471347901054
Ni 5.454461263001414 8.922728766922303 11.844477292510465 0.4662428188263196 2.7104554099656935 1.0448698423840264
Ni 1.522273269619149 8.005542190741105 8.407754232463006 -0.09509482152332009 -0.3328403599720526 0.046929574672003045
Ni 2.9546048507035088 1.9628467200294675 2.385999758722443 1.383882906825694 -0.6022289792473627 0.7643084943213482
Ni 5.576088218819781 2.1533381763504194 2.263405568429103 -0.6719691240559782 0.8678966980276601 -0.7797945057720893
Ni 6.837856709058913 5.350548409828135 4.838157799651116 0.2772209708355355 0.27461310089904317 0.4681734601901292
Ni 8.56316583613994 3.6826340870809577 8.086955724733633 -0.7667883233204085 0.15384992807534148 1.5088048390127757
Ni 5.4431027432091135 0.2973977334297065 7.288512930341957 0.08985954126630975 0.01469334034611663 0.9273259478285707
Ni 3.369255676008724 3.093260321512291 13.597246984570592 0.04649634378932637 -0.22626067773758451 -0.5749876270329065
Ni 4.056964946532918 1.9738253872022862 6.400480505940865 -0.025832644792387765 1.5288468452653154 -0.327396563248662
P 1.8854309032395313 2.1203095278516018 11.759525570337939 -0.012534899242217122 0.04785851424417564 -0.134448126509962
P 5.916695577420214 5.954727162858544 6.850177830977168 0.49787741501246513 0.3010463553899073 2.2501688087228082
P 6.204197686877525 2.029172693270151 8.262989619769197 0.8218130162957202 -0.07955147447208236 -0.3056422022907059
P 3.583029318494481 8.057350382159166 9.669522722702139 -0.025717202260446027 0.5754501684916219 0.06357052566279374
P 8.066726256571734 4.784957124118224 10.095124421086064 -0.25323180700978964 -0.18978340874715702 0.08854519333026041
P 0.7377460516777469 8.573292151093435 12.390531183001777 -0.4751349791096269 0.7577894622559078 -0.664024929508237
P 8.001076606287688 3.9225156486325408 6.040357987397121 -0.4429555661636049 0.0011994196247398698 -1.2388467203872406
P 5.354550759379745 2.055966199990651 12.737621977287896 0.17837311002768635 0.4165583071169987 -0.7996261957860358
