# total energy = -381168.51024798 ev
CRYSTAL
PRIMVEC
9.23984406443136 0.00000000000000 0.00000000000000

0.00000000000000 9.23984406443136 0.00000000000000

0.00000000000000 0.00000000000000 13.52344576604530

PRIMCOORD
 96 1
Ni 4.483375667947596 4.9253543739844305 4.5100012029084136 -0.6616978240369572 -0.26199515502471654 0.35372723072339085
Ni 1.7063589822855398 1.2342029451888663 9.473822896142176 -0.05084125102158341 -0.3648441665721588 0.8829029416285054
Ni 1.551739429941592 3.2218227840149685 5.686730469389868 0.3762218122814811 -0.15853010715983018 -0.6353175342712155
Ni 8.633691912936547 4.4742836612841295 4.371169772298067 -0.1838081650003286 -1.1044536154849303 -0.5896192609031523
Ni 7.452895267051375 7.508657726618467 6.355654531997225 2.6123919927323525 1.0276151690686366 -4.0391272188368825
Ni 4.932385895397944 1.7428471269136177 6.635468428940736 -1.0056384076872293 1.3634786321377292 2.0280422077582556
Ni 4.742340780505491 3.5492551418739673 2.2972682686107375 -0.49311187530302175 0.3190013972064313 1.4716433994711302
Ni 7.05730981859306 4.162817754151218 8.997026609303234 0.9106132630595801 -0.06791903243947657 -1.1322007036912114
Ni 3.842001124718075 0.7499879874656787 8.951682998022447 0.8082586746500532 0.7883066570081585 0.036923355388910596
Ni 4.357880104428085 7.259228133244207 13.51867186383492 -0.7944888745594704 0.6026236435826202 -0.7527454720740971
Ni 1.9897542428294162 0.6361641951019507 3.6411610998815895 -1.740847156429144 0.24899257211746154 -0.3034799045320644
Ni 8.062410827582083 1.7737544056629007 0.39242911768977806 -1.0900022159462905 -1.0812558372122283 -0.02964379100836185
Ni 5.881659765910683 3.0472174487309016 11.301787467551577 -0.20092348452437653 0.8127912724130841 -0.7490196864830778
Ni 0.8456564100194018 1.1784220059334336 1.5531679098503035 -0.6052158297898286 -0.3083919971217011 3.158418199535902
Ni 1.0373203456104727 5.700946893630121 3.0274802175989604 0.18168237690657743 0.1567575886404397 -0.3579649229538222
Ni 5.753013415529138 0.3842564755212457 1.0052414546204094 -0.7614720533138176 1.231417260692389 0.5104688785242305
Ni 1.417567652746273 6.04106555753479 0.33996066256935814 -0.4939050606282784 -2.4546190754535213 1.2965828987564445
Ni 6.456646028777394 7.142769137323141 8.060812334540639 0.33658594305741385 -2.2579150283271305 2.438052686454408
Ni 7.175395027088079 8.751389047976419 12.498287228603987 0.7728820949229721 0.01086908150401999 -0.08672510940238613
Ni 5.121608664159251 7.310971260597267 5.2192932207109095 0.6179895845157293 0.14382776795264907 -0.6643098077385075
Ni 0.5222433843744357 6.466809857364602 5.4819320953108726 0.10315420149268685 -1.420848685416766 0.9442836587288318
Ni 5.06097680671447 7.799731297667771 9.482924142649813 -2.162235023724302 0.5673738192413906 2.0626325441386157
Ni 4.598494886463984 8.823663109075639 7.185507112547934 -0.3061728779831953 -2.673419183148002 -0.6479357372558583
Ni 6.749650727258267 5.233179782514287 5.808482048051618 0.014107128825343445 -0.2926157081240509 -0.11864792625291182
P 5.294597026713536 8.145366148542042 11.614813984364835 0.01403179550271777 -0.9710719825662696 -0.3149010018848125
Ni 6.001509784642209 5.990172495845387 3.03183495615637 0.685211333777865 -0.7896626568154206 1.3390775775855455
P 3.3637467904690763 0.4481832613971174 13.431013462192332 0.4364555602615581 0.330381871129231 -0.030074707898193363
Ni 7.113183156290195 3.7651163813779296 2.0646108403742045 -1.6771367627543758 0.3061492238341115 0.4267267630095683
P 2.462732626057236 5.467354393163565 5.12677928095689 -0.11334579731370803 -0.9739055953603228 -0.8420296004529112
P 8.328546059216045 1.895452393228464 11.694480844784623 -0.0017115833744680198 0.27250222520362744 0.01852068451200681
P 8.272774359804783 5.724009544678914 12.841769195786604 0.6925094101011751 0.826935168013634 0.005791666981112606
Ni 8.467799750704968 0.4683556891894747 9.308472188778971 -0.03843464982711445 -0.1649043861172902 -1.2464049923504728
Ni 0.4831551475968669 6.7120722810181075 11.237050347341981 0.17686387247201155 -0.17826692346712525 0.20657836881730873
Ni 4.468148404755124 7.853682747777506 2.595663492180499 0.7403036467663185 0.31320973022531867 0.8503100952941485
Ni 0.5195176303442298 1.8601469486541706 7.65458166161385 0.9049974595346995 -1.0905305776459346 -1.5263896419740746
Ni 5.439579421587976 5.302450894258197 10.046689538756244 -1.600352823725102 0.41946159680672274 -0.6184912067424961
Ni 1.4164588714458504 3.5914257906667113 11.219524210919964 0.7410320402919109 0.5629890599101336 -0.14928570574342678
Ni 2.520416973211728 7.472807131238133 4.040751096803263 0.1848422626917978 -0.6479208248575229 -0.11720348049690138
Ni 8.505738550867765 2.423657325061506 5.526761971255797 -0.5655329093779099 0.418906238523885 -0.16282230677728088
Ni 3.395310098154443 1.335517836514992 1.9723131129737668 0.859432883531023 0.5263007033501645 -0.04035809210207243
Ni 3.150500426865278 1.9826672823508809 11.677779826447006 0.8563277622431381 0.8504849303091159 0.18584936380007347
Ni 5.542150931721247 1.0176487173721396 12.227629093248716 -1.2102352272981352 -0.06210679663307368 -0.14734915084234623
Ni 6.031474599286133 2.816701816373018 4.6382982871803256 -0.15707100611580047 1.80924107162251 0.7989818773338175
Ni 8.250099782211137 4.592867821364339 11.04933182521158 -0.3372552012102966 -0.1997865427064559 0.3151020621520251
Ni 2.04412148592681 7.828605810699612 12.921057222595415 0.5904836657859767 2.571563645862081 -1.796969967564641
Ni 6.458808152313218 0.11617810465829226 8.174923486058061 0.4963843754067064 0.13440364642527175 0.7545691555463973
Ni 6.35396364051408 7.449116170785768 1.1313320641044806 0.8667738972771266 0.487729785055502 -0.07903905361203807
Ni 3.159786470256318 9.331411025915882 5.4097975558586215 1.5247060836240645 -0.486396153845743 1.3638851235475284
Ni 6.957131428099868 8.10133829107109 3.6542511871174965 -0.266832942732992 0.5943421203001183 -0.5863485605716805
Ni 6.301915598303403 0.418442050982112 5.646822658434403 1.134155513424737 -1.2455123053328743 -1.4439616172851455
Ni 3.350302817201451 5.616282201498676 1.9245080072060414 -0.25107208035430956 0.06446475534228897 0.2216118661116635
Ni 5.52954778427311 5.435476930776413 0.8790159434114533 -0.39240562113019517 -2.3100266614207055 0.4860485406983371
Ni 3.307078826173305 6.911662154938367 6.5940859388557085 -1.3421433609950628 0.7332421119338469 -1.403495538850299
Ni 2.6579243341524856 3.488142812532335 9.027197472472151 -1.345998473075095 0.021888829653291336 0.22517232976941218
Ni 9.09068536574994 7.870037271958742 13.41758427267538 -0.6845739573041822 0.24470577181664954 0.8250148110624695
Ni 1.8610616932270196 5.256150035121378 7.298049338525257 -0.7926716188450736 0.6616104065294736 -0.46012565018498813
P 8.445309969994728 0.19764488672243435 6.808595389157572 -0.22373071222687918 0.5975251460137903 0.6057858433606857
Ni 2.50584573895534 8.283742054834796 1.5496382893772909 0.024848940722879784 0.04570110158154065 0.4730377302609659
P 3.705343829440975 3.9976924989857645 10.850617888518654 0.7030586463719312 0.7037687850650782 0.0994448709618997
Ni 0.31182903300879977 3.5408468836790945 13.253179725355201 -0.787555894885063 0.6334863945997476 -2.50645482917789
P 7.754040268246185 8.985887053171654 1.6503609066921077 1.3460115857012174 0.9114414153878302 -0.11525201319748538
P 0.4324644384947913 2.30279092347126 3.518597338917279 0.16804807395259444 -0.4139342392305903 1.3795768232511727
P 8.271453062088446 6.522618516152545 4.035396607106639 -0.6529979822701142 -0.07603523378870776 -1.1448399897217767
Ni 1.0177780751905223 8.522795303205935 5.897926511572302 -0.28801780434072327 1.3589689171928339 0.17387085128195864
Ni 2.309489810494647 3.6412747499648823 3.386040686482909 -0.11843195358736378 0.14666960827681838 -0.2523242075938558
Ni 9.110587990092528 2.7445109138713297 9.697690460619608 -0.8589934820007593 0.45431572837143047 0.44216520905182555
Ni 3.5711535725573156 2.356197222774954 4.975965620426643 -0.1304346344751947 1.2348553398396604 -1.2004244118553005
Ni 3.1510917768921693 9.021672969642797 10.994453618731574 0.9833487430510934 -0.17828414985830587 0.9473810667072329
Ni 9.28548900039004 4.045249976929729 7.071585377836003 -3.0815198464159512 0.9321498515797753 1.3594947077893167
Ni 7.320673096975966 2.097472346165483 7.668767594368342 2.1408236479280616 -0.6074745439170183 1.0177254207587505
Ni 4.953535898703508 2.758786473114272 9.013052195032008 0.7988448375353209 0.7856229395284083 -0.1238559528164125
Ni 3.5948260533213405 4.877861574949658 12.978140055894427 0.018441237424323076 -0.941080578410502 0.09961739198402199
Ni 0.5745214987049498 5.19965762786484 9.317883894050725 -0.12875056190455245 -0.9097041209817495 0.004812848007611066
Ni 4.704475899096056 2.521627392798023 0.32530904166868896 -0.022875104825960602 0.49437120163141957 -1.2287373998673805
Ni 3.0226487030823677 6.109532802835893 9.074286490316688 0.6205583736841699 -0.3196259181643076 -0.11040239841466794
Ni 4.903834776912059 5.736437135087818 7.406750561281032 1.7402735433138607 -0.35137338577923355 0.8546943404047731
Ni 7.028795659483856 3.9412462909500783 13.168049345077579 1.1201995654652774 -2.4493765961076592 1.9030038045979678
Ni 3.668430651981069 4.037294471099196 7.013299516826032 0.5584181527099996 -2.7820894293629124 -1.4796984085651228
Ni 8.254830582426276 6.157718590183429 1.4103328547610148 0.5797202566218855 -1.2566883765543517 0.9793380792298036
Ni 8.547428727763661 0.43978239507758127 4.594265809787288 1.7841980126109531 -1.7536512501723478 -0.5640059312104222
Ni 2.2798576302408495 8.454152500865598 7.8844662126149085 0.2921120290147549 1.2191052760942551 -0.36227486318308577
Ni 0.2293246164443454 7.343144397997866 8.39419238009199 -0.926218830807321 0.9482146183521218 -0.4407431318933184
Ni 7.632831992421641 7.51952378336261 10.309301617808114 -0.7714885570095552 0.02109744410024754 -0.005445339385287396
Ni 1.3068188805223842 1.2060121806256188 13.061228430610436 0.3324611222557629 0.1394242395683147 -2.8065727592162566
Ni 5.984379113550678 5.486092797140709 12.207195177866343 -0.730227236366923 2.800356603103216 -1.3995869478245122
Ni 2.2181077516514747 3.4380813368182497 0.9392800550582621 1.4582101567843595 -0.12663634377502705 0.13384931658369853
Ni 0.41833856472740594 0.01424876369484893 11.112350334405521 0.11867338017420853 -0.9376268155339466 1.5856345436783208
Ni 7.081998682215806 1.443965887540504 3.247614885031635 -0.6072014927612897 -0.4714870979443944 -2.2808922059485943
P 8.112435343919488 5.752579142853139 7.751679488060701 0.3268463471721467 -0.25542135846194075 0.2309061469293959
Ni 3.168887716763954 6.58142088445163 11.406498925594665 0.938901568481312 -0.37127526690948315 -0.7516437543694862
P 4.802067133221595 1.0660008219147403 3.8392522710774437 0.7721627002584444 -0.7969445351888146 -0.8134582165731217
Ni 0.4539193566579709 8.036511544373042 2.569008389718337 -1.4479442560819773 0.2631349250561146 0.37023628412200754
P 6.096171988165798 3.46448881145665 6.966143048119053 -1.766892688563286 3.0775176672350932 -0.8491471853342988
P 2.7387452511091315 1.6671081242505756 7.1133734970801 -0.41650148573713436 0.11231092829129045 0.24625229036816296
P 1.9098942696664698 7.815771667147219 9.813911068561081 -1.120468759966264 -0.6384792198286487 1.4337952182751048
Ni -0.0026952625444442205 3.5421035024862406 1.8543757419854705 0.9428250719054342 0.9004808026112685 1.960207250392153
