# total energy = -340889.3506725832 ev
CRYSTAL
PRIMVEC
9.11986078155278 0.00000000000000 0.00000000000000

0.00000000000000 9.11986078155278 0.00000000000000

0.00000000000000 0.00000000000000 13.34783810346131

PRIMCOORD
 96 1
Ni 6.44267083468042 2.221862529489041 11.539526569689047 2.2166853322533826 0.038661164015623736 -0.06038184352216698
Ni 5.046000656084568 0.6072495691031838 6.032154899447331 -0.41019868344755805 0.14407253697360348 -0.398337670343914
Ni 2.8666001977664513 1.7411637946633927 4.8502702068856065 1.3347051595494628 -2.039475646406178 0.13317902998955128
Ni 3.981594360429066 4.502684958058842 4.849710247441901 -0.07813299685800092 -0.1633172441358284 -0.3267401606115857
Ni 3.8470764158905943 2.7255797925868994 2.9154215477663024 1.633890550471231 1.5752583426503193 -0.6821100691447219
Ni 5.48528610371366 4.497313360137951 2.5284941320958416 -0.1531163923434266 0.6860885941764958 0.5955096582456583
Ni 5.494980515581077 3.049571961920713 0.5123610670187781 -0.34390587375759485 -0.17207442150316815 -0.4204453008762308
Ni 5.951949373004075 7.799386903783183 12.397071626226321 -1.3210731705883247 0.4140877340893191 0.29044826815908686
Ni 2.033327650340307 6.973273446964679 13.657641564461501 1.0032794205367495 -0.14025959098541652 -0.7265497875153357
Ni 0.6243301561083434 0.3599007086440359 0.4348942347277177 -0.021826866067104347 0.19173847559099882 -0.03615588109526676
Ni 8.123862425731271 0.25878790166827376 6.8053813723896965 0.4989163977999408 -0.7102356237363445 0.7595758647323694
Ni -0.007296800503405513 2.8825325943161944 1.3588099891072403 0.7801722008264822 -1.0356683783904164 -0.37676920014451887
Ni 7.211593645383618 0.7766601004758382 4.698131779591693 -0.204285459018074 0.4683907184072579 -1.0265715582954709
Ni 0.9010376719612709 7.405080608863496 2.3652103231056243 0.2987696435405887 1.127046927404414 -0.14327626632455323
Ni 8.196383557593638 3.99571190471012 3.5667027160577027 -1.1729043520581606 -0.6180911430906001 -0.6830168972297075
Ni 8.058874298763056 4.187201618708378 12.560462137586104 -0.31608962287627496 -0.4178353740572094 -0.996815924299593
Ni 8.098819288395498 7.5070315310326885 8.756314729731542 0.6612910755168417 0.24522153511080347 1.0145135986896723
Ni 7.022885488882597 0.6571762462134119 0.08239794094271816 -0.2906007345765511 -0.1150776924031502 1.0836775592798433
Ni 2.177567366328135 6.367258706993055 8.949912043525249 -0.8032645638695713 0.6173090135089369 -0.28392460810795617
Ni 0.3255735531699472 5.31992479046813 0.9096030450806292 0.1783391714659574 -1.086503972985045 1.503744650881049
Ni 6.806215839638868 2.3348211234587706 6.926006121219022 -0.239592104739168 -0.6026866356100717 0.2521871677953592
Ni 3.7337803870769375 4.696089842792902 0.2890257116283929 0.5728793224406521 0.21214814959560238 -0.36760116049200564
Ni 6.377965423392253 5.7785352228075295 4.715150351544454 -0.7435625200232485 0.4315964323970438 -0.5866318961400542
Ni 5.615873388313416 3.0095904928456854 9.179201755931848 0.3710227845790449 0.12107350497526889 -0.1640124704306401
P 0.6362789975276184 6.019719057469524 12.228755478131268 -1.521077999953174 -0.7067456083052152 -0.2742721726198567
P 3.9626615297265664 6.775901422849316 12.44137317328968 0.16097085539083889 -0.18612061518358913 0.7139341556338543
P 2.5432920179811385 8.844112540163158 1.2666428534398027 0.351236345980737 0.39676801186394894 0.1675197122529502
P 6.71473451749206 7.96119147137651 5.480101462936025 -0.5382483626303439 0.2300610253202812 1.587054049733667
P 4.866211723295996 1.2533971678365705 12.607126640543015 1.3404788288084464 -0.12472267169208197 -0.08748795571033965
P 4.137844932888567 6.45062335316432 7.918671945083512 0.7879225341958623 -1.4573735198156772 0.7265042789893811
P 4.984605754211145 1.0796455827960982 3.7766637958097373 0.6479465358891356 0.06631055030177611 -0.49133112925351513
P 0.5685339366859147 5.621901616200868 3.3898038671080624 0.36829330146302375 -0.015933126290488688 -0.608188025044275
Ni 0.5725685630360041 0.04798597076461541 4.730207241472116 1.516809454484807 1.1684848828342262 -0.6795245678057329
Ni 2.166340817872077 6.939712359784911 4.501064358821928 -0.015430989843089552 -0.41110653997380814 0.6850280141224654
Ni 6.196097162376239 6.155796498178578 9.141186528812243 -0.8593583215393457 -0.44811294199482826 -0.014821895504180924
Ni 8.526330995929731 2.7553105382950633 10.308708352841519 0.2892082251043987 0.23441184608980922 -0.370966991640445
Ni 2.5043593328804783 5.407584891003981 6.671355900326145 -0.28404750683906566 0.10657608269004226 0.051279109889950394
Ni 0.21068702065951025 0.22595184340991664 9.307780847217202 0.7222704434136916 0.8109945855239775 -1.015565436992954
Ni 1.4872577543992844 1.5714431880287512 11.321609323508852 -0.820608711574974 -1.1204564186710895 0.30292506046985895
Ni 4.458444514061816 7.05837998651946 1.347344500302239 -0.3879254738716545 -0.26564380752089733 -0.06747448870289026
Ni 5.973034490819189 8.167026726171988 7.655719003057901 -0.3290780647161429 -0.3416543587192567 0.07769513798963394
Ni 5.92825597504401 2.8395689308097034 4.795077722237988 -1.304195678106696 0.43675457955921554 -1.157045016428401
Ni 0.7093573528754984 7.574764736055552 6.528614577442566 1.174432872887545 0.39924501264953177 0.6440705978734973
Ni 5.452098930820407 4.7427196902793565 7.103198629681485 -0.14949962152644575 0.23051791035204172 -0.22572563116972094
Ni 0.7683810909807858 8.084528466762157 11.635763899163097 0.9318955694771242 0.3081945363989144 -0.19811866808572975
Ni 4.759691750942821 0.790631726986546 10.46858954182446 0.008885218304771795 -1.0861296203647617 -0.12897167677642304
Ni 8.4553602403773 7.333799778049078 4.406308094716899 0.0020221726363513558 -0.5766405892552973 0.056538301406360694
Ni 7.665507349489978 6.489902592969555 6.759544952779502 -1.718385484991518 -1.2262627130746429 -0.4980903023542195
Ni 2.667322122775933 5.408214161388601 2.369401811058837 -0.24480115974393324 0.12368471734587087 0.8743753637734684
Ni 2.5223254583544303 5.370175222631316 11.625593430569923 1.071210022940452 0.4422675389576448 -1.939834600273072
Ni 1.465315369683382 3.504999562894422 3.8572450605116377 0.052818686462928394 0.3656062415491639 -1.2409735369222563
Ni 2.097540589153553 1.3660548064049598 2.6586226877050687 -2.6017774504413 -0.6511545013034721 -1.2812195289264967
Ni 1.496705930029241 3.550379989472282 8.078979031558655 -0.9282078362128918 0.3996702731124085 0.40536500950434057
Ni 3.8194705977131056 2.9147439421202543 7.233620844803535 0.49983325318725524 -0.5799645114222076 -0.31516608262074103
Ni 4.420961886803979 7.067034734273156 5.779413465387805 0.11067904911482228 0.7737590982112867 0.5379377733684606
Ni 8.39943725489188 7.277110724269339 13.649765652807032 -0.7130378690718301 1.6018430351173834 0.8137749764825921
P 0.30114327046963135 5.748977754451652 7.684230423397605 1.658319630047873 -0.1703993477935904 1.4747096971012796
P 8.91242941626741 2.0101540844371026 8.100095156899968 -0.817539585731347 0.3142571976532265 -0.281147045362819
P 2.201926514115407 3.450462796227299 10.57535848637329 0.36016167349482486 -0.1482580358098608 -1.2826323501136234
P 4.295545563190889 6.392192406001068 3.721550653949745 -0.5439487554492309 -1.4173512137864686 -1.3954513283895837
P 6.957040095013596 4.4062515515808895 10.451076673424648 1.7642799335307875 -1.1077399995456858 -1.101128150656123
P 6.302899850409463 8.138235326110433 10.232292128496955 0.4942503597828391 -0.15466985287347554 -0.7837558044126824
P 2.8651957392268628 8.789356896840514 5.7040113695471515 -1.4861397933150922 -0.2824881327717458 0.27021677160356045
P 7.281789212781083 4.0182835598106434 1.334178157486633 -0.23341117273943673 0.686015060626083 0.5160098629471178
Ni 3.0700551689331474 1.9397214006628236 -0.010858106085932512 -0.9640320450003527 0.71700868079412 1.4317627612261086
Ni 1.5474214750854065 1.2003742980367957 6.878154212405913 0.9677868840570947 -0.8671801315766097 1.1319556775599409
Ni 7.024946577388746 0.9243799552864383 8.999245929693442 -0.4177384434680289 -0.08765816273961678 0.3566112371394052
Ni 2.8068012715061963 1.5872570263900876 9.200358008660006 0.22850679345928387 0.6408814015122382 -0.3596353686777096
Ni 6.881171974293898 1.9515680996428557 2.306038843257861 -0.29450804005075726 0.6323314550596981 0.5769349805672644
Ni 3.9317360822736878 7.316627080451386 10.24549312678302 0.674429926891645 0.5631132441928238 0.5936155265467389
Ni 7.881155574341281 6.8673827449961236 11.415124374579868 -0.6813125129440911 -1.244683638783992 -1.527324495083518
Ni 7.695311054083316 4.167064966400517 8.090685284684728 1.1728943247558314 0.6746261020628511 0.7555631440285504
Ni 3.0569590490445204 8.96050020173604 12.366985205952936 0.6843636410655891 -1.3545491908585832 -0.6887669123396074
Ni 0.2511965296659806 5.363563323662475 9.934836017686774 -0.6240540455422543 -0.9362569317696133 0.6460040674507843
Ni 9.133722834859004 2.3083826474440565 5.612952296948285 -0.985275270649845 1.4544638023680498 -0.7929516119793375
Ni 4.501572335059948 3.2728535101332827 11.338867747796623 -2.5701335982837734 0.36039461544123735 0.31635187539872617
Ni 1.4345814393040837 3.5964535254592893 12.656566317094713 -1.0093513377624423 -0.1686247723916709 0.7096237011839586
Ni 3.453271713306475 8.477922775617175 8.088295881195299 -0.6666464262914842 0.802515601518689 -0.5356798305722194
Ni 5.859145671063499 7.96146506719591 3.4894182809795757 -0.14338939486364982 0.5924505597043603 -0.0011896494327269835
Ni 3.505720031885509 8.509158298332041 3.2495176107105683 -0.4098716391254425 0.5399895136911669 0.3513988397005303
Ni 3.701432241363177 4.386424974535016 9.220553028076006 -0.05942333626363959 1.0240817019940816 0.07930079191385697
Ni 5.488642212431637 5.393823021288147 11.435439776156406 -1.3248501211322536 1.1056005846051797 0.5979498922560348
Ni 8.196119081634885 8.994945915398535 2.521513790756876 -0.17696491682625007 -0.92257814873094 -0.7528236336102002
Ni 4.93087153528093 0.5535627734483313 1.4011224945635585 -0.9234276412154291 -0.0879561535960098 0.4615140458920826
Ni 6.341458621223609 5.6778063619649926 0.2874908390815573 -0.15666631447821405 0.21970976399294417 0.6919201132566084
Ni 7.984638633099114 0.25432555385385514 11.171539280609604 -0.6446807206536704 -0.40332021116017 0.36649712879454943
Ni 0.13049243804902902 5.163418861910523 5.419142490401514 0.5930856221851979 -0.7244880198903006 1.459603180477144
Ni 7.435495344120162 6.293770869902139 2.5367029186639147 0.3989382800423904 -0.6597414716415347 -1.1276267111672837
P 8.92013569851385 1.7333663138104847 3.268712181413627 0.4199732463358187 0.31918137442772126 1.3124188373474366
P 2.2841329379845448 3.4204858142816748 1.4471859987038544 -0.31191132312886927 0.2248727962511224 0.18224827671237648
P 4.937000081635496 1.0856373312409644 8.266142283666127 -0.4232807134424968 0.7182947465953952 -1.0415904003018062
P 8.590197380038404 1.8244554819494851 12.513330697764081 1.1489810084733436 1.6215461699732654 -0.23584112233716803
P 6.424057199100554 7.99718756134894 1.3743602634958876 1.809327717799045 -0.33144450806579046 -1.0438246889489635
P 2.155196348161839 3.369943546577796 5.865440198881835 -0.5197806428434597 1.2469719205975365 1.509017469244214
P 7.254821784848862 4.195883726044013 5.756041086522503 0.6511452453320915 -0.5587876202342763 1.1134532478803791
P 2.072369773768727 8.836287699728311 10.012400432486753 2.289262946510793 -0.8987260247036909 0.6439695535192588
