# total energy = -340892.6221329086 ev
CRYSTAL
PRIMVEC
9.04316742699091 0.00000000000000 0.00000000000000

0.00000000000000 9.04316742699091 0.00000000000000

0.00000000000000 0.00000000000000 13.23558962677804

PRIMCOORD
 96 1
Ni 6.452200552850988 1.9431054056770203 11.230927687208863 -0.06458971095592747 0.4478260068820288 1.1455946084996143
Ni 4.450802889320409 0.3393421483520663 6.1246895805693224 0.2719772059380929 -0.10697460368004157 -0.061060100536114194
Ni 2.587476307531705 1.635773357406282 4.746335412607076 0.8600026399915639 -0.9518959238584509 0.6257849121904319
Ni 3.4335008019828055 4.359240818149561 4.895077432026146 0.379656806104959 -0.7961199824049902 0.3474087447045307
Ni 5.019283529321686 4.513408738082459 3.019726150382047 0.5211584970275928 -0.5358384676372707 -2.2375560050548047
Ni 7.4267194146370565 6.104291811904338 2.3667488659956795 -1.8867675452447636 0.6550605212260977 0.4180978836899767
Ni 5.171850808603005 4.603107916743559 11.263831252241468 1.3087403600545848 -2.0443759119212728 -1.273500048795052
Ni 5.67828627622866 7.916895267056273 12.272780165738034 -0.7051073013708438 0.4563137326380658 0.9566797184003395
Ni 1.7882140323422784 6.4824589913831 0.3936952024325855 -0.31441686315954237 -0.059414594512891224 0.2139363518442767
Ni 2.7123986236950706 1.409260097289011 0.459141510113626 -0.2878046598886527 1.1424684041658066 0.004101937983515516
Ni 0.43188269024890663 -0.01680401389132517 4.669926072937845 0.7377230305233359 0.7006387240765287 0.4171180362752107
Ni 8.47857544508022 2.2766626397645937 1.2870217932464858 0.4758134932338902 0.3582480014118798 0.7815387421567056
Ni 6.810346159433724 0.848287999282119 4.86884410735854 0.20692109686870816 -0.8891800328864686 0.170072560581791
Ni 0.5970434846228203 7.490555134182243 2.4602579311342376 1.289723966853082 -0.4812544617438034 -0.007785814593005945
Ni 7.530227510105848 4.09574100286303 3.720616849255773 1.0187170952480584 -0.8173444390014053 0.11332008628209517
Ni 7.454916010973916 3.8180072418952236 12.790926535306033 0.467969057488807 -0.3919340808104153 -1.548908391901881
Ni 7.808567163297699 8.811020369562458 6.98107211910132 0.4117757981266908 0.4421212431877676 0.17896472086509824
Ni 6.556830001092636 0.7712040393156699 0.6802605208033996 1.0349492408362047 -0.09504237101882988 -1.9400737128670715
Ni 1.8303732793347216 6.497108922770436 9.24799798039385 -0.6050937023896676 0.21882890404988767 -0.18840966832808195
Ni -0.02737909399277585 4.932894149974023 1.2202859298766588 0.8198013851823301 -0.9349659808723317 -0.1443990670750868
Ni 6.4167061203230285 2.17911399169349 7.137304594179731 -0.0765527968550746 -0.4058275509630559 -0.33084235570541726
Ni 3.470017112440867 4.659356418736909 0.4102143565469347 0.6579288439128281 -1.3701431886420985 0.7326481871035898
Ni 5.943287257324018 5.71800386798988 4.756659092651385 0.8806164595871737 0.19035187965611736 0.5457750100246923
Ni 5.04627738437798 2.8182669858873766 9.409154460188558 0.8700687659783145 0.6097371146989499 -0.13909873790809593
P 0.13697052825432052 5.497504314275435 12.169370640795242 0.12822862796281143 -1.8475363676582826 1.9975206421306306
P 4.300460229249759 6.076728237294093 12.260550185979865 -2.1640221975317115 2.8502740567589493 0.4766673565937532
P 2.4389151514630956 8.204847807325123 1.450898457832127 -0.39471935686503634 1.3584151015718928 -0.20318502686504364
P 6.347137032568232 7.844269588678687 5.77677903098917 -1.095209471178843 0.393291109058942 -0.5289931625806631
P 4.628474001645705 1.0101218123243039 12.52336905075191 0.8272290451049689 -1.0658328177889385 0.36371519517403816
P 4.247602915077551 6.01922273501504 8.22218627241706 -0.2895869486000561 0.3053871488571063 -0.8630823073581522
P 4.710821085110567 1.0158370941988693 3.92699911414999 -0.6606866091636234 0.890438587883918 -0.5250370061463926
P 0.23015132641179256 5.615987895162392 3.4461368199627582 0.6227690081822437 -1.1731295806950892 0.7170277069575135
Ni 1.4776626164333353 0.9419634587031017 2.503247340905297 -0.71963994776938 0.8827160224286796 0.35520458659986565
Ni 1.9602602944682397 6.221807773866328 4.732385422386023 0.2543952311902715 2.0611359049884306 -0.16798945280051714
Ni 6.3723945994601 5.5585004792183845 8.848706865898004 -1.541575091465261 0.27790462716612135 1.438380266542626
Ni 8.57967805798788 2.260972744112108 10.154437164116167 0.5065957687220695 1.1768695073534958 0.1762825460472448
Ni 2.402869085716232 5.209886371204939 7.022631804086985 0.5199084266705757 -0.18004201308967702 1.1318826582301602
Ni 0.5507379453210602 0.09728910916319211 9.03522219606084 -0.0039181041074835745 -0.427923868641463 0.22999571929998455
Ni 1.3502986450387473 1.147388052156628 11.602357706882955 0.6872718158513196 0.20753661896551998 -0.5666811640497402
Ni 4.117435561750819 6.7350617898043605 1.570945602383818 0.5847825016361413 -2.0311714974158565e-05 0.24280778346298826
Ni 5.587239665606627 7.877883042361851 8.22896322215883 0.17690706700512113 0.09876944216142991 -0.44775093066971927
Ni 5.478486532974468 2.992935766595022 4.923665597516752 -0.689731847356038 -0.4404279146457447 -0.0036244841264647257
Ni 0.7446279785989406 7.498612596445277 6.93076407385386 -0.13892133178996718 -0.29967235786051616 -0.14301812756716012
Ni 5.139114542169576 4.363319286702455 7.001667028818306 0.2082518998649897 0.9858879645331795 -0.13439567600547175
Ni 8.180494557185558 7.0742710035938385 9.123279135499754 0.46952380357043655 0.8723457349379493 -0.06947120741794488
Ni 4.781104583099685 0.33281117276692207 10.344222503655336 -0.12325174357351032 -0.45149599953444824 0.9474705410972456
Ni 8.150444111506475 7.188034051033764 4.5252082630665305 -0.565713143709516 -0.37602897954438463 0.6711018909596765
Ni 7.147059458986841 6.21261087249539 6.791472164496374 1.5662728513222572 -0.6530296068389979 0.3727197126654936
Ni 2.354171628604626 5.158521179674034 2.48995840623018 -0.5752709626012802 0.668929565898706 0.8402298282400109
Ni 2.375133690923048 5.217247509568699 11.637286037123971 -0.3293817119994908 -0.12798617293470216 -1.5611555847003502
Ni 1.0589458737812323 3.198161410363041 3.7395704240673266 -0.6409875880727993 1.1009391745737684 -0.23684153857722434
Ni 3.3640402322382843 2.828169254325113 2.857590295544593 0.9038759443357466 -1.042325735805934 -0.8142082073652688
Ni 1.2173007802773013 2.9961008752280884 8.52570481694333 0.5310718994865629 0.4032420496240668 -1.591983111604168
Ni 3.6028431570193757 2.6620553100942703 7.334700663506296 -0.3174263394098275 -0.1924020773169267 0.09075788471086306
Ni 4.20897954658662 6.74001744560699 6.09594225533031 -0.06640516689811145 0.7778620646360669 -0.20445232361324142
Ni 0.8230259108064885 7.303596688810777 11.570764496824438 0.9904789263379716 1.1689942183704771 -0.7827690150193809
P 0.25635209567631545 5.6249858468478235 7.888305292932161 0.511245608789255 0.03475642964457885 0.914877951873205
P 8.523601376177469 1.6883232038827058 7.895201612485238 0.5505166384747358 -0.3176199434778723 -0.2028042464868572
P 1.9068875197472186 3.121095536731638 10.510341873786693 -0.4815159429353062 0.007689655334773854 0.5616739406431358
P 4.033533053471992 6.234377776723363 3.8408493787416864 -1.0778573530536404 0.3811040800744469 -0.5600263777373838
P 7.0030831888524165 4.016938841067202 10.143040964403625 0.14000608021371372 -1.1903132915632273 1.0206148264914034
P 6.519970050268698 7.949468756474287 10.30979606921185 0.22110870122299983 -0.10186993546362455 -1.1949363921575353
P 2.337930099733234 8.439816429076442 5.865404785665283 0.6566777451145465 -0.7903769092736259 -1.233570816700282
P 6.716667987062484 4.05370836021591 1.5673581778274253 -0.2282525113566327 -0.7344677568108319 0.4980517358068003
Ni 5.052734205989435 2.7043230750969895 0.47334470902532294 0.2999526081050963 1.254717111760594 0.960387763379546
Ni 1.776132360531488 1.0019739183860388 7.056938868719167 -1.1511523050930497 1.0186934410989745 0.14661175845568944
Ni 6.975329707724186 0.7513407218512981 9.108045015490427 -0.4615906647662889 -0.44899354482756865 0.46575456633599144
Ni 2.773458090810681 1.2685303242953603 9.456365220559375 0.04542779331549596 0.5387021623383109 -0.7610604196976958
Ni 6.331483309585837 1.9946514605583858 2.7995657154497167 -0.011321852770722436 0.48191163571182816 -1.1508044348353277
Ni 3.9975683762328362 7.054104740017444 10.15966501926124 0.8790632561674409 -0.6990544103085444 1.2157381593942354
Ni 8.080811721579016 7.166836866359744 0.1847573383963556 0.4091625288735598 0.7393813920623653 0.7946937914814249
Ni 7.96681355178349 3.8771314711609017 8.086654512115656 -0.09665470981127225 -0.040227222951162975 -0.5109573881248749
Ni 3.136514137358432 8.354937258705128 12.43609434530374 0.1631768619032222 -0.7313317822850114 -0.26167968066682673
Ni 9.40064393523262 4.879720324938509 10.035634359415647 -1.0092922023897328 -1.0218975498585692 0.6339512500513081
Ni 8.588884002526342 2.4089913101293345 5.733009195860872 0.7153348926361228 0.2542070264388654 0.31775106973909795
Ni 3.695463278790419 2.6817422857919424 11.592523262201643 -0.3182282664858326 0.5260263666428553 -0.3094561767201574
Ni 1.1012045956164291 3.4284908871750375 12.778127740310664 -0.872943259312632 -0.2687101051510469 -1.7615509646353986
Ni 3.071104906664236 8.026986788481842 7.974257887288463 0.502415926312767 0.8845733873523927 -0.14421086232368066
Ni 5.499900753669043 7.963051594093903 3.6815982943440844 0.18456021267500472 0.007574984133780502 -0.32520752601714314
Ni 2.9567359670002666 8.489816102311368 3.6774691840530607 0.6785251800069411 -0.9462150714235897 0.2436235944960643
Ni 3.4089033863201186 4.556870201198222 9.495529370468187 -0.3637157093946704 -0.6401357815954654 -0.17514457578805967
Ni 7.29624459361454 6.263216437954359 11.44717062197021 -0.04808682820489783 -1.4355309700192889 -1.9912641196979577
Ni 0.5125631179392713 9.100772500168395 0.44195587455282825 -0.1602949123697368 -0.27203068488384763 -0.41900805420907195
Ni 4.463119683486798 0.13619462448084313 1.513687882894896 -0.1378509815439239 0.007839293538760693 0.9010680425733063
Ni 6.011074841076774 5.623321904023583 0.10548583620608153 0.29623350738229626 0.4062705520377454 2.1632261839929776
Ni 8.304774808454788 8.884251940164091 11.268079732343795 -1.4810940033610684 0.4990734922030953 -0.06051476955560547
Ni 0.38206749763145215 4.997905481297204 5.862293936037355 -2.0310110605785923 -1.4707972494207506 -0.9770305141425496
Ni 7.800066585826035 8.762069703760208 2.4774381407945216 -0.4758502600090967 0.9844522605279175 0.5428796907547683
P 8.518736152050069 1.674785582100705 3.553596779639121 -0.5973179150989907 -0.41770939000230645 -0.1594428487820867
P 1.8306897901980284 3.3494264735210413 1.4547499428801922 0.13964278333702404 -1.1432973278250051 0.911676928437404
P 4.865920451298339 1.017528166525679 8.289979282070332 -0.6460973984955388 -0.33292957725174915 -1.3007123475437858
P 8.373602356472695 1.7366770206284359 12.353741835938363 -0.11617452501175476 -0.4783987374625631 1.1569162041600205
P 6.237768964544506 7.664057346279414 1.3325984532458883 -0.40532387185375995 0.6100312489006011 0.03290703514066591
P 1.9021308136300963 3.1915237254011246 6.029062605596866 -0.7560287708110593 0.4840117127739665 0.514838725457152
P 7.11301193326257 4.101836097773563 5.956981325904167 -0.5149976196325196 0.24518759654907452 -0.11047284664128715
P 2.249921993398945 8.395586296721222 10.338596749139251 0.11527541023625308 0.5713348607716677 -0.37391938940054953
