# total energy = -340862.03356473614 ev
CRYSTAL
PRIMVEC
9.38267208216994 0.00000000000000 0.00000000000000
0.00000000000000 9.38267208216994 0.00000000000000
0.00000000000000 0.00000000000000 13.73248900728649
PRIMCOORD
 96 1
Ni 6.371481878288385 7.683442176987498 13.390399106286587 0.7640004761626261 0.29577199436484547 0.9024507818534457
Ni 8.126979860713964 3.2610509581497453 5.5073874900356365 0.5677394301109254 1.236987812801631 -2.026806278468626
Ni 5.7836949910247135 1.1816912768498522 9.619444008616195 -1.7500277944871472 0.34467206249965804 -0.8948950809933749
Ni 1.5462268600310316 8.449706256243148 2.621531769037321 -0.7474122327866418 0.29979011438530306 0.4418034548370327
Ni 1.222928121493147 3.57367221564006 12.439452135597074 0.3005588742305275 0.29737919095096527 0.6565427621985791
Ni 8.577939238209 8.294967225103852 3.843641721508193 0.8591711452292041 0.5856654184617268 0.2368099140083406
Ni 5.646342051608743 4.591710922690516 7.613744872536126 1.0533331426600312 1.310424946845859 -0.3483009175014969
Ni 6.979732373781186 9.373308366857938 7.5137997092085165 -0.33218729976908595 -0.6811813866828655 0.8130609811347029
Ni 4.781897689680182 2.3927503179166587 7.237159123353721 0.32546489344358787 -1.578028963416921 -0.988808223503768
Ni 6.685351031191113 2.6394020066499757 1.3376547467208797 0.7205601455908042 0.5388425445709172 1.5083327844723635
Ni 8.155775281922217 5.122948444160072 1.9477339250398422 0.2496060373317443 0.2868759774267962 -0.4534585225774577
Ni 3.318191432297109 4.3830121433046685 13.700149266061123 0.05441174198166113 0.012600205262513785 -0.01706466879177061
Ni 8.037985214197095 3.949692189684355 8.0088285601063 0.8683155307326336 1.3000225205656128 0.40080772915096136
Ni 0.18562115866124124 3.310206778192116 10.281473166780664 -1.5793343124919057 0.3562965341124638 -0.08323483686094053
Ni 4.491522748151017 8.453909693421805 3.6051764143337555 1.4356523260885017 -0.6140892210200585 -0.8832621247401368
Ni 6.114922087633948 4.8218960215833375 3.1047375146029057 -0.08626642459841272 -1.109570110775889 -0.12601567947189266
Ni 8.882707199006154 0.919636993311886 1.7485444840034772 0.8980541954476469 -0.5009987342502662 -0.4383124109646387
Ni 0.9996205213770121 5.169927484234925 0.5051602604190195 -0.14974439054740019 0.8942001118088794 -0.4948347715313994
Ni 4.308532490795346 6.052161392794586 1.8016063105134257 0.44503353173855614 0.0988684296331394 1.0302754895096191
Ni 3.740599338063008 3.183409345084156 3.2284123943781493 -0.9628508802080579 1.2760364420636603 -0.7492482575541161
Ni 9.330729800079492 5.580541370952674 11.538339352155326 1.4336226972529826 -0.6889013810349426 -0.33214050569155057
Ni 8.629281220891162 7.049314271363592 9.867040532447485 0.7246286592332231 0.9349664950929639 -1.1270479558456783
Ni 2.2931532517304074 2.583790908083239 1.1775647775838407 2.1753288807937827 0.021854119760613976 -2.8858450118850234
Ni 3.0575877098926703 2.3930693287739673 5.4674116765459395 0.03698814718857501 0.38916911647076846 0.006655300532988537
P 0.9717446020515903 7.064082597522534 5.128837947546328 0.5877115023574782 -0.5241291496201426 0.0716918692183475
P 4.852858840086835 6.745390751071078 5.385566626301693 -2.293600140433566 -0.3166370107393128 -1.4786365429595116
P 1.8099643949749153 0.6659867693295508 1.2299651256984874 -0.1856696436890996 -2.549861735408615 -0.33524408431753877
P 6.79279201139825 7.59743122025369 11.266189313250765 0.12073309091671465 -0.5195600421922214 1.0312694779917724
P 3.6086414352044645 4.1221738540933845 7.208897576197845 -1.840764339041772 1.2853893440334703 -0.0716623015319927
P 3.1317858822337796 8.098813078548057 9.18604617881601 0.06647201558030487 0.30797547840957284 -0.13012275966173073
P 9.282906319499999 0.1492023162305363 7.647554393807489 -0.09105587556725608 -0.48437475254034 0.5538331044424785
P 2.7462331131593167 6.188848162479117 12.361739214222204 0.13162068436349592 0.22306016852241584 0.7450686722551297
Ni 5.672313288462585 2.3298957963545583 4.135140707175759 1.1119131570867689 -0.19315952430824151 -0.010993265786710098
Ni 6.848525084704546 1.6854375685572118 11.679537310669096 0.3222913808116127 -0.925439015218503 1.645114701321825
Ni 6.876870137643657 0.5076954584673968 2.7682364179085748 -1.466957049739054 -0.8752757641005506 0.8516730370799461
Ni 4.781081397192364 4.426801074806433 4.9205979808346685 -0.724496761641049 1.28459770137011 1.8733070488644832
Ni 0.746627084453842 3.402710544139384 6.57971621539668 1.7812420153064223 -4.354743244510849 0.8059356829438313
Ni 6.190274328664733 8.500982560219397 5.424470938617724 0.6986939416453322 0.17480390461918927 -0.7595378124055822
Ni 1.3033094748626817 7.654787495863352 7.88838131959324 -0.2223914245901654 0.6533363394461393 0.9972810368614694
Ni 8.618125223557628 7.709328969790877 6.330650365087318 0.44560508797131004 0.5839870023180393 -0.36482436907781685
Ni 8.169445835425126 9.157703940678582 13.190591347147382 0.1787101816521309 0.03293454594449167 0.08188500770126543
Ni 8.396356381694396 6.330732932603327 13.4594602655578 -0.7311397208788634 0.5441467303926499 1.0740086687315116
Ni 3.7541572994986305 5.886388339061314 8.844149107297024 -0.34122575582227044 -0.06825790383613406 -0.029567943465103913
Ni 4.285160254161342 0.12440109860923468 7.638916705712242 -0.26876538386901455 -0.6533407103215135 0.2091777541133688
Ni 3.9012306873902443 8.316125151081241 13.668949065949098 -0.9083625193521905 0.1917431035766891 -0.9557340666576185
Ni 0.9484849574848719 1.1589570619304659 12.87603538263421 -0.7010961233289216 -0.6917655899566151 1.8377286375392414
Ni 2.8551284075688907 0.7741117463454469 3.371477504674401 -2.3578185840930037 1.0869451742875216 2.2911735332699443
Ni 2.3348592299873916 4.276181036795328 10.312275541588281 0.3235185683504944 0.5741422483134757 -0.16203940586466933
Ni 0.8649810507826209 2.767362891119885 2.788409163297217 -1.5775070294751798 -0.3223870258492125 3.5463729839835954
Ni 5.3987708609925935 9.102186668834584 11.81867483435154 -1.3507961515740543 1.4546810605851785 -0.35876247915445314
Ni 0.6728933543902855 6.330123058905531 3.00390005914206 -1.1183681686834932 -0.5219961624375398 -1.0306714393964571
Ni 4.732995201789204 3.4739437920419762 9.442926856862211 1.6609521825747136 1.7846854937703327 2.0339099793929427
Ni 3.5892755996313683 1.8179302837353608 13.011189961936433 -0.301791461086048 -0.3294652728522326 0.5776466619223084
Ni 2.837676637139646 6.380010727385257 6.584096985081311 0.9103242710642515 -0.6869661116854427 -1.1954562692167476
Ni -0.09637505652743238 3.244227826762845 0.8539216949735079 -0.04174468803695391 0.1413685077788791 0.026663111113483115
Ni 5.619179215376128 3.442371099840682 12.834672810182447 -0.7863631601285425 0.1676500671832274 -0.20513032351687255
P 8.104433299240055 5.133822961325392 4.275555212554666 -0.8648260295221364 0.9400989312235227 -1.305417209218623
P 4.230346682737877 1.6070547243819937 11.014293648983628 -0.182037446253151 0.04223833984392081 -0.30037658301639236
P 1.027261873895589 2.3988209068777984 8.580815027260915 0.5228153159047254 -0.4075982697102335 -0.3502027625099001
P 8.569926436087185 7.745499171406326 1.6257891061110648 0.4837425182729798 -0.10329561216655758 -0.16538723929097965
P 0.8308581482573116 5.682005588921408 9.387859015020126 0.4554017623467576 -1.0352729427242107 -0.9283477042248656
P 8.000407611740576 2.306748743855125 3.573179625345686 -0.30095533833799787 -1.2742089019366185 -1.2371073690986307
P 7.299165451342271 3.273088926677014 10.501989421895347 -0.08365315534528174 1.8031177323335914 -1.502759147039328
P 1.1171572569507442 1.652288587413922 4.646401581107194 0.12909508972816477 -0.4581505287364884 1.4445385728345381
Ni 2.2757765426793535 7.049370567397235 1.0340070769932146 1.5867758563716157 -1.6067060196366394 1.1373061432385767
Ni 2.734626747556642 8.848451062534556 11.48956165380559 -0.08119183828898276 -0.22963885018119806 -0.6337275640762763
Ni 5.2924182707692164 8.08556474529747 9.71270120314705 -1.2453294998981068 0.7254390709496604 -0.9591844871000643
Ni 2.8903791073015093 6.383003799840596 3.7401667968711862 0.6722020660023907 -0.34258792627711965 0.6317562992825183
Ni 4.399900953397485 5.350318741370757 11.105931394280026 0.1100892380496233 0.06139331550581686 0.1795285637883682
Ni 1.9692727875115479 0.7047250083463359 6.921902273221699 -0.8476724005609853 0.39067089782727554 0.13037627043343353
Ni 2.035439392386295 1.8445958383374639 11.07554091878523 1.0293146682582468 0.6240167645464156 -1.0765836285475394
Ni 3.2504673038249132 2.0386388836316565 8.936595638943423 -2.6057408059644223 -1.3014926773532358 -0.15269010343928544
Ni 6.807025525237586 7.121757883989502 2.838134511546607 -1.0004100694087545 0.42601868119895014 -0.45024130119174066
Ni 0.5837335728413955 5.389144239239688 7.054200767083779 -0.5216950862573531 3.5552620589431094 0.8731638599638704
Ni 7.876650164449324 1.7716361787364947 8.791003775003839 1.5479956502796244 0.5901836180470545 -0.1823079263057183
Ni 6.796038416004981 6.050059674205258 5.894231314814973 1.0222263939528977 -1.032368624593222 -0.8414726995081766
Ni 5.220959838732053 7.2986212563503905 7.456013707208716 -0.4066868136395577 -0.3691610487799578 -0.16074459831264576
Ni 0.8415750365284314 0.31828088540586336 9.821627460375126 -0.2692410379538524 -0.618703065642986 -1.2901859940911653
Ni 7.605078098156827 9.28702531262819 10.129537678116773 0.5774389167868765 -0.7718883635511351 0.32629073177899287
Ni 0.9274630802554519 7.8934639131639495 13.358883648386163 -0.9248517752564651 0.8484025938587905 -2.1665557625868432
Ni 0.7392842051323761 4.609819480178926 4.658843004542236 0.8449693998075253 0.1947636355705678 -0.4297177273170922
Ni 5.70492745728627 0.9362846687272665 0.09157112832325334 0.8682134579371306 -0.6365413793759876 -0.06462184974544355
Ni 8.033903751757997 3.8613730955711962 12.691071949299362 -0.16626552813087495 0.3504169354032352 -1.3120007759734114
Ni 4.378874384831928 1.3325646470123502 2.0556984583598563 2.2399579296280776 -0.3179048217081428 -2.128615278787328
Ni 2.7273176458553614 8.450616375453706 5.093942851092887 -0.4745492818094859 0.09037016235414114 0.9221487745030055
Ni 8.414746419351019 0.8215458460255778 5.754503621046506 0.699687158796537 0.39021478412646343 -1.0803286974122686
Ni 6.53154088460692 6.176181554909505 9.807057108601164 -1.2179264252948057 -3.338962606183294 -1.4081078408113297
Ni 4.970489402383305 6.0481549917336785 13.303871164310495 -0.340561125655078 -0.9112151583096372 -0.8815500271450366
P -0.17182487734986457 8.514709409755946 11.361410301088522 1.9040129625887725 0.16815348918220718 1.109516117609502
P 8.13908350794715 1.8864894700399235 13.563346151240399 -1.0506046879852746 -1.215435797662468 -1.016542713304559
P 5.339312866793605 8.474213796222282 1.4127301989195877 0.623561679286868 0.566442822786689 2.2115127869135076
P 5.562198246657419 4.413524593539024 0.9839439525419684 -0.399961321990266 1.115918164481104 0.11813473406191911
P 2.184886596363177 4.398371577816858 2.127217877766799 0.48499001752683574 3.28454315089215 1.4957762879635919
P 7.294652385978579 6.978522009057867 7.802044784131533 0.1417066078445882 -0.31084714353041304 1.5538749918785368
P 6.751470722704491 2.7347205742793794 6.799642300425343 -0.3535238564633331 -0.9870174501519322 2.4013396473040904
P 4.7827045994957285 0.8347285005702488 5.442295201136238 -0.9410340414432825 -0.6804095415138476 0.17669212278083765
