# total energy = -340886.88287585403 ev
CRYSTAL
PRIMVEC
9.08867611040180 0.00000000000000 0.00000000000000
0.00000000000000 9.08867611040180 0.00000000000000
0.00000000000000 0.00000000000000 13.30219618503649
PRIMCOORD
 96 1
Ni 6.610694102026712 2.0941218910270427 11.265656859435397 -0.14803152162135153 -0.51414684159645 0.1650897626552189
Ni 4.807146278870099 0.7982793375689186 5.897941025552983 -0.05768809874008774 -0.8547671026242376 -0.7189935724346328
Ni 2.647522298226147 1.47308355529609 4.5229597326567745 1.3074545513636255 2.291828136134808 -0.5688280351894139
Ni 3.577966438983937 4.637106235212162 4.907885166245403 -0.08115661417567313 0.14018194366994566 -1.002772141883028
Ni 3.7477519997073268 3.050914104186584 2.3646118021560474 -0.514966509284268 -0.6369617547428579 0.4680636740851423
Ni 5.523233990654004 4.672861087515884 2.6734622890650006 -0.6644512184123783 0.2328910385699086 0.2055820663423105
Ni 5.456032318581378 2.9401685842778797 0.2452615636392568 0.12462728376479829 0.38282414808934717 0.04075069955480078
Ni 6.000089566612147 8.326990633338962 12.165005003326906 -0.34631191209592616 -0.7969136819508791 0.4488354219831496
Ni 2.39205778664684 6.553271845581641 0.1989783887863159 -1.4370018981378605 0.9332646819105088 0.1437380364523202
Ni 0.5329127132328998 0.4625745389919928 0.5530923010747788 0.04988582908684957 -0.16392556714378864 -1.1790541737096403
Ni 8.304187144668388 8.936431818195603 6.659385776081607 -0.49809235923674866 0.14539511243976894 0.2710809193760686
Ni 8.86165927882023 2.5876642765504205 1.362876085020426 -0.26070677523059615 1.0433431213268547 0.04435410063534297
Ni 7.020211675768722 1.058049155080171 4.914057286275767 -0.17238372521347087 -0.7101708319366802 -1.5817609196555276
Ni 0.7332162310141019 7.6258719713121055 2.366181416541623 -0.05619531624464515 -0.6215703598884521 0.02269024250866415
Ni 7.993545279673756 4.097011650019324 3.9680451519971216 -1.8036594637696743 0.10770351142626612 -0.6862310332916312
Ni 7.557397884566749 4.1327755909992785 12.605214127842794 0.6586582658796849 -0.28944142416112734 -0.4766742985722887
Ni 8.498030431382615 7.108108263625684 9.428118296032041 1.0926429960032473 1.220406254293866 -1.0405707007880403
Ni 7.088140441940052 0.9434682138008083 0.4593462411937514 0.13996699944566218 -0.2728079293695043 -0.6018322580295763
Ni 2.2712601908235666 6.225397850447746 9.502344605965762 -0.5401548356244373 0.974803938804876 -2.0984611238014503
Ni 0.08024028699761881 5.192869698232052 1.0950818752623626 0.17054770044599663 -0.10386588284773081 1.345321501612728
Ni 6.839328841363877 2.247484213795978 7.013982297078083 1.0905169507991799 0.22748477995267272 -0.9562506012827208
Ni 3.8828915266275175 4.6883027484370885 0.4724357527056525 -0.2673548766747331 -0.32194453899515524 0.13352895712980228
Ni 6.234341107861793 5.850108231402181 4.786675853388737 0.38327589091478503 -0.9525785517477723 -0.6306892914705847
Ni 5.785424122646314 3.519653492267955 8.720960208647833 -0.6323849340054529 -1.241202622213927 1.1743305429817261
P 9.28144705670642 5.90368597780036 12.411774378353348 0.3180061231726975 1.2050040608061827 -1.9796543033731713
P 4.348531676113167 6.591180714152769 12.413942027635107 -0.4668971645808669 1.077080622788616 0.6568129851408301
P 2.3009438074031174 8.467683341437997 1.2926333418799738 1.4949123973013998 1.1694660158005732 -1.4239990581202895
P 6.764774430218115 7.9410218197186975 5.5264641061874915 -2.3014610312388815 0.6495200510238427 3.4233423552819557
P 5.037516955367916 1.1168528903127777 12.36048061629272 -1.3285651080899956 1.253539546512725 0.5105192721461917
P 4.432229295550119 6.361182673380536 7.858378486724865 -0.2651064469601886 -0.09423530173650223 1.5511557931751607
P 4.906149229084749 1.4279673664715673 3.71427931400591 -1.0937254304341484 -1.5238121110548855 -1.3264434337613027
P 0.4340079207215744 5.682076785191913 3.3380262952795636 -0.014593838653774865 0.4359755353013459 1.1960342532074046
Ni 0.7499530282986221 0.04950056623970177 4.690913016251433 0.39828470561879153 0.6094206118997956 -0.6984859393995843
Ni 2.1512714871851 6.98925564451644 4.449425070984445 -0.8289650539594691 -1.0199993043945916 0.6929166728419227
Ni 6.381341357267077 5.914755985453114 9.082486845272571 -1.3236165058354687 -0.8866886339231828 -0.21143312580644877
Ni 8.780688262253415 2.5054844660445115 10.226036813154478 0.66257097067053 0.7764888384376241 0.44883233665935607
Ni 2.5820838293428747 5.708661163175742 6.9091744093529135 -0.5495928411088857 0.39270618308974947 0.21287217224582045
Ni 0.8466892626605658 0.042146918298944076 8.841291555380312 0.08898690885336932 0.5049718599654013 1.0727105187453785
Ni 1.4837536611945568 1.0312012054855617 11.42110594226761 0.2676407833462681 0.8158166895029693 -0.49303628487007994
Ni 4.4009915153345895 7.21677247667685 1.4745750070660544 -0.6360407855904853 0.0315687759452166 0.18434809666419866
Ni 5.810754263309881 8.218662701308446 7.864351564745711 0.6772707387745497 -0.11138661670480818 -0.6567780181378366
Ni 5.482380390983128 3.068546136080132 4.807041759093409 0.49000238313976263 1.557278104022815 0.6692704941778926
Ni 1.3205483020644295 8.040015681257113 6.9158382267675265 -0.6039696160875534 -2.7954370543144114 -0.8706981720321972
Ni 5.153397577348711 4.6574830473283155 6.701646302833472 0.6751634626235598 1.3741060299445882 0.7500846374124824
Ni 1.3524132009400893 7.6356786529683625 11.225896627515446 -0.3871158334861655 -0.409850813189836 0.3755345564064694
Ni 5.158987113232491 0.46779961895879735 9.982885640136706 -0.7301614161259941 1.0662722193192022 -0.3679456883156179
Ni 8.371625122323094 7.455404759871183 4.5175456082243075 1.9965027423890775 -2.053297382780619 -0.9661035828174008
Ni 7.326145606474252 6.129239655894272 6.937028475406602 0.9154083704553783 1.7457430510688645 0.0630835587240462
Ni 2.6337165990270233 5.5123821112308615 2.5778194224539814 -1.2397643471055035 -0.589614632917462 -0.8893558963427006
Ni 2.793813630885195 5.257971886094674 11.556881676524165 -0.856473286682067 -0.29736016478757177 -0.2682712178414154
Ni 1.1382294568146465 3.510310333099621 3.5917794091240483 1.3897483644675357 -0.009893090743995865 -0.5591298340650435
Ni 1.6521577431304104 1.318476083883126 2.3480640493371903 -0.02970318349138755 0.25227895617821716 1.0657783104019192
Ni 1.5103834825595548 3.881955392975437 7.983180553296744 -0.911702639469017 -0.6588631828016396 0.44103546632275653
Ni 3.66195489606037 3.012687131947273 6.910145079974681 0.5392192111840456 -0.14580957426936825 -0.12659829144824003
Ni 4.295790087928496 7.077406715307949 5.756166764982128 0.972796421456544 0.3457244150235723 -0.1330630732369773
Ni 8.341441628550685 7.741879834760173 -0.04164340563559223 -0.7734965885785196 -1.1222569622149383 0.23527573675200125
P 0.3090068121401741 6.080887898330521 7.773337560940559 1.726898921779168 -0.7581938967831781 -0.2445941859394497
P -0.008516089631059152 2.0008266294872112 8.172124134653336 0.8306100457620599 0.371976663851882 -2.0908848541160894
P 2.0692007407939967 3.4755097918004476 10.448942050993864 -1.293304485115489 -0.6545424439390986 -0.4863290480532334
P 4.330245259530786 6.263670266068227 3.6007981025508355 -0.1452105072327886 0.4010380999942125 0.29532462241478175
P 7.058111455663617 4.0055432124024835 10.468282754019365 -0.07031607191674341 1.9362124301394523 -1.5895850436856367
P 6.556234754033856 7.868548715430474 10.018522339649389 0.3042278384416825 1.9052234379571056 -0.9451341796545852
P 2.938087277420342 8.73191842558291 5.538781989087145 -1.6669762772816066 -0.16429426333711705 0.23723157492679142
P 7.127494410032353 4.161968419062204 1.4301722793258842 0.24649140296216257 0.29668370754583745 0.15234171896093118
Ni 2.8041565444392456 1.708571156513531 0.2468684415973905 -0.05844271751792515 0.775017138988104 -0.18388144144042526
Ni 1.9115122081377787 1.239459132706575 6.786793566129713 -0.4719336985635098 0.7745736236927822 0.8130026170929417
Ni 7.541192774841905 0.7125876625662738 8.749519555977264 -1.2472747965499358 -0.7131731090981137 1.446418306355754
Ni 2.9929010837863164 1.9692434795747986 8.839509265970866 0.17356514711608173 -1.1781902830474484 2.096210122983744
Ni 6.445034800313461 2.377434106586675 2.5317934571384573 1.2107193660234052 -0.6748523591410441 -0.08947670400559428
Ni 4.4377733880527295 7.236485815427935 10.106038111972154 -0.7825818387092394 -0.37204222698249473 0.06746471851087736
Ni 7.222452899322967 6.387503479753586 11.30511080296627 1.2834422476094283 -1.6567448293615854 1.8458643792724985
Ni 8.012904160051724 4.125032038848092 8.301687758704098 0.9738606010550002 -0.5198860580730724 -0.7189048693755683
Ni 3.393402690704409 8.767346085542215 12.281306431017324 0.09294229395669155 -1.025038409480396 -0.15352854018018072
Ni 0.26782147578676485 5.027210396518802 10.06806016946165 0.2232118636089317 -0.576618220657794 1.7166407343862693
Ni 9.0463957119482 2.06880083903971 5.749701080709411 -0.0038656536029933425 1.5412220790012165 0.309161528297874
Ni 3.88947172822078 2.9280624675344744 11.51603080345616 0.19643228152224235 -0.8876242583635745 -0.11566673213740081
Ni 0.9179653882887997 3.782570718358968 12.54105807117611 0.6681446081035655 -0.89192211440798 -0.9478639198809226
Ni 3.431411534714109 8.585236279845809 7.722802703345452 1.18208061924079 -0.2547932379596386 0.3205900818497898
Ni 5.717386292360179 7.913546751463957 3.7550102165476296 -0.650212706215493 1.7987499422831992 -1.9999876156138847
Ni 3.247629412590687 8.71166885493403 3.206308654961394 1.2300664030914492 -0.1151514830638791 -0.24402494369954106
Ni 3.687266859371469 4.305351375326441 9.309062999442784 0.42642568682938176 0.9860417165022244 -0.461560839969618
Ni 5.198422879410896 4.961172075004099 11.464391671698648 1.0073924142638586 -1.4391510832703795 -1.0779373143619564
Ni 7.955972692123278 -0.0607587094904947 2.6232864341811286 -0.24699636762303914 1.073091813344197 0.23707730873711425
Ni 4.834512283010033 0.7288536664218839 1.2961988295664886 -0.6080885233519334 -0.5204298463916843 0.8931045647518555
Ni 6.116251937556189 5.862259791526756 0.301844026400326 0.4348902726569671 0.9826350048135207 0.26157220855468505
Ni 8.299015687891364 8.973368198409716 11.054217895532558 -0.28195231487293376 -0.0012726960648365177 0.1539496868779994
Ni 0.33991467340841625 4.718013631045342 5.7944364539997375 0.020078258807113808 0.8195501884034726 0.6189552908631082
Ni 7.493740796225299 6.4635847885066235 2.4181795510103696 -0.09068357982950188 -0.7895706113222466 -0.08192948778595567
P 8.640022820183082 1.9353063625178348 3.585833597131904 -0.1055440418811021 -1.0080984391919479 -0.8334637131607711
P 1.8790201906019874 3.8114636201061796 1.222413320430106 1.1452449384696792 -1.4837931474597863 0.32154396112262684
P 5.054876326974452 1.547765207909124 7.8350205888040305 -0.29658703406697307 -0.810833634466081 2.612250582058482
P 8.561787495162637 1.7059445290819666 12.265809329171093 0.8843016217482448 -0.018870354541941695 1.2264000099834556
P 6.367490214686785 8.05147650198792 1.3613201036492015 1.3500633871730878 0.2931795510473209 -0.31483826696767714
P 2.0549496964594174 3.3135677586668173 5.659658656393653 -1.6539909207655323 0.1019432119037212 -0.11264568592288987
P 7.161713276052564 4.2231624761442985 6.078704798299165 0.6034597663306704 -1.1617758462451668 -1.0183658825562267
P 2.8252695393303346 8.875010544207665 9.7302240763079 -0.6231868124459525 -0.14456310345677684 2.585640178559805
