# total energy = -340897.92696130835 ev
CRYSTAL
PRIMVEC
9.01904664196060 0.00000000000000 0.00000000000000
0.00000000000000 9.01904664196060 0.00000000000000
0.00000000000000 0.00000000000000 13.20028641972326
PRIMCOORD
 96 1
Ni 6.256187918222885 2.0138268318787125 11.308791287245423 0.8116790131855117 -0.12687648481029118 0.2512805968206898
Ni 4.580160456484644 0.27086000651622355 6.073649630933223 -0.7451080101334974 0.7642010222092064 -0.6882688896572663
Ni 2.6032395631602867 1.483858636523764 4.822777318674631 0.6029198346668003 0.5300799678869387 -0.20449346126382204
Ni 3.4908760882439873 4.2238179266013205 5.005627664975529 0.1851957893764746 0.6390947419254607 -1.2002611468045585
Ni 5.237531703652598 4.4053442768661055 2.8467998176212372 -0.35744813121840374 0.21513628568964885 -0.8297099025452936
Ni 7.271804714099913 6.126304628603807 2.637548918207848 -0.5538238484710979 -0.012109124558708178 -0.5403967764319145
Ni 5.194348508687238 4.666472732135959 11.562144422469405 -0.8214283792627918 -0.4412426972375562 -0.3537783956763004
Ni 5.553694381077552 7.757272933690642 12.224244355752717 -0.8484151922642809 0.4407917257430667 0.9654132416185954
Ni 1.844241699269344 6.439581211127151 0.41836200360498144 1.2491671284766421 0.6329361785232326 0.2219175702775404
Ni 2.747255698750692 1.5681055505111121 0.41135420442200643 0.16115906014224501 0.22504763126608984 0.15405767321077338
Ni 0.630700122658438 0.014130140257357733 4.435309157182085 0.0839568026286296 -0.6143033939133936 0.8639932492081959
Ni 8.471842974189906 2.398985215545312 1.293189678753468 0.3519076610161488 -0.1867811315857235 -0.12854024566595926
Ni 6.743477985220257 0.8064046783638791 4.8171142593348755 0.2326131023181736 -0.6231991537411268 -0.6079501980018562
Ni 0.7050585539891405 7.331709221401484 2.5780556794297573 0.08790087487804217 0.24724062242336134 -0.13273165803948753
Ni 7.63198033877444 3.8840433852625584 3.766186994241289 0.03691358519689771 -0.5091532450366005 0.1394844033822888
Ni 7.669499572495387 3.8690176536810443 12.639999854899681 0.3354495154601255 -0.4343009758124004 -0.522100806336204
Ni 8.004259523942599 8.6430876113677 6.872663200635007 -0.34895140660130225 0.3699825162399886 -0.028700967479118312
Ni 6.59554758341954 0.657150280527049 0.2844796687378588 0.7507297271956491 0.2581107323686458 0.2102316492991799
Ni 1.9049128255291548 6.391852416691752 9.265465859758272 -0.44971756747778674 0.8051844066001036 -1.092780807132692
Ni 0.08922723150194135 4.94198656668103 1.3441851718556266 -0.7234899176430895 -0.6350653090510934 0.010263072488904906
Ni 6.481492720526487 1.9370386694027157 6.939615190924449 -0.8089760124320519 -0.4422438848085609 0.1712832930604405
Ni 3.3605689034362354 4.125492280922049 0.2460531189322174 0.24047990666076002 0.9732327376630142 0.3889860539256849
Ni 5.985643578336526 5.61184919334502 4.848927142292543 -0.06283750415151113 0.285693784193237 0.018374645852445772
Ni 5.304813791046412 3.0862185258983756 9.191900202620857 0.24157545371778394 -1.181079174559469 -0.054561894406280224
P 0.30248168568665945 5.6209764684713655 12.42746241491708 -0.5287946734166118 -0.7738465157187705 -0.9704592886829351
P 3.910081372703033 6.264007431596938 12.628674638124828 0.22968384448652054 -0.9798877810856866 0.5846470044995414
P 2.280727476951788 8.430680045655674 1.4590806098887739 0.3904330707848566 0.9066396231238129 0.508622312233795
P 6.251768585404792 7.866123806714227 5.826540381647947 0.44180628305051006 -1.2428671544005434 -0.7106138330113697
P 4.628764098437093 1.0143992245904105 12.564191160880918 -0.15743276033059336 0.19986444713224288 -0.13588203074301114
P 4.033434872607216 6.24347106256266 8.135600291486991 -1.171963071190814 -0.4172501909777007 0.23405292008849368
P 4.608813967429705 1.1725031109193065 3.815107204728258 0.24646594904086586 -0.751639383494112 0.4019721817727077
P 0.15166428707967552 5.467264857820861 3.5256905098993303 0.6461830162308096 0.892503697943063 1.455571690720248
Ni 1.354101613556632 1.2934034301571187 2.5163049732958127 0.5201763356199816 -0.4480273242595574 -0.6160031502133198
Ni 1.850933831822455 6.514024421495588 4.812745433177561 -0.7041544505392712 -0.3460362898370363 -0.5757846690129051
Ni 5.966360856775135 5.5113138812567035 9.294030984046971 -0.13942629645084373 0.5232567743175183 -0.41773201571012575
Ni 8.479653468517391 2.181833631338762 10.045087577435199 0.7213420180621513 0.5892125123830368 0.4555565427570671
Ni 2.3454030598875844 5.240733465184073 6.831438942584115 -0.404927921966922 0.029357627226510728 1.9304783558691527
Ni 0.5259736596301869 8.857650729209368 9.085585485492064 0.18581696790024127 0.4635573015743565 0.10118962156714831
Ni 1.3862635336164633 0.9897772274610388 11.467431806845088 -0.28484686281190946 1.5641475774491385 -0.9441507326953934
Ni 4.131471908796325 7.030274647021314 1.7132779278714758 -0.1462597744329094 -0.9566048992983461 -1.5089562769889755
Ni 5.485230798583391 7.874322120044116 7.885692432051808 0.77674080654743 -0.028228141607757835 1.1667923256231516
Ni 5.43864742306207 2.9586350931540193 4.765685851997475 0.007410433531458206 -0.18621343200771157 0.6460958558336422
Ni 0.871060419397227 7.3328456212689925 7.073914205742992 -0.13629674968292657 -0.794248219303574 0.1778696880287066
Ni 5.06552946656313 4.643871001437715 7.11645885221137 0.4439685808091515 -0.3545749234356668 -0.6358052725409115
Ni 8.032633444444066 6.945288171215428 9.120645225214044 0.6669351611764965 0.7618803444958299 -0.17194149546972967
Ni 4.637278078396846 0.37557203906996645 10.354384054708287 -0.2636064653758944 -0.8460042688299431 -0.25195731117274023
Ni 8.128911766552505 7.227945090641989 4.735827396430992 -0.15087721860026274 -0.3560772190128061 0.11613955800876129
Ni 7.172477954251646 6.038170505545851 7.016268969606589 0.4058997989618881 0.1813897853668231 -0.3307084012307143
Ni 2.247122509441151 5.320101074978385 2.5527238833355206 0.5810418036467864 -0.5451630874723062 0.29665593963169556
Ni 2.363729762512816 5.256661101422341 11.361684387745392 -0.628562217825253 -0.44951239344551613 0.8796700365135044
Ni 1.0649690186945817 3.4176233920224646 3.793062851107888 0.20195038312699412 -0.1075991246379179 0.014760446138626192
Ni 3.509428267033407 2.729370929407269 2.700580328954383 -0.11224048006467122 0.2588139290832575 -0.280239188836569
Ni 1.1648459403834688 3.229531175856513 8.265161601143607 -0.7196628305875155 0.9506407112951111 -0.17148615309986595
Ni 3.60676181759025 2.822970594685152 7.174514454966595 -0.006161391615705517 -0.6396642412756854 -0.2217939002154825
Ni 4.02712154000994 6.782539475904252 5.910045028102786 0.586269627704629 0.6779525953329227 -0.06583052534156404
Ni 0.9089485321227865 7.448875655360336 11.365366864458917 -0.5818128774848561 -0.1342925747687042 -0.1448135289046861
P 0.16392477898358318 5.3675953742030265 8.031872236913767 0.6384272835447908 0.7076622065822135 -0.4253959600132868
P 8.532874862312417 1.5302255549274637 7.79041342030305 -0.013885242622524474 0.03593116667897038 1.5288314186463476
P 1.855055536103819 3.2174366344094483 10.421586774492308 -0.6264199746712695 -0.20167013288241398 0.13310523932882237
P 4.005097028292019 6.046828790250686 3.680860500379807 -0.02396062458065551 0.16017535607273703 0.9732103690655111
P 7.015717905861312 3.944723530568937 10.534449319429132 -0.4185521976185759 -0.009442376359822448 -1.5173257319995932
P 6.20208265786424 7.568089412890019 10.186291574305848 0.4678723840099426 0.7279222423828302 -0.7179952130771053
P 2.3084700641935267 8.419559561237902 5.865956320862047 0.5436345666429218 0.29421467718005456 -0.6650937370923835
P 6.931227477616641 4.051797651418717 1.541450660285418 -0.11639743965583825 -0.01209781170479852 0.15275309546673693
Ni 5.384073172281914 2.887330510991085 0.4195543215612097 -0.3073008209400514 0.0875496621862105 0.08412726676822287
Ni 1.5689533408884606 1.1373378483524859 7.0110289035508515 -0.5612679634539689 -0.0765625670470875 0.017970725545807763
Ni 6.986947147310875 0.5096149129659913 9.132301440997926 -0.7582134371672039 -0.33169390507243524 0.0814278655591888
Ni 2.7300563769464024 1.5932777094811037 9.161791017559796 0.029928926348948455 -0.47211341867448364 0.8479734767411717
Ni 6.379721799058418 2.0069362803011153 2.5954669488283844 -0.033494532213019734 0.0042991415959861435 -0.02888942934084057
Ni 4.037195815025877 6.777479790779864 10.42344740379919 0.3747894507103287 0.9013472643766218 -0.28079300445750993
Ni 8.211057242689618 7.173028116092265 0.3980159364532783 -0.19579593348982408 -0.1857812295662994 0.06418964730403139
Ni 7.522958103866072 3.6968530737533607 8.122980841529694 1.0403554994534405 0.5692931477512905 0.9957841406009689
Ni 2.959284464506882 8.40628352469049 12.459565711174223 1.1684362889844782 -0.4212906795956615 0.15093763952455294
Ni 0.10914579584634332 4.82879753225846 10.165830965262737 0.35959294547554843 -1.126429091314757 0.26569368692222634
Ni 8.729147353715122 2.2387798913661805 5.666843731695224 0.10519925694717365 0.48420763083485646 0.1386711634523741
Ni 3.791769519830104 2.6802622208470392 11.241443360811667 -0.23074056788580907 -0.08040868026605506 0.7016491676189142
Ni 1.1457796759396988 3.3888165572857565 12.64595332753891 -0.781521515765525 -0.13385780122413077 -1.1132899828296374
Ni 3.095742639073693 8.420145799264791 8.062628989518375 -0.07030090240809184 -0.5332120857580173 -0.136329659803391
Ni 5.6013420040938415 7.83822789568084 3.5850394439323403 0.23216290215463242 0.2075001093006297 0.4378048752006008
Ni 3.1407747385853972 8.253410685370765 3.653997270178403 -0.25535579533132796 0.6941713711846303 -0.07804660779178171
Ni 3.3834321864849377 4.472229526210948 9.322635792140568 0.4076301513894335 -0.48869754828540996 -0.5522858145600166
Ni 7.429042771958326 6.062837597908061 11.32134399625812 -0.17944654559752324 -0.2507699757328584 0.6984787403107325
Ni 0.51974149845202 9.095257511031088 0.2560687701454655 0.15605927702183445 0.09711596571840694 0.9108873426565732
Ni 4.662017323131596 0.3922735095037285 1.762211666928296 -0.7097599696515067 0.334670728312572 -0.43031165214734923
Ni 6.192125630453681 5.69341745050181 0.227043674481823 -0.8654441227221096 0.4561478964841628 1.611580317009805
Ni 7.764434056665265 8.533957147900521 11.55801189533216 0.21909424189613236 0.7595874346965951 -0.8930788537202425
Ni 0.11273898399884942 4.853383453201562 5.770069425374637 -0.4666271987489319 -0.08945125008429756 0.07321241962793197
Ni 7.887823632755716 8.848063482708078 2.3955877407033217 0.16994580519593958 0.3883574192027505 0.3568380084382306
P 8.474620840532706 1.62102931576941 3.5466922617364935 -0.897460784838022 0.6497301101521198 -0.13199246588061783
P 1.6632384537054756 3.387039805111952 1.553805852178285 1.1051418998012066 -1.3470258858983446 0.1459288734560519
P 4.710747231735989 1.0923508440736192 8.20380592924932 0.6789820650387016 0.4940716681131297 -0.28264291318205514
P 8.3160479637823 1.5193125085807455 12.278312638020436 0.24228584952124727 0.6976086790009534 0.08872002834522785
P 6.289711714314414 7.7874236063659135 1.3433797709971458 -0.31098341199796115 -0.8223496055254805 0.2738687665338509
P 1.783615668242371 3.307618081038235 5.987095644833898 -0.01847954686142624 -1.1336127535473897 -0.20746000009131368
P 7.010468820759007 3.94108885480222 6.017099307050119 -0.5781459701562301 0.35226093059050945 -0.5904931788676734
P 2.4453611529955794 8.538601956882802 10.229812983517489 -0.08653381932718646 -0.20921632066078807 -0.5091468172786974
