# total energy = -381175.3906312881 ev
CRYSTAL
PRIMVEC
9.18471864797925 0.00000000000000 0.00000000000000
0.00000000000000 9.18471864797925 0.00000000000000
0.00000000000000 0.00000000000000 13.44276414690666
PRIMCOORD
 96 1
Ni 4.519065305618465 2.7743177677421693 1.6780738277292575 0.43970903420184915 0.2907740269296218 -0.5332149139714945
Ni 4.506822075561985 4.50477388328697 11.281759005107077 0.09668993392458186 1.2161947873156798 -1.2103964354663477
Ni 5.097160686702429 7.080462923946287 7.544200290693994 1.0539548354044301 0.36850104659845573 1.6928554590412135
Ni 4.171598211644944 5.656399840250042 4.032372571368762 -0.44633116750405716 -0.1513492731406748 0.24047270757190847
Ni 6.761679706541698 1.2200153725673881 0.9115162847158685 -0.823492203770356 0.8437537822328695 -0.8117988265928278
Ni 8.834266594482514 4.657442277884731 9.074578330541604 -0.7158228880161349 0.2943972255045059 -0.7169953110576813
Ni 7.2315791010800226 7.481743284912246 2.8991335028153418 0.17117582094829875 0.1460656561442323 0.8444400096666167
Ni 4.690167430691361 1.1398144086865287 13.087243250948484 -0.8116345331008216 -0.04886304424929004 1.3265372790266896
Ni 5.5068634347364975 8.178367461104145 1.3610127450850513 0.43413719654102656 0.3782712386113421 0.09400698777578004
Ni 4.1188595567429855 0.3193333820560388 6.941332804744814 0.05156475945116926 -0.3572329298838041 -0.11886749846288559
Ni 8.877297001695275 9.291812542339693 12.402562882982727 -0.5174944179124442 0.009131529987622983 -2.0394936441283065
Ni 1.6946357125288414 5.927955233985898 2.8842120087795142 2.8539857012825816 -1.347304593481028 -0.5742625759414239
Ni 6.151786829242029 0.9515001207285282 3.445636206911102 0.18551820571289984 0.5317570984790455 -0.39491141827118437
Ni 5.279440614460048 2.7000776863119147 10.29485914148006 1.0505170133674744 -1.7918326463380752 0.0670602839836071
Ni 2.286296923165259 7.0471499491414455 7.947845716730878 -0.8039081109908413 -0.6576712193760673 0.9370737712439539
Ni 2.3401836679074717 3.447649497254973 3.0206565162266625 0.43087009575398055 0.8119908879989758 -1.2782085100143148
Ni 2.1888837963992955 0.3874839949735808 5.47693135489324 0.5638542361239063 -0.5355944699472647 -0.6952491776298414
Ni 3.327742994338732 1.3458552037780678 9.015941249276352 0.07042302980825292 0.007331500664406729 1.007587046773168
Ni 3.1625466434041076 2.117509347210317 11.370911395854437 -0.6646018850576296 0.8309088079494013 -0.09279908351060792
Ni 2.474427516748819 0.1624859404397498 12.65152295019049 0.32220216353191605 -1.04351744212119 -1.519382614528622
Ni 1.3988418460855205 0.15427480190224543 7.844081356968623 0.6029725422816068 -0.2941935941341321 -0.0048724976009528985
Ni 3.4520306080853866 3.317961268899759 5.113547143374421 1.5568628708622672 -0.597522317800313 0.5178299468749921
Ni 2.3089005159402016 2.131286425293378 6.990815476859808 0.3102642744437495 1.0718646258053155 -0.7921496849033325
Ni 8.052895018642346 7.749891148002224 0.44174272082403626 -1.0062426169301315 -0.45974821224091145 0.9990008477660536
P 0.25561255897813706 5.7538772600470605 7.150959314025439 -0.07205233788155978 0.0600278026168579 -0.6791471298616563
Ni 2.7198707551579124 8.321153098356989 10.047700197613688 1.5063075265122186 -1.4224268285371633 0.26153981265485277
P 2.1543400692857 4.228864932876867 11.38688178476832 -2.2381154771027005 -0.14120575694876972 -1.6436604853738015
Ni 8.68733864908603 5.805109621078604 1.9941806180982433 -1.323613163401359 -0.28777612064356245 -2.5289851490699222
P 7.467754958298577 5.301704372642275 13.156702686283916 -0.5389176207832267 0.13767511808769192 0.6567412513626303
P 7.981346059797649 0.18457610743812988 2.1463658964912247 1.078346376874917 -1.0763242042385657 1.228640212167884
P 5.792526556429407 6.812085442888257 5.560290025070737 -0.7275571457339276 0.6940569570939531 -1.178241705110674
Ni 8.363402804478376 9.092439853040355 4.589682015512875 0.7173974315921064 -0.20002925484488132 -1.0843033657893004
Ni 6.357570452209352 9.093275662444062 5.743273502282465 0.026988869884018035 -1.0581310782693067 0.6755468141049076
Ni 7.878229222705298 9.12684580937312 7.747522409043809 0.32251352412474776 0.0020563683083964584 -0.26207434500208415
Ni 6.70889512804613 1.4913687024913584 11.979022437722028 1.2581521055840719 0.47252376673902485 -0.7479261963085828
Ni 9.105390306438434 6.375131634405894 4.181290845312312 -1.0600259812991744 0.3921747360663117 1.9141395094998133
Ni 1.6224346386548794 0.7189687598988794 3.1472063261945555 -1.6554597920015746 -0.8185613421276419 -0.5300504002005839
Ni 8.078593861626617 3.1315665871546643 13.20743539861698 -0.055357907945014335 -0.4545738671288236 -0.17503298991085983
Ni 7.039728696414036 4.566715626348412 10.71848041226551 -1.863316513310675 0.3905685679214564 0.35952069747671633
Ni 7.016592389953216 3.505641811265938 1.8196259572577322 0.02308053596854735 -0.3380031351199147 -0.5147567072663071
Ni 1.9159231406989679 5.067154210637522 5.231224515056823 -1.0325216052313184 0.3449407427800124 0.5158633100669245
Ni 0.8924322761552124 2.165150483221542 12.296513365202427 0.10902454423053481 0.4054202882223082 -0.4670128642231247
Ni 1.4327242734511285 6.020757631953397 10.13025244948739 -0.2938521516343133 -0.5346791572218469 -0.4239054915106893
Ni -0.0692362466704872 4.69070014437724 11.7921134117285 2.388794720759544 0.27382942865548326 0.19024543598524007
Ni 3.3899786483992798 0.158602641364071 1.510886229775695 -0.27882353943596494 0.13507573279163188 -0.12660034833076908
Ni 3.5836751815283963 1.510463732714481 3.3576263951727636 2.4501489554973097 0.20245611911881908 1.8424535538187365
Ni 6.140480440495198 1.1269466177569498 8.379789261150368 -1.0516480416481244 -0.5412755794924421 1.389841438401974
Ni 8.234743264620029 4.463626343412227 5.335190938630963 -0.7050702774853211 1.8079951150305509 1.3270075337948888
Ni 0.7065179551992811 7.80240018493613 5.95588412667588 1.5184629309278301 -0.6000414846777408 0.4078039579631364
Ni 5.945782773025379 3.421858807083483 3.9515277587054873 -1.7937044094394916 -1.4323412594373979 -0.12089866996030146
Ni 0.9285750627983147 0.20372349055796815 0.8146101544233616 -0.24399769000603141 0.455148508685371 1.1151031247789762
Ni 6.849908114585621 2.75897010275764 6.818075716438773 1.5696895903132904 0.4864059240377558 -0.141476237001337
Ni 0.02136824810682769 7.498229855018309 8.618908820719337 1.2719082788278997 -0.3806554225728025 0.8254249020166946
Ni 0.11711067453725214 4.022374086567948 3.380116097435552 0.24321144665931016 -0.0494579975208116 -0.7501088057821985
Ni 7.204915862629938 6.6967161910207045 9.069026168074132 -1.4496288428732518 -0.18272161680436919 0.21611664732504712
Ni 0.15178941701606122 3.136801876826228 6.847260160178058 -0.5209857188951543 -0.9088916523827831 0.7340990606175035
P 2.0920493069128203 7.796329085860861 4.10235553567135 0.08723598760053362 -0.29933760022891676 0.3987860707352422
Ni 0.5721978731925413 7.831763730690494 2.442630939004986 -0.5765634561604587 1.44659854068736 0.10366070881546018
P 5.324904972134149 1.7154574698717076 5.625057906082951 -0.7976230493130779 1.0460823746348888 -1.8724452150848203
Ni 5.703104134951619 3.384109613135896 13.104638189736157 0.32302285966099853 0.3519706530436003 -0.2031783419968243
P 0.011517637277439036 0.8867019301445311 6.407990884105866 0.24445200393463057 1.5041848237422608 -1.511039127659933
P 0.9297507067947359 7.742534188305869 11.336175708119551 -0.5029928818621596 0.17595858704892278 1.0503136391074168
P 3.8419494719921805 4.86681712587237 1.8325176284559885 -1.6803218453505773 -0.5287746188119539 0.2471992276624646
Ni 3.874325605487374 6.139782401872322 9.505445425926872 -0.2485930226861977 -0.7273216326843539 -0.8681311826359694
Ni 0.9456402701838663 6.760200966827449 0.20109206864410348 0.549519564668789 -0.13256762165779748 -0.9625955696641423
Ni 5.684174429665494 5.791213141652156 2.0305566965968858 1.3192831685674378 0.25738928082158896 0.9014069139699636
Ni 3.2354090170260568 4.032403799412417 13.02628059890281 0.5535613388383306 -0.31309583035527366 4.240471335838445
Ni 3.2121257550656837 6.891349565459469 1.1418414761084832 -0.08439543282794497 -0.36697355421033573 0.1779781885821128
Ni 5.530477346570865 6.683784107060071 10.977791657473011 -0.4107427288764861 0.006475837532330783 -0.48257780854091725
Ni 4.897521640560152 0.39389768405718184 10.948916738754662 -0.30009658988212834 -0.7708365252478531 -1.2457460186102352
Ni 1.1575868394136777 2.445780379054774 4.7864848205137855 0.4281490972783916 -0.05068055707400304 0.3561715784988253
Ni 5.734304624450392 4.721606722876906 8.423289925961699 0.18445325478349525 -0.22059987990738134 0.43350316250145343
Ni 0.8033230535858457 4.182325963112286 0.9513173448259598 0.48187564026757 0.026083070240297015 -0.514954682209726
Ni 5.78119261352641 4.6948700066770455 5.7989126913568425 -0.1755641798239815 0.6467059786138153 1.2211775852422515
Ni 7.850427079133681 7.132154520913932 6.546437660234419 -2.2849872019535744 -1.415878485895684 -0.452437280401795
Ni 8.023136529982933 2.319242509221219 4.559637882101208 -0.3695338587383442 -0.9558289403642699 0.2853901369098891
Ni 6.320243755322979 8.317323070649897 12.330173522374961 0.553750314920685 1.028409382835158 0.8478220387649722
Ni -0.1439989385960263 2.053363271655585 1.9651174126460902 0.24968985529480223 0.24414372866559245 -0.0005615289304248394
Ni 2.179313319490929 2.3027192002402677 0.7354654331955368 0.8774421756242502 -1.2469446669040267 1.2315836110669243
Ni 7.798202768480158 0.29030783395064585 10.126393949152261 -0.19551182659050198 -0.4341276834593298 0.1468444432917858
Ni 1.0867267344731335 0.5181540697601816 10.085662477035628 -2.351726098042021 1.0165116029563075 2.028674956246248
Ni 8.562049900998671 2.800301337006823 10.504283586948798 0.9724421234409187 -2.197147519330771 0.8699101289132631
Ni 1.7318705622279944 4.501825588577194 7.9720162225198 1.575358358563293 0.4902209269084719 0.32512679337787875
Ni 2.9647169868500733 6.306246243990588 11.919148174844919 0.13248251814315895 1.4195510496512649 0.5410248969342166
Ni 5.112636937749067 8.131644796965123 3.842600668549573 -1.20330276184436 -1.1858827665956995 0.32006711946678423
Ni 3.7345341865379145 5.082299811810167 6.967061957300867 0.4060833757276039 -0.25456363844733576 0.014973333480380666
Ni 4.613263780831714 2.674856448701191 7.465197014134489 -0.7717546661867484 1.128578790667908 -0.7211504708766354
Ni 1.3131851592837689 2.495708510027787 9.005845406457086 -0.7676360160326845 0.8174308280676246 0.9757022822494295
P 4.27519265411084 7.996629431751125 13.015378337779747 -0.30028710862637964 0.25970687321117214 -0.5951430189348588
Ni 5.111589879814755 5.820677719312463 13.251150985846404 0.5153377765807576 0.2926969549839475 -0.5322193828274446
P 4.5711518454911575 8.76133992782951 9.009515620058412 0.8406643446742683 -1.4459331391892194 -0.6644920989526427
Ni 7.819878704664173 6.664073700682572 11.424562093325495 1.4372412678421762 1.4031612954393318 0.2631508658957145
P 3.7726323997969393 3.694497997628539 9.22369866829704 -1.4504688222760438 1.309553085763867 -0.9864523216770817
P 7.252299826516946 4.922127502016499 3.349224214485841 0.3783434866101742 1.511608884120474 1.1203155222178511
P 7.0260710196743625 2.983141532606487 9.16085406738522 0.5067536344561724 0.16479125757819363 -2.014366767153692
Ni 3.345386839003772 7.259702709806911 6.102261907420914 -0.12959234107955747 0.6493084492336689 -3.703932756810356
