# total energy = -381165.6309934937 ev
CRYSTAL
PRIMVEC
9.27709635781464 0.00000000000000 0.00000000000000
0.00000000000000 9.27709635781464 0.00000000000000
0.00000000000000 0.00000000000000 13.57796826293757
PRIMCOORD
 96 1
Ni 5.685867277759671 1.7693927133859726 4.818454151154916 -0.6905067778488494 0.25130013720471556 0.4047152917354836
Ni 7.130069940537609 7.718024461901983 1.9128509447951945 -1.1083593782972394 -0.14835033841335096 0.6305319399571141
Ni 9.001213844265889 4.593878846613394 4.561735563945812 0.17299950442059883 0.835679232754851 -0.8242226541784773
Ni 4.260942420737688 1.7195004904044873 7.583213411794554 -1.1477034273125009 0.21271610628393045 -1.6636132743466445
Ni 4.179313251899069 6.419323774810473 8.301053772931498 0.10732813036471837 0.11073484205342218 1.4430362772573986
Ni 4.236645705975971 2.1597636413959993 9.613011430391273 -0.2494432865016349 0.7285210523090937 2.255378377948206
Ni 8.718512893928441 3.5842803061883086 13.193494621134002 -0.5143391601129143 0.17818567660722862 -0.5281130739685549
Ni 5.508312934947725 3.9560413793636644 8.339750396304566 -0.3326331290572529 -0.1634308868955572 -2.343928713484789
Ni 7.026871523199186 1.2289090929134292 12.196328317231323 0.2985187038720472 -0.006722663435814228 -1.5982566033177057
Ni 3.8190650550197387 0.26319956656478677 2.2645196831744734 0.10539234679458624 0.5280043163048326 -0.5084094248920406
Ni 5.2158803107710074 4.714156397925212 10.423995692082086 -0.5936006141484035 -0.6492380010070496 0.48360650691574786
Ni 3.9908954295201244 6.14045426517428 6.147818424081439 0.1688975664370833 0.5548162942913543 -1.8423357972939498
Ni 1.902955066354445 6.503828843449066 9.34116653794392 0.34778438287639457 -0.6391045121174735 1.2272816412574605
Ni 7.960973055326888 3.8423876746879153 8.467506214805931 -0.40959061754991394 0.5800447298408398 -0.13191764677862441
Ni 2.25593001986868 4.056011367249214 4.951111059541203 -1.3628926777272723 -1.099492929045545 -1.661730712611951
Ni 3.0529253483066507 4.127908862248566 7.043299405024328 1.2884880375634518 -0.5536456710220207 0.8249438486152181
Ni 2.1715826618642797 3.975718100253164 13.588694277679148 -2.2697873542846843 -0.007292419896355182 -0.18487542992257838
Ni 2.5088051061515597 5.394538628022299 2.2109685734797306 -0.8617617887745158 0.1920009852237661 0.10714378226805418
Ni 9.512548828701277 0.16023678746803827 6.255111751651181 -0.05629121839256111 -0.5892109697211401 -0.6554168761242519
Ni 2.2012693694769148 8.129946084219556 5.558439868461273 -1.6412629316759026 -0.27422203610821155 -1.151051003628495
Ni 3.0409022317235337 1.3335083517673243 13.436091612615622 1.0968981717351753 0.3001446695112444 0.33138357292086806
Ni -0.173341613459791 6.63331855121693 2.083105140663271 2.7735788207887397 0.9469028415192337 0.596768470353424
Ni 7.848228506071776 1.5863370525695595 0.8149873286704538 -0.7154097117381163 1.4776093872465776 0.5870846674067567
Ni 4.422883410764614 8.663332726153454 5.170367804872 -0.050499037190816255 2.521812542580883 -1.1723482224443746
P 5.967269434639068 8.073300135256197 3.9184654292029713 0.6762073305070418 0.4831249392936389 -1.064214308348909
Ni 8.394204167452656 6.696532684239585 13.055949610797374 -0.05226769905546482 -0.4335545845646791 1.2624504758491095
P 5.324079082922935 4.366719870799959 5.7888040809872585 0.8167970511383675 0.12693382041078785 0.5855921420216302
Ni 6.189502272408031 0.6054696788558279 2.638661259216517 0.42243327784053697 0.18579177108926065 0.01744004985331835
P 0.4331735941297694 0.7919272508227264 1.826712179528294 0.7954584375615913 0.7740403768971315 0.45764042186928927
P 6.370656128518009 6.266761928969915 0.39673779908332396 0.6434275649728596 0.4490395675741557 -1.7906769354670775
P 1.5415657866512538 6.203352976928551 4.048406931552314 -0.3913825791823195 0.17341268069861748 -1.1166563281987092
Ni 9.014034791116096 1.7536216499667598 7.906368995221509 0.3929162422180265 -0.726064106128169 1.1520768737898481
Ni 1.3291759478751053 0.9629996865693765 3.8408541706978006 -1.4853880027507322 0.6744409826352384 0.9568797502262875
Ni 8.854366689640763 8.853021510702066 11.89279286440748 -1.1051470420075291 -0.15742196169731598 -0.7216443797939184
Ni 0.12255878924992655 2.5071908914251226 5.578602709187929 -0.7536021636474377 -0.8322753492796248 -1.568739567695195
Ni 3.490006455325933 8.70729688470854 9.546777602578645 -1.7182849548579118 0.014698225442123075 0.21689749135512965
Ni 9.236100641154739 1.4287006351464655 10.420940744326822 -1.1253877945344362 1.965171279265648 0.9974155055568048
Ni 1.6842382480183535 7.817614088846245 11.584668032128647 0.672402612048971 0.26836969109249265 0.2625425428877543
Ni 5.7309539649463614 4.118715259984778 13.200907948650647 -0.1978697852997173 0.33398810042325056 -0.8178072375704367
Ni 1.4841776699975777 5.892319775013292 6.05452423457028 0.43588220425659124 -0.5133919657082964 2.728638251522307
Ni 4.455724331061092 2.5759527279328895 3.090889081085534 -0.6781035190884902 -0.9219644264063412 0.06690627490424605
Ni 3.423888591214917 3.5834268133444453 11.722552584183598 0.33998057056125963 -1.3079638868998764 -0.8527696125782347
Ni 8.435867606167765 2.345314841071099 3.089530914212256 -0.0081496256903279 0.0071116713441167845 0.5449813104788034
Ni 0.35963590853481997 4.259578687606733 1.6650114662911077 -0.48027101478461154 0.3808014612323635 0.4874888726892894
Ni 4.880374129267583 6.969770996525507 10.6005907831543 -0.2817242580225277 0.7631016184974406 -0.8610503645297881
Ni 4.757870074884818 0.23473186938349522 11.44918717568071 1.090488668664406 2.5445665484479467 -1.3440644892771756
Ni 3.6052836518242484 7.428031714007179 1.2901388550741026 0.2664853295855862 1.1130025334962057 0.4484356154415696
Ni 0.7500810533138781 5.5653299677562424 11.788840219153773 0.678057239231587 -1.4957503198216628 0.7307003193485996
Ni 0.3892150018323596 7.3136636729295015 7.848282313229324 -0.3481960164925164 -0.13489035625370316 -1.4382136590577748
Ni 6.163071825536656 3.959585230084923 3.6338849391897967 1.2876974233413565 -0.511203699807726 1.3348589115185077
Ni 4.002658787411631 7.164172545907625 3.5211607995461685 -0.19959962350663044 -0.11838155996540257 0.6209029015077823
Ni 8.564077074669834 6.851478743785284 10.546198240840662 -1.3017559583169516 0.733744248381246 1.2767368105647947
Ni 6.730588904128956 1.810583020198504 8.792779759279126 -0.5035425837180424 0.19511227715923815 1.5963856115472377
Ni 8.983494590659598 7.155711834238024 5.455206198157558 -0.7705948415506922 0.057282121550920696 -0.5872949836453499
Ni 3.8317561225241406 5.607800513834569 0.1508724866354776 0.9313846912789766 -0.7484226763290273 -0.2557095791263209
Ni 4.097517095330129 4.919783233623357 3.9435989380355188 0.08579205606515547 -0.8416621898111634 0.610535185120213
P 1.7050653288278432 0.5394900434771328 7.968950430288171 0.4671195650043181 -0.3833908192260945 0.033913107807677076
Ni 5.65111527566063 8.50871136497227 8.70924785802446 -1.1795845922918138 -0.1507905724237274 1.0473352732053833
P 8.900650122228088 5.612958579282264 9.035159666711326 0.6007745061890235 -0.7290463286849445 -1.9226506322946177
Ni 2.5958428220333554 1.2090189988129634 11.048568767286644 -1.0947723836414243 -0.30036115639742467 0.4143265895730025
P 6.427478342307819 3.3348841309537844 1.4690550755977787 0.5328176785330759 -1.2611212155147247 1.0530714043582121
P 7.65769550577543 1.028560924912656 5.03832225712061 1.5017625874540137 0.29189579923889086 0.24813742320601778
P 0.9557357203004099 3.140584629629086 11.677025234930781 0.46669661853428657 0.2222764962788559 -0.4686701973208896
Ni 1.9964032556613438 2.7679607865137377 2.4102656464890937 0.25495881700322537 -0.3779645060042007 -0.3487683440562187
Ni 1.9172417943930256 8.161488211057982 3.0636236955625544 -0.9281240182498339 -1.036767524991866 -0.6679492042633077
Ni 7.509354738673543 5.258796157463524 6.345825980728879 -0.7700235424282545 -0.1741171629648098 0.36094097486301063
Ni 6.036068379531351 0.7122434890423486 6.881450258249079 0.5299071897545002 -2.1254818753646685 -1.2035079358766305
Ni 7.012928047717375 6.314195721477228 4.117695707120205 0.1355372458090827 0.08254706676529654 1.6449948879145089
Ni 8.729877336686403 8.849050913558877 3.626512430896121 -1.1890038287231846 -0.017149258085776914 -0.29071103490217026
Ni 8.719097350984564 8.816423366473364 0.4503269448721953 -0.6665070725001425 -0.8335501022269903 1.638992904694803
Ni 0.8088607343868962 1.3925199602435658 12.990327143619643 -0.9702214616405164 0.19245581337299758 0.2133077171213423
Ni 6.3389377368531346 7.810099640981797 12.053514844003063 2.450168238771019 -1.091434834627759 -1.2311388102200216
Ni 0.7064675689924652 3.7296895109134485 7.319977664554864 0.8069075599387975 1.9900274190773792 -0.15263431050068552
Ni 7.987375670909875 3.5833989820560586 10.75000305485908 0.8876952208108259 -2.0903086698976456 -0.45772269717045033
Ni 5.735527573337932 8.767143431836388 0.26553090082199154 0.14324412753503718 1.2600032998601978 2.4647278817527485
Ni 7.758945732926774 8.730498902127042 8.041591948397064 1.6966514357485363 -0.25296749760480947 -1.1507823233481407
Ni 0.35425983132809424 8.698335209847977 9.803863562794456 1.868291597927763 -0.4750041099587174 -2.6657020170094023
Ni 7.114948273847423 2.635725058291705 6.613244770613111 0.06903052033610046 2.1837788113333483 -1.2192579996220356
Ni 4.015192144281841 7.9743970134254765 12.663939419901363 -2.498391849664097 -1.6739971886841298 0.2941784246254805
Ni 1.497490302942619 2.8580506670219576 9.438751384414717 1.1329046717367715 0.6118924704790558 -0.13900206442923158
Ni 1.8607999415445027 8.600610279225632 0.44767647850815473 -0.6705133654460581 -0.09655932188398854 0.08327031808456628
Ni 4.043246082975781 3.5359559124526156 1.22938686336407 -0.131752839065986 0.37772127964514307 -0.6644681876932428
Ni 5.330879194385455 1.7839855855968085 0.14437851934521356 0.019000195251586634 0.05750632174658483 0.5464257562348137
Ni 2.4556380682365555 1.8527010366239305 5.981583993966036 -0.5214073798136052 -0.4642214175209166 0.9567082576454297
Ni 7.487043322483422 5.1899508270905965 2.302402705217035 0.2907948528652282 -1.8719662185658728 -2.4065386750065265
Ni 5.1748198833042816 5.795030867909009 2.0453445762896116 0.12013865186582535 -0.4160338020720964 0.46995883422532614
Ni 6.1307225913350125 7.6885789587887 6.3740552565396555 0.7664687351974606 -1.4287604840646748 0.23107686817930523
Ni 6.601869195339795 6.243541357359156 8.799310834953905 0.6496748314341521 -0.2932268593454886 -0.04272787788582964
P 3.3105224765191656 1.1783674732029175 4.183208704563615 1.8270017380400403 -0.22480594756892894 0.09810455488392136
Ni 3.6599628564082707 8.599255823190807 7.166451928426508 -0.07727579106402821 0.3373457040415738 2.7086774921296644
P 3.1664213423482077 4.600168717788821 9.123063863371565 0.24310834542254256 -0.2843645238588522 1.2184717562753145
Ni 3.1730915744649213 5.8808068987172675 11.730156092170883 -0.6357433089547244 0.4669778972201312 -2.32253584963131
P 1.2417022084752491 6.362752042616146 0.4282873475986522 0.3538580998743003 -0.46827373321341925 -0.846327970717949
P 5.545486259136421 2.642580832330998 11.237628564717713 0.6482681808946126 0.10970665789922396 1.0446091325234719
P 7.247119062396553 0.08229897517912847 9.982834518185292 0.8064763859386498 -0.2981289246327963 2.1772482093036825
Ni 7.120171278968021 5.169680372048844 11.766110405928236 -0.42588498383456325 2.84710877165709 0.6902990327134176
