# total energy = -381178.5484005469 ev
CRYSTAL
PRIMVEC
9.13603121389368 0.00000000000000 0.00000000000000
0.00000000000000 9.13603121389368 0.00000000000000
0.00000000000000 0.00000000000000 13.37150516572928
PRIMCOORD
 96 1
Ni 0.2074162309313184 4.498325975576687 6.417212297870095 -2.2809544266450974 -0.7893296989560341 2.3745906613450205
Ni 6.072445886822478 8.066667922752334 2.1920975094332644 -0.359156115048446 -1.3798221064927592 -0.08483894812326678
Ni 6.650866296930508 8.955128689150264 13.341098838887465 1.3853926586020011 0.6354982828234539 0.4846280062017266
Ni 8.883867645448554 6.329177500804753 8.409085460167168 0.5295935151688235 1.1196784028544846 -0.7437769500268997
Ni 0.22144186609681385 -0.09584244936630189 7.888880754747812 0.08239280057561939 -0.6920098447569373 0.0016478200160681298
Ni 1.0488986110704588 8.737791641891294 10.34339431680325 -0.7511390468189257 -0.1700627903897781 0.6132682677806599
Ni 7.23917189284434 2.6714943040958987 10.282941198062964 -0.41369512663659075 -0.4415368314392073 0.15145751658376497
Ni 8.870921889176078 0.4991598574492419 0.8535848807278141 -0.006360652110705175 1.5091719925442073 -0.27882482498754557
Ni 4.141938532786946 6.176943812189164 8.379628154627754 -0.0002689373906705046 0.41950659111204525 -0.919588469974997
Ni 0.6404832975534734 2.5537948135819084 5.049294439003321 -1.5193245075971769 -0.5283208191039869 -0.9910772220436027
Ni 8.170882631150462 0.6271903720937314 11.716379932200963 -0.14788702562368725 -0.12582156118321555 -0.6550862322577105
Ni 1.3055205926778075 1.2242373227016397 12.267647143849269 0.5223779712569907 -0.09604972923742167 -0.5402923896435663
Ni 6.080010520692352 2.5837701320928455 7.319615561549202 0.5648135147133821 0.011918091593824637 2.110145502117914
Ni 6.661482365235814 7.838504678469449 4.645260766070867 -1.3097207216899829 -0.07552512692150863 -0.5409670471130877
Ni 2.1335556484291858 6.8796781994317024 9.439266170425311 0.12347980042391636 0.09490096034495914 -1.3090041552389327
Ni 8.210679183248494 7.277068150443659 0.9841817065486894 -0.49937585393486256 0.008296435680837324 0.22947481379950802
Ni 3.062269768487338 1.7965365918763183 4.198131520158241 -1.7986085316093283 -0.9061590839429685 1.1632583443279645
Ni 0.6100868080021968 6.079160869786677 10.98162923706762 0.5399715159690378 0.34156051345386984 1.1129945630764058
Ni 3.663804337642205 2.1100851841638404 7.36609512050208 0.9182903199888637 -1.1396551030867277 0.1857082102365189
Ni 4.567896853498293 0.44510013337337573 0.7633683994014497 -0.44813248237885406 0.6136212802447045 -0.18619800538874381
Ni 7.2759261465381835 0.6543846826940531 8.980476607836211 0.5907181503942859 -0.4620303234068688 -0.34587559588945593
Ni 8.418414261670222 5.116460713501555 13.218160748058274 1.9767214459970925 -0.8981362136384919 0.6664471657964844
Ni 5.079743003932687 6.067722558669429 10.674365320672713 -0.4859233279743825 -1.539996948344864 1.743700566717539
Ni 5.701239801355277 4.221842262045298 9.080468642593452 0.22571020455075322 -0.12362275375968386 0.1960227047886495
P 8.120442602653393 3.382103950270601 8.399979577826462 -0.6178435458561682 -0.24679839267962014 -0.06108324046456577
Ni 8.863941961305807 7.7494466459048 3.264719652834522 -1.2667727573735474 -0.7459788427742249 0.5879097344112133
P 4.401758125329628 7.899277558303266 9.822841528593504 -1.183970122954019 1.0918361838312356 -0.6446113008683156
Ni 8.386666553097985 0.17217307680520108 5.162390283373556 1.5741116306403857 0.26562863801224573 1.1023926191908433
P 8.55412086976576 4.227881178697456 3.9672859371021745 -0.12055722746048271 0.4548677442201585 -0.10616522040486877
P 4.995901645208253 2.3236764586128493 4.9272388887922824 0.136471584697894 0.8913788403100003 0.13842408043857451
P 1.7587865107768996 5.463319275704006 7.507939314387209 1.3746415907330842 0.9520576462472958 0.2675783055394489
Ni 5.178932895146721 7.416182498193138 12.581141833552453 0.9326563589025485 0.10633388477224912 1.3575522393509651
Ni 8.560927213042396 3.0124966702710667 2.1129520707681477 1.9622497347434784 -0.7611136415331344 -1.2087766404747375
Ni 7.05465146981313 3.1709794042574204 5.2180826162326905 0.40484101868007044 0.1128544594995863 0.9991186042908407
Ni 6.623513019386544 3.3873023520483283 3.0080136197397302 -2.4418952001289496 0.022021498576413685 0.2641350841858548
Ni 0.8980947113445268 4.138119671727033 9.222795218928253 0.017493271688756966 1.5142077551959017 0.406891473451196
Ni 1.732182387794928 0.8895470405128192 6.103048850679865 0.1370169156784027 -0.531460136063917 0.6561460409807927
Ni 7.971799374316621 5.028645181186064 10.119180578827063 -1.6375754555219861 -1.2052439447311307 0.13193281628727602
Ni 0.4693170113913401 5.430009305789078 2.142796744032298 -0.18761725433377366 0.14198608675822 -0.3614824491887774
Ni 3.6137754305511076 2.8624739012164806 13.459222241251169 1.0546564894571449 0.5424078933246723 -1.81931054004337
Ni 2.4052155374638438 6.49678713000367 2.881399189938031 1.1882432964080762 -0.980934477182646 1.4012885038966514
Ni 1.2696159898896386 2.2865567636692536 7.921373049866418 1.3096361323959769 -0.009088335454513381 -1.1341249172971177
Ni 1.1427256519443765 8.076196803339625 1.7047870845072428 2.844977070026068 0.3599546996903414 -1.195209186202948
Ni 3.4826733822024494 6.142784191368563 5.867737575551824 -0.8654682910918257 0.3152722691813022 -0.42615237856333704
Ni 2.8565080728142735 5.020870418597583 10.81752053504133 -0.2805726609165878 0.35914325953263954 1.4961655529822102
Ni 2.2972733283182416 1.3050546550843733 1.0069678820738732 -0.7670950559275498 -0.33966946707874407 2.1576175795569483
Ni 5.978363037073733 8.972057755045041 10.947170868025346 0.750105720458405 -0.4424925104842572 -0.9225948609014886
Ni 7.35161816539314 5.799223736445128 2.8125354408346968 0.8513441929856177 0.356009084779032 0.9606248190910166
Ni 2.3571234689964338 2.7426091712977074 10.613204159511037 0.6039662736534437 -0.8743337119022555 0.7228728528843809
Ni 5.854533269595147 1.918383840574998 12.205657344653778 -0.16499257495572228 -0.11698545094882434 0.5980874462751634
Ni 6.399049867757403 6.431537594860387 9.02027041912487 2.116847082507806 2.4118176640172786 -0.4775158206369776
Ni 6.604172041243401 4.20671299430555 12.008520976077993 -0.15229312511118287 1.2739646471362962 -0.3919412798992669
Ni 3.693934968684287 7.183862359694321 1.1574173037875455 0.3372472307904966 0.394024901901173 -1.1611757507673228
Ni 2.7295629186815487 0.4791875795471512 9.029122319796997 0.34868246921063173 0.12679472372976228 -0.23433908387034483
Ni 5.226970147426669 5.411618474895291 2.2635019888255017 -2.0057702837339324 -0.11218031625069712 -0.3654002961859449
Ni 3.960259415472561 -0.02956236989871692 5.523648144419373 -1.5512455246754897 0.6176388860445299 -1.220508069979053
P 7.479814955806267 8.032508301931731 6.972477436790692 0.1503830525726636 0.227495321475634 -0.1049963969077482
Ni 1.8612105570512416 5.718835797530853 13.35647569307392 -0.46585329669738473 0.7189699182855489 -0.27225977017551817
P 3.0295353685407704 4.4920495221121906 1.6191952621964945 0.2894349964032241 0.8649067621614007 0.10611302701069465
Ni 8.561731183791851 2.600224124362945 12.858921949917338 -1.2697040720877293 0.7140562830340155 -0.2008869748594863
P 2.6178109845072774 8.691718636328764 13.238298388125877 -0.013312143727873848 -0.33053793709112106 -0.32836946868489253
P 0.7939741040682097 3.979682617896899 11.827832204550436 0.8874928749920328 0.23805509926935134 -0.33837337397513984
P 1.025501235055064 1.3130030022664874 2.8166009747381917 -0.6810343195820401 -0.4477936109821965 0.5357520785710514
Ni 7.65506230712501 0.6463166535026454 3.0737884766795323 0.7802040825056822 0.8273056639791753 -1.031844633768952
Ni 4.835399848317018 4.371526997943864 6.698134295379727 -0.44294476753032747 -0.03650477979425326 0.09142971396690705
Ni 3.285709684617173 4.064629436401834 8.799921222364816 -0.05070472544371913 -0.9549210838380201 -1.6135747217320147
Ni 1.66459402865323 8.179123331332377 4.611283865875141 0.3446738622718709 -0.27597912800863433 0.019282245268379693
Ni 5.1125687641916935 7.7383463679435724 6.733702692218123 1.4855463827054673 -2.3633863079887685 0.18541561869676454
Ni 4.144085500129241 2.7771250973368176 2.5326302836025008 0.5427807032830588 0.6945423813708038 -1.9372763526275927
Ni 3.7942851358662844 4.26624337389021 4.349055101893467 0.17146532716425955 0.05949069916646528 -0.6599533305420247
Ni 4.750690566624422 2.0320634773417123 9.883775202577212 0.25733940142026 0.6350172294219774 -0.7982881937009026
Ni 7.573852125398792 6.831111057339615 11.965879463850639 -1.107880638888608 0.4471361799038557 -0.9900426101315012
Ni 6.750449037488026 5.920047749644501 6.851759401553747 0.9823709525188566 -0.4375583064074335 -0.17349161356566895
Ni 5.117666669625738 0.2158122436443788 8.189779598175155 -0.7266464609942002 0.8059765634840959 1.1688610352267224
Ni 6.119733984540433 0.7885189798125313 6.0079372838130665 1.0168275915348295 -0.9660423905621621 -0.7461637050915214
Ni 1.318850062262525 3.4917637332900395 0.6316286560719738 -0.23016901165305523 -0.2041684738242355 -0.28340293127653127
Ni 0.5406940826898461 7.910386972295738 12.60531759942982 0.8365680631177077 0.12210477445326068 0.07012915271691793
Ni 3.3721730843085806 8.844061957319278 2.747870611691017 -0.344865923678019 -0.15861726755699782 1.1499744827348646
Ni 4.258468611301728 5.337004507727103 13.140672585460786 0.5322175830552318 -1.3181259150345428 -0.27476222488239777
Ni 1.6021583911330395 3.4947786236004963 3.1733922301089104 1.1195938135604784 0.14443197719555126 -1.1456498872175815
Ni 2.490098403750073 3.518358720240767 6.067681446528831 -0.33430228922955973 1.2478633220635542 0.5452857290930996
Ni 8.685844168238996 6.9183966998429645 5.354364794296589 0.29077505537088627 -0.684665488576724 1.8038417549838095
Ni 1.1536797534057033 5.329988035731858 4.667992125408587 1.423162678261923 1.0458977694279084 -1.2464265896170277
Ni 0.33978087879787083 1.8661348778916547 9.882491590187456 -0.9483632281148442 -0.9845167952172657 0.9246319459361754
Ni 8.400754313275938 1.8229945383583888 6.84432541293066 -0.5633621269788363 0.5266151492667899 0.8304375247399376
Ni 3.136098036968558 7.335218989310503 11.656810267681955 -1.7302223297254458 -0.3153000370954441 -0.41450656679429254
Ni 2.3631897937423227 7.957053819889114 7.177476273854898 0.34060971950482627 -0.5373160806240617 -0.14766513942086829
Ni 3.824790344189362 0.59759785329191 11.396306386399113 -1.4761276604947287 -0.49011114080348495 1.0667321896747566
P 6.562868043990141 5.994296275562936 0.4804986000306378 -2.1220450817689778 -0.31356942755758255 0.3424868819228811
Ni 5.3841738370388885 0.8716614321468144 3.2554666803907923 -0.27264672120129174 0.6512835706821687 0.8122860506418914
P 4.494415754204337 7.354569103484891 4.1318085013438095 -0.08953198272356194 -0.1842264834846698 -0.25784333763987205
Ni 5.7953135150727775 5.473158781353588 4.826698692160414 -0.0006504890998053313 0.4257592568899764 -1.4002407793584273
P 4.618053665026803 3.711275155985036 11.357636306953443 -0.6670986833375544 -0.3076114102019347 -0.030649092344424637
P 7.005682342346316 1.6888501916055425 1.1554448346420072 -0.9513125405511551 0.14127543384444055 -0.049056905427650996
P 8.08783610714424 8.104418003851752 10.32610437767434 0.3395167435509637 -0.34727736133298903 -1.39790287525387
Ni 5.825133521052569 3.5289565164835857 0.758231209033056 0.5573814839153691 -0.20994857084112228 0.23480651042506656
