# total energy = -340891.9886460418 ev
CRYSTAL
PRIMVEC
9.07481833375787 0.00000000000000 0.00000000000000

0.00000000000000 9.07481833375787 0.00000000000000

0.00000000000000 0.00000000000000 13.28191392814804

PRIMCOORD
 96 1
Ni 6.525656351142247 2.0813276902873428 11.574642867181117 0.12301803029614941 -0.5853807973417724 -0.6391068261103187
Ni 4.477397298160911 0.39597333721225453 6.048158477678008 -0.23164353931605267 -0.6398408760628659 0.2690507763199173
Ni 2.818248297431748 1.69068399376933 4.747035554622462 -0.49734956753345316 0.6528835681794369 0.2611957990518728
Ni 3.3053482359710387 4.422022757864191 5.172548332365666 0.231926103553478 -0.15558773670205464 -0.4677047480838268
Ni 4.959451637813774 4.678567866711827 2.3787112957333574 1.3456968826742761 0.2856230788563016 0.8474212037821276
Ni 7.226214161995444 6.2867526887608225 2.6833320686468634 0.3723623293260748 -1.285430995904683 -0.2511168175493159
Ni 5.194816121120188 4.725893043317431 11.716175545872646 0.5100893836976248 -1.002380305761248 -0.7216981158499893
Ni 5.907751983917783 8.031123306652637 12.237237991304838 -1.1186427625011188 0.5754866781565121 1.447133587255224
Ni 1.7603150733656485 6.814507812572041 0.24445472863830858 0.6847598480627433 -0.5158496832201697 -1.639824399457163
Ni 2.5753426402501174 1.4084843740369297 0.47937182341036794 1.1551274876907136 1.3796961224378559 -1.4586534149693653
Ni 0.8205831705504235 9.09913865367345 4.651153748589513 -0.9479899039358255 -0.15982825714596344 -0.23178906375498146
Ni 8.643982074990673 2.533525878256134 1.2263164746733832 0.4312053676062122 0.3472969017170147 0.4644147644786453
Ni 6.721617974080199 0.7721844429587327 4.916353511498274 -0.007354640592858301 0.1808025454047854 -0.8263990930045059
Ni 1.025354626939711 7.4272213838198216 2.323006432056302 -0.04386122015932446 0.344870037443077 1.2234825792263446
Ni 7.572763317166069 3.793600676414244 3.639961282840733 0.3253710481782009 0.8468789581254124 0.4495008234812904
Ni 7.5599133746783345 4.139269574225186 12.625229118480219 1.169337974863141 -0.008591341213436816 0.5390371770802266
Ni 8.157517373721257 9.019951790574599 6.695784689278056 -0.9107793563237991 -0.9627804319814386 -0.35988579412561894
Ni 7.015279089124752 0.9713685338185721 0.3603247291087465 -0.456144296939737 -1.5475899302007734 0.24074473028637253
Ni 1.7095777651390074 6.396666886085286 9.44846107326798 0.058058851815945174 0.261774040152846 -0.9313666935568475
Ni 0.3947128449724619 5.148779568690614 1.2584041241383412 -0.6482226723686578 -1.3571208082405015 0.03470063670597895
Ni 6.4444367287798014 1.924841526262983 7.047808682233179 0.06661265492322722 0.851966914171281 -0.4661731419306488
Ni 3.4416429296315503 4.302707048945593 0.5809843770993937 -0.27893486820284863 0.3624283580418145 -0.7503283779921723
Ni 5.879901367042884 5.716808735411837 4.696299153877636 0.5521649727114362 -0.6491320715568046 0.39657003692052994
Ni 5.209916618506904 2.70244454313374 9.556947801698856 0.5642846387931056 0.5275962822331365 -0.13497931642308367
P 0.36348367330364795 5.524821882819668 12.168557045167885 -0.7018977932946106 1.0373915317291103 1.568775306029137
P 3.966013146276156 6.180577316510474 12.749309106922869 -0.1212740510218492 0.25431321299942655 0.884349958487677
P 2.544814952023607 8.621313179274317 1.3906296693444031 -0.20454051245167354 0.1347134643562067 0.04142304303147705
P 6.352027855649434 7.677078351697499 5.652463737382683 0.8904761259900729 0.1860069724238603 0.2428178107653173
P 4.898595907359857 1.1020822143223343 12.531007096685268 -0.9540546220726667 -1.2246686291146456 0.3158826490717915
P 4.108660212635406 6.140920361234063 8.190624125263454 0.07596581400335303 0.40312377887864764 0.5022431481803286
P 4.728606413941606 1.1133531384535253 3.8394430277355993 0.6753750644137336 -0.3858868461750709 -0.12218473576157667
P 0.26261979211125924 5.792646990616637 3.3927986284691336 -0.475363293070349 -1.421166987988133 1.6360505342370277
Ni 1.4424877176114645 1.205644038948059 2.4882071439415174 -0.11049675790068712 -0.36370388232012846 0.7152387333778908
Ni 1.6781788943709557 6.317970063166053 5.081554223383489 1.7167893441489914 0.9762591831941638 -1.4205437525818372
Ni 5.939822391228273 5.718669073130753 9.47378979818148 0.3712194739708833 -0.14130397308953085 -0.8886560420621986
Ni 8.494973561114543 2.111510535424493 10.257688016396687 0.7620844900868359 -0.2856385054752693 -0.392291207039518
Ni 2.4438031512955196 5.073676373755239 7.316262674927322 -1.1262198035174282 0.2446924020802108 -0.2445288799191531
Ni 0.5944305351389955 0.006138206990609886 9.303356546156131 0.22913902772664407 -0.1572648672941614 0.06899272511962956
Ni 1.6983794395529452 1.2410993534251624 11.466647993893487 -0.47455005314043436 -1.2371605909340693 0.03138905583424271
Ni 3.855055344865471 6.883630702352461 1.5132885412661647 0.5768308508892325 0.3608275892135979 0.9671831890348246
Ni 5.724976071738786 7.8051875593947795 7.671314934696116 -0.8633178204077261 -0.5060072432084511 0.5996085109053803
Ni 5.267296693612797 3.027277658492819 4.6406478316276125 -0.35871182842217575 0.4379318876967684 0.17274676497984442
Ni 0.8236105298822797 7.421186629756019 7.061741250525142 -0.11867929371147948 0.015504266283186201 0.6820517051029609
Ni 5.116101148564673 4.46569078275895 7.144381081926662 -0.3000757639465219 -0.6599175922080828 0.04393912458511142
Ni 8.069446263662314 7.513341407978437 8.792972439230521 0.01613032990295932 -1.4317293368850117 0.026457165750264116
Ni 4.727290565311154 0.3028784078304234 10.242228156211585 -1.001932419590552 -0.4748367311429177 0.7169341188024426
Ni 8.423981258797067 7.047630815797614 5.019075915445951 -0.9801027253099701 0.2712585826045135 -0.035153150862365264
Ni 7.17485069131707 5.7899789940831665 6.976856309115523 0.347939163286704 0.42285519586930403 -0.38320955645322385
Ni 2.480256695768139 4.881435426255121 2.8967717913244866 -0.060721743360088974 0.9568427263407651 -0.3020683688965185
Ni 2.3889549504509806 5.225833849526315 11.508246960252086 -0.5627003250251212 -0.818717665199848 0.19259928092939735
Ni 0.8915591381952461 3.25351287474933 3.6824105596591483 0.1846301466809917 0.45034054577376637 0.33987901198638887
Ni 3.8101440698853875 2.6036197735776465 2.4312944219698887 -0.8269940462760272 0.22860192427625145 0.33368830979464464
Ni 1.0513539809138346 3.2616257621674336 8.454296596279077 -0.5531314503897635 0.266185024736348 -1.5870388802250153
Ni 3.336647283739539 2.6226133679468755 7.16065132337176 1.0334713707390975 0.7690879179878626 -0.139148874419741
Ni 3.9759319225043295 6.878331008558084 6.001618272841604 0.1779437357997516 0.07068682499260086 -0.07679293789033872
Ni 0.6334667728545595 7.538896095863649 11.33730824085628 0.9065735457725678 0.1334258558930347 0.4442184920364285
P 0.11994005640670129 5.59801029112728 7.963529523728985 0.04942765850350842 -1.038862974068314 0.8482200455343393
P 8.53777040346776 1.480411382622935 8.082974095065184 -0.49854873004787686 1.2716923061623517 0.2700509354496575
P 1.7859877338866943 3.1523014280221395 10.478752401276424 1.4773785021826944 0.2443620153239856 -0.3660127329589632
P 4.0706911735332305 6.353044235281232 3.7363349440169276 -0.8028657857692559 -0.8754580553146859 -0.16685971007144812
P 7.010959475689609 3.8679234369894875 10.540460257153788 -1.3441290239665238 0.8991304592309612 -0.9489851779695593
P 6.410333562205715 7.827702183202738 10.139001192375265 -1.4341387176574527 -1.184639638217218 -0.6983512135939328
P 2.322926573656661 8.40852684350285 5.889546083763198 1.710099847943958 -0.09490250300685592 0.513462928155548
P 7.0554079349444985 4.106337059191295 1.5003251635516668 -1.1669126532510998 0.5140882204443727 0.4345164342573162
Ni 5.423283742639399 2.893523913911803 0.26883150512881165 -0.15267339126873708 0.9419760936415777 1.410697713025693
Ni 1.3104854129316723 1.0107623193688937 6.981199517077832 0.6788306270625017 0.28129539801522524 0.026693964351418544
Ni 6.679029852544225 0.5070146269498368 8.877896402358145 0.9028518739466064 0.8465082050495549 0.9393947060676467
Ni 2.5510584269046532 1.4834695963364706 9.107620886189894 1.2256890999593602 -0.13067220440729754 0.9484542451667536
Ni 6.460716952524855 2.0213431423749664 2.534959699522421 0.11141104218484038 -0.2970580601661207 0.044931570405367785
Ni 4.035244933874267 6.627602858138864 10.715422750913335 0.29259025420275414 2.1414898207571507 -1.775104277839801
Ni 8.215723257277986 7.073239952591673 0.5241669407182458 -0.16851318651447109 -0.3421153575160753 -0.8412639259314801
Ni 7.545947229559249 3.8772704996747747 8.440284169587473 0.15900807523751326 -0.4700999877888806 -0.6541020139675703
Ni 3.441851650448794 8.477241366466922 12.504735498166912 -0.32418525540021587 -0.16420736005026557 -0.2819685128228499
Ni 0.02474521410702992 4.457886439157641 10.29837042612304 0.25664006136039025 1.5287537713308768 0.24474176726090752
Ni 8.664019273446124 2.246244360364743 5.576291528870292 -0.4842585386774499 0.34583034447381733 0.5122485961324726
Ni 3.6535490080433353 2.7292969300131227 11.720996996750989 0.16179952193972136 0.4873952845342187 -0.5028193323987729
Ni 1.3174457984458616 3.3946898205697296 12.700099090589369 -1.4584176448094752 0.03508733062143635 -0.6723277929469776
Ni 3.0967726158170215 8.233718621651699 8.196880304889898 0.6146276100220318 -0.2390863687473431 -0.8163620204834778
Ni 5.74710047836668 8.038129066257532 3.5840050467011713 -1.517021313385297 0.11174451426485917 -0.4705352755540864
Ni 3.0612810020673535 8.583235242354448 3.7116568835641415 0.8417488359876988 -1.274118141995025 -0.45453581480203653
Ni 3.573899329219292 4.384879527212851 9.475476806873901 -0.44260692457493456 -0.09195216212928034 -0.013107226805919362
Ni 7.4009316356651835 6.383934916233385 11.515870714972387 0.8001350171016542 -1.0221101800900074 -0.561534329741478
Ni 0.3954388304237464 -0.1128018044569471 0.4950621839762528 0.5574745578498076 1.161244142111413 -0.4215642449720224
Ni 4.64729604339775 0.44240827415822104 1.765790818631961 0.4033873169526795 -1.0523805489387748 -1.4065042437696356
Ni 5.983290770123929 5.920021138044491 0.44516338894584545 0.11523761501978218 0.20989663455726432 0.21087622486171426
Ni 7.871107038371407 -0.14394748779886338 11.146965745311272 0.9718813658414422 1.0339969042252646 0.48573538033329244
Ni 9.220831964945 4.781113311705753 5.719563850199462 -0.937299771211831 -1.1907874029861685 0.5885445397817347
Ni 8.10028249570562 8.556990868290516 3.0496071560107 -0.5019747250102904 -0.4204725545697403 -1.1215182842767009
P 8.601058185183481 1.4172960224518947 3.505800986406998 -1.1575484384273806 1.9967218003784195 0.03453068678701795
P 1.7069823671506654 3.29993964435897 1.495450171246292 0.9167607707182146 -0.9335174213512633 1.671341753339154
P 4.62880156402628 1.1874308789389607 8.137894894454853 0.1279553196967667 -1.0596498289066782 -0.02572568690087828
P 8.823899419455238 1.4937876645628507 12.451966338158488 -0.49906886421740504 0.43912873621834697 0.26104873195104716
P 6.478113378901258 8.063801726778577 1.3582080665718543 -0.3416949821492051 -0.43008333818662703 0.47336271770055255
P 1.6192288757266597 3.0653737450489693 6.033548020470908 -0.3621447653631247 0.9636744045506179 -0.7553571986653314
P 6.880654162002195 3.7262383013531895 5.894261359269291 0.7642866399444772 1.35280341181207 -0.13708350725028004
P 2.509849677726121 8.562726153355664 10.270585147938755 -0.1641168572189883 -0.7544809667079653 0.9436907623398392
