# total energy = -340856.28892336495 ev
CRYSTAL
PRIMVEC
9.49181454218553 0.00000000000000 0.00000000000000

0.00000000000000 9.49181454218553 0.00000000000000

0.00000000000000 0.00000000000000 13.89223002980413

PRIMCOORD
 96 1
Ni 3.6580314234186684 7.501371542176586 1.7191213812837458 -1.1859169622677448 -2.179916500164465 -1.0932870573451494
Ni 1.6193794956942411 1.2796294859122865 10.97112428148524 -3.0362748585352226 -2.0858966568728783 -0.30530564488689355
Ni 8.140578809001925 6.823750901892357 13.276164933563791 -0.5992904654443292 -0.05636320928107713 0.6490284560994047
Ni 2.925918275838294 0.5002594412625316 6.525361473985154 0.9534946358041386 -0.1873118072782129 -1.0058063007236613
Ni 5.7984071276093525 7.73649328024187 12.779239966750508 0.5720804806884405 2.0446379073334073 0.271535490414984
Ni 9.191265728116962 0.9467221252349814 12.829988902390564 -1.8942180879855375 3.1911897375399687 -3.775618712491433
Ni 0.37667601590182737 6.574894508182145 9.14681081470092 1.7022176169824041 1.2163279704594345 0.012177515902798381
Ni 3.0298536450932643 7.548147204248594 4.578962390175147 -0.7426374371058178 -0.5964157149996955 -0.9083231814738228
Ni 3.562154604711412 2.802220948703064 1.7568114784743973 1.278220851309489 1.048507953357246 -1.4463432301434445
Ni 4.673797956826944 3.463838389666391 10.75330801969627 0.4954405234361984 0.6694635840253051 0.11599274801825184
Ni 9.336015899910413 1.6395306179707982 8.077483870184704 0.05069418392075785 2.369285447082023 -0.6873420069676226
Ni 1.9999822752728522 3.1927426744799803 4.3039930654733976 1.872672243493962 -1.6425268859899904 0.49201761379757847
Ni 9.069533206592304 7.985634428388396 6.974566343179316 0.15578751141768654 0.03667292994100136 -0.3358092127923894
Ni 5.669973385016751 0.8287018523784178 7.094845667897313 0.5293477177066044 1.3941637199264119 1.812090368145847
Ni 6.33063215271115 7.029191735879075 6.555660295190522 -0.18917328596698388 -0.4135521733008233 0.954387065711421
Ni 1.8970910056177035 9.038551923921235 2.2285641531174356 -0.5579448126180069 0.14500944696557608 0.9403035910351613
Ni 3.9965854645680996 0.27029555522036597 1.4017255439339724 1.211323318155991 1.0920141041699967 1.5077452874000097
Ni 8.35084148477691 4.824442545452117 3.7770198613587027 0.9945456402081776 -2.8296998321520235 0.04997736035939135
Ni 3.8651333249505577 6.338282555233479 12.99532017565941 -1.5574516534862017 -0.24862618991697824 0.9098249628303298
Ni 5.258009650185315 1.9111388911425762 3.53979568637196 -1.4672789518548472 -0.371810827697979 -2.00103122638705
Ni 4.741227807346333 3.6919172013401518 13.149064790914597 -1.816923270758116 0.18050429743807622 0.2099969075805545
Ni 5.954594935928123 4.182729439587206 2.1836365473371115 -0.02028574683222958 -1.2902628700756873 -0.20220235123680017
Ni -0.21737773995704324 1.8260162983134829 4.444110282588005 1.1651843577060834 -0.03376655492748378 1.1300201511001249
Ni 7.157834298391643 3.386954691861345 11.013954196251378 -0.26625701562486404 1.526054884342475 -0.8368182314553008
P 5.2811412022286355 8.030587662067989 2.7680826885147147 1.958101774013376 1.4138059196373713 1.755829231660273
P 2.542790673591023 1.608017793685273 3.004945225367338 -1.126139585098796 -2.257823754164905 0.08534674099762077
P 0.7295579511051745 0.6110754268803261 6.53608627523823 0.7988720912288306 -0.994292386546791 -1.4154293141734073
P 8.199219239253724 3.3701541801187607 6.67274372595161 0.5694474139409677 -4.187445932681349 -1.6336414105749029
P 1.61955034835603 7.939798455956227 10.8453026862551 -0.1916590285033151 1.3642291371505086 -3.0188070407677623
P 3.656066617808095 1.6182309861344373 10.804737518439122 1.1898219537491055 -0.6108527163606319 -0.1569959299034909
P 3.8503166024476347 8.427459411774729 13.60605010049034 0.08335850692299838 0.5587837635795344 -0.7673984461005816
P 1.3421995273852332 3.93819182149444 9.187459510484885 1.4421304776136776 -0.4007375380346582 -1.4493141398463105
Ni 1.0003613184036355 6.853811478552675 0.6349596798169728 1.7651157991685216 -0.49751926034209804 -0.49965558995881054
Ni 9.121462923961614 4.682103294552799 7.843608407369024 1.760132487021317 1.248051012594328 0.9168222200837695
Ni 0.29811986037415766 1.2135284894290344 1.6373797727951658 0.2295383200475918 -0.5072326309751201 1.364526099565637
Ni 5.727873453734131 5.600920434210366 11.95534761680145 1.1161215387411616 -1.7045280102831353 -0.7361263754601775
Ni 7.237745885036172 5.037315470226656 6.159259339485156 -0.5243119550549099 0.3029769967537169 -1.057148145530747
Ni 3.037845752939171 5.280818480534146 9.060262551327343 0.2591620564512956 0.6021981260094273 -0.807154642952597
Ni 1.2812715698283696 3.090648717246514 0.5285023354377063 -0.14224936772193567 2.340431756075124 1.2307148353087254
Ni 6.881669954238824 2.4947905674428608 4.9303104481482105 2.260345235035178 0.8582216368317414 1.064735470959702
Ni 7.225510936089171 8.753588667686284 8.707108201046587 0.1693585652339019 0.2280933600709491 -1.6400712253606466
Ni 5.069881885926548 9.156449752370182 5.239287995179059 -0.29801811008654483 -0.7094473235070943 -1.8380554247510406
Ni 2.5462646777140665 4.950939957877777 11.433860681493092 -0.11597732139928413 0.22662011795953227 -1.963358137316309
Ni 6.90691818092542 3.9574032541311577 13.435161369806082 0.2003773822129194 1.8628997374882303 -0.10142796283019952
Ni 5.165360048422962 6.896932792025308 8.639605263555213 -0.42436649030750784 -0.10399829466053702 0.9968688890247154
Ni 6.441790792833977 1.6114253551065092 12.248042905163807 -0.160845128446252 -0.6149824222582893 0.15848665551640448
Ni 3.401714463477005 2.8992652605992113 8.823885995379365 -0.6360287014056272 -0.2265193307156099 -0.5291661978234177
Ni 9.871676961877078 7.163842616997889 2.9777435832476216 -0.8646740773253044 -0.3575959696501777 -0.5546409450557545
Ni 6.921630493468361 4.853610891545315 8.920881899021337 -0.1692996869715084 0.8343096061008342 0.3563335579979863
Ni 3.6258636639296182 4.7502165557193425 3.266521599747739 0.041992285271385744 -0.1331836579752416 -0.47637682193652797
Ni 7.133098629690413 -0.004501018456685555 3.435618275846122 -0.024097407268835917 0.0230270570227926 -0.3217072261733685
Ni 2.608758784670662 7.817790671809799 8.899390532531191 -0.17512400696276934 -1.23113958155097 0.2686838798988018
Ni 8.173249634661797 1.2318761669422635 9.925804034313286 -1.7082692224931224 -0.7087042746934826 1.5980807398614736
Ni 1.9341280659677396 2.6836207259778715 6.725228714471735 -0.9870434182938613 -1.0017915231373136 0.554897798261567
Ni 8.24284361889718 2.571323068109785 0.48904011647172113 0.9799672281733703 0.7852136199051316 1.5649093953158275
Ni 2.338166135655074 2.8395237798603272 12.328395861184624 1.266464224994193 0.5082495022754084 1.2275264102784151
P 7.857817653741143 6.651654812398123 8.508143632123126 -0.4074157213857822 1.5236802134627114 -0.9533681375286033
P 4.159977560125639 9.120931382347159 8.174757883992813 0.8397456895147408 -0.09859486425677859 0.3985317886325911
P 7.832142295400074 5.838215797806188 11.43947319143286 0.26666813502035364 -1.1437770956749012 0.6977254070844758
P 1.5203703781875204 1.2042170193615345 -0.21181648581581156 2.3150557392041806 -0.9297911215396116 -0.1305379928222784
P 1.9761673125823753 4.989733003918422 13.388941928066341 -0.8448449584145191 0.11720450893816588 1.6220099969835613
P -0.31557151059444877 2.748525753828601 11.037140800819051 1.1587213756895591 -1.7051898122368503 1.0168669294131971
P 4.828618943851403 2.192922389505343 5.572034944190573 -1.327979667900171 -0.37693092253336374 0.15791149973922483
P 1.2519893219606453 6.384194462181999 6.298778572283502 0.1078328379152788 0.90392685217834 -0.23917995690241386
Ni 8.904831240627717 5.331191540318266 1.2916622592095037 -1.471989212846323 -0.5864200372395643 0.06177358166337103
Ni 7.221818620231621 0.5970265921739991 0.4872632487891156 -1.4081379227183168 -1.3916047009499841 0.6003374186516048
Ni 0.6090745523744862 6.547880803990398 11.88401093541582 -0.5690131546170265 -1.1717059608746851 1.1952698642375543
Ni 0.8811147031080087 8.617542489829527 4.649340398291851 -0.20696197740897262 1.1671754199941835 1.484135875511186
Ni 9.28138101539611 4.74783411026884 10.371702904501833 -0.23018572382360358 -0.8488468804850606 0.17384179781623607
Ni 5.154700740690238 3.7256036511562147 7.043388642892286 -0.1630040837707838 0.3262480514665156 -0.039536624642041586
Ni 5.555853298756247 0.29413994253592857 10.007337772063355 -0.5681857736197247 0.6766837559228281 0.17321084910045653
Ni 4.241607165202602 1.2361949425597074 13.219401984228762 -0.6690015567872221 -0.0750813545158707 -1.2662986459506063
Ni 9.212982999793251 8.741961194870088 0.06372709366583962 -0.825025866806063 -2.68643950666707 3.2886301764773296
Ni 0.1735303026718072 9.093556989202746 8.999803489408945 0.6731780567624149 -0.9273462595435449 1.2130477570462657
Ni 6.913486516589752 6.188966820644444 3.028311225229891 -0.1942527573724203 1.2140422597490512 -1.18153271715712
Ni 3.9384291168580354 7.438725566187289 6.738606477889812 -0.7396310461793262 -0.1574957523580449 -0.490095199963885
Ni 6.667658011719024 7.279661738061737 10.474199314671957 -0.08339013149188218 1.1834728716026264 0.1828586566028657
Ni 3.8172850878350966 8.31533260656843 11.138331137307945 -0.08385987203944913 0.7634610587193884 0.6330549634892839
Ni 2.2824017252100557 0.639214860276973 8.835096777537085 0.47734715626959723 1.0248980272477897 -0.42823805744777216
Ni 0.686828649573202 4.477924871900409 5.455770657024619 -1.868547422692311 0.8192200587575633 0.751943287887776
Ni 5.278644855003607 4.464892610531726 4.750170045828078 0.7262973051848975 -1.5609370409316408 0.13843616462343256
Ni 1.0352911959249407 4.242262100406126 2.6335362173558834 -0.06327844834367166 1.03826287859047 -0.1938408666459823
Ni -0.23803762349314986 4.306597619384226 12.815332591553432 0.2722068054503957 -0.012921078937042264 -0.33594368148772463
Ni 2.8554130774067032 4.723895753989295 6.773462319257676 0.32882403972380786 1.4964856553257904 -0.5897444736271069
Ni 8.641860518690827 6.746990597676379 4.95241308749498 0.0012809235949526327 0.47094253829483407 0.7100057671137256
Ni 6.270197769510566 6.09970579667424 0.7142011443547073 -0.4094803172242948 0.24011506712217356 -0.04844935375063914
Ni 5.2811412022286355 6.659618444800398 4.433580063533076 -1.2964006075423093 1.136462564291359 1.20679406282707
Ni 1.6818166517635738 8.668978632842556 12.802134223430233 1.398168984431063 0.3226413079518637 0.5410709196808036
P 7.462682906095923 9.165770714252227 11.906655557373043 -0.6752164273486823 -0.04347992556050576 0.011068599109335777
P 5.737782908117892 2.325988137595336 0.6914340779898698 -0.330827700417398 -0.1092042643415087 0.197581307525021
P 4.105779299080353 6.263534515700796 10.636211300394821 0.989697825197573 0.003498242961245588 -0.3783262602189936
P 5.966810901246036 3.0555574788779634 8.878899603293965 -1.0700622824892538 -2.709245705928308 1.5235087208818536
P 7.9706753286673155 7.767104382145732 1.9488441752364982 0.3988716884705131 0.32180621364507805 -1.0999089335370413
P 8.104177700226325 2.2058597327285874 2.7865594547057393 -1.1202895540759221 0.17012655374817798 -0.5857947449507395
P 7.05815126205231 8.843988709401748 6.07034856347162 1.2249419373806905 1.4381074724972136 -0.5808548844469609
P 2.2414065781952415 6.19400697416722 2.743131555623341 -0.7414164202145231 0.2895524958176949 -0.07246217172546876
