# total energy = -381169.71689652465 ev
CRYSTAL
PRIMVEC
9.23979321744734 0.00000000000000 0.00000000000000

0.00000000000000 9.23979321744734 0.00000000000000

0.00000000000000 0.00000000000000 13.52337134633983

PRIMCOORD
 96 1
Ni 1.1145315955702737 5.681049993865188 13.266900946393678 -0.4842145728133919 -1.088167733840713 -0.7872933852522958
Ni 8.048497570295904 6.56783916247198 12.840766296103904 0.8229556145405956 0.09023543654848976 0.8459153086605624
Ni 6.181495682326569 5.696166295817162 11.29278582981282 0.09496935168904934 -0.2080446689501901 0.4071367566927827
Ni 4.341806623556522 8.869628767221322 6.041917515733102 0.8297518115268226 -0.27375563799475433 1.5420674577206475
Ni 7.625315033987584 8.81293339510805 3.094404027399468 2.1052596347805226 -0.8937301141509962 1.9945674730395777
Ni 1.4820258972425628 2.4986988412398796 7.680747326347288 -1.8816798463092113 -0.4635809557234403 -2.3249105205110734
Ni 2.769969934765556 4.031691438706824 6.016264153422918 0.5206260215628905 -0.7000975068610782 1.0112341566074519
Ni 1.1565264564331845 9.522346250406745 2.546761474408329 0.700051227004175 0.8957013789447542 1.1485403213914993
Ni 4.265134818179089 1.1454294645968026 9.275139274731753 0.4111471634037565 2.440478522287081 0.9090400050351892
Ni 6.394509878659582 7.407838017457257 5.662113961334396 0.3297555503991418 -0.16508024957352213 0.38475401812220833
Ni 2.724159039241175 8.896304050678136 10.899472773529038 1.3588007670460855 0.07310854706021602 0.7995454631467713
Ni 0.07293800487694871 4.032328984449298 11.062077429177831 0.2854420731937471 -1.0368878526198142 1.6726093071976678
Ni 7.548467672536136 5.1325573798840844 7.129142749959447 -0.18764399380665103 -1.2930113793551021 0.8505800611260835
Ni 7.409880011791846 3.9318185121793867 9.992608305869034 -1.5633862738030817 -0.22024532478144004 -1.2931905852454437
Ni 0.7877256479784941 8.076300108543759 0.7324753795481614 -2.487254344990039 0.11145552226953064 0.1472177674708045
Ni 1.3367948250658337 1.1621350110082753 5.56861372029368 -0.19281113982988732 0.48494373766993254 -0.7691871625698882
Ni 8.35156279280492 8.600316509889911 9.685695633401092 0.9008908935654937 0.5542136277103487 -0.33851324198711374
Ni 6.636490827204967 1.6928040635802353 8.80197038027552 0.32611743942592225 0.34135096854622504 -0.9284554334473235
Ni 7.44452923692626 2.038048942819545 3.3206366721264264 1.6618713519548733 1.5656321324144649 0.8920408993740314
Ni 5.989908566816678 3.3232302821251545 12.37380377085375 -0.5485937104204099 0.45717788041057394 0.4078723493072266
Ni 3.1321790746306757 4.279410298934468 11.652236891357237 -0.4117236047325167 -1.3765902298190227 -1.1692605846579862
Ni 1.7893691440815072 5.644081580595109 4.467459497563301 0.005320383771648902 0.625173246748362 -1.373291504463093
Ni 1.592312070897063 7.506463571879856 9.413091237692244 -0.14381928331221683 -0.7661519752879902 -0.5132621249986515
Ni 8.851694328291748 5.991996760118112 1.692422460114088 1.059203485397879 0.8676406161527961 0.3567521335926436
P 0.609309857916365 7.773234886034743 3.590752791480956 -1.0615143929192428 -0.9821490663160375 0.6202688674682092
Ni 5.714313249994227 0.6452129230109772 13.017056933691125 0.812021227016279 0.4551731912757193 -0.10302641766557094
P 5.4380988670160395 8.305317626992187 2.731437224478076 0.9228653409540558 -0.4852471278429642 0.2878763936668526
Ni 5.810176106199441 3.3104608876889516 4.442954641568906 1.707308144131434 0.9770857928605172 1.2254846972580378
P 3.9610901775729404 4.5252350015214295 4.350049443221165 0.7482570972854404 1.0885647121688158 -0.3876344249937969
P 3.010407837818288 3.8662898976051814 0.23517029685296378 0.078505035485439 -0.3206291626178414 0.5464509530457944
P 2.7793483250352713 0.8389408986445069 7.233718731311795 0.9839169568497378 -0.39092697970213963 -0.76118897485576
Ni 0.3791484530488322 3.6281619428947436 1.5732143419823104 -0.40508013127407005 -0.2807271842165811 -0.3006614612466628
Ni 6.8624499740481975 7.952717872231012 11.427181396305514 1.4635583084701504 1.1644323100314076 0.49944295972737207
Ni 3.896642618822929 2.010421960645705 5.388563410784543 -0.07427068568911724 0.7538849849951791 1.9887750347275168
Ni 6.4386114124106655 6.200437258733383 3.1598171445565586 0.27570504841164134 1.1869088938673689 0.38964194234212896
Ni 6.3031652814118955 1.0675102871145306 1.8926774257836048 -2.9470580930592343 -2.770090090909191 -2.351537893290615
Ni 5.439392438087725 7.4663721084509955 13.19821601840456 -0.468265248572987 0.368067815715779 0.4007725050376517
Ni 7.085942096061858 1.54921767462322 11.029512701427501 -0.21567390336067374 -1.6676439927725926 0.6127355352056416
Ni 5.144421274570109 5.029681520511665 9.223304957910006 -0.04241754573426243 -1.151216839782398 0.5727147718383298
Ni 8.604751610707115 1.1772143537867725 1.3302927824719437 0.373562263171447 -0.21197897100758978 -0.3535295128902879
Ni 3.0989342980883756 6.323409668683762 6.288164476877037 -0.22145245771566377 -0.8675495991008865 0.513192962323613
Ni 3.6168893949843475 8.488173137768205 8.574859031199153 -1.316974832149235 -1.4770375739035078 -0.9209596392909106
Ni 1.0543158621833453 7.5965515572293345 11.686600606876546 -1.6282822031455184 1.2955997089075688 1.7136394856661004
Ni 2.6954232818630337 7.448871939809774 13.49566252256578 2.6528303032530567 -1.5626339690180895 -0.5468201634597549
Ni 2.1602544499202843 8.071865007726553 5.376676416615097 -1.1257166386287645 0.5821455782339264 -0.965314254146886
Ni 2.285730843873712 2.0887846482096974 1.546478999868596 -0.37977636240195883 0.44686904228539814 0.27904105476340973
Ni 0.9485756668664803 1.032454511071872 11.706073471402085 -1.0539499503084235 -1.344463267377491 -0.5332863906393783
Ni 8.06696791724089 4.441125162481809 3.1781950935678522 -0.30722548761742574 -1.037521115328439 1.0842393453205843
Ni 2.433003910385029 0.4395619180138611 13.397388080291211 -0.18720150695259374 1.1054774287637543 -0.6320118669367503
Ni 2.2644238803643892 3.2639015689016673 3.791642530954935 -0.9576953041490474 -0.42274643820558166 -0.5331226113680044
Ni 8.302564168568171 2.2729337300574013 12.766901539952029 -0.755948295282111 -0.7451082672438135 0.39224081341755673
Ni 0.5276725875823358 3.82239163930822 5.435029407658798 -1.303498394929355 -0.16359929415262148 0.0989177948138361
Ni 6.872336552953217 6.784031847723989 8.695284954096989 0.3238373851424939 0.0649290965732172 1.1744197602614226
Ni 5.054859957442672 4.319649599057235 2.3997766894501305 -0.24780060869188933 1.4715647237143947 -0.9609714037971578
Ni 0.19906395630422963 6.169788864127821 6.235234320561704 0.37472311624876753 1.0948274052490758 -0.8215476784494754
Ni 9.117652540630148 1.923540183595331 9.850370002764581 -0.9485714874709082 0.7355375928362429 -1.1687656472994388
P 7.997059640609693 4.320222466246124 13.056679939596165 0.29106533291779546 0.8332294856627779 0.13200455006547587
Ni 3.8292475659881497 3.129647371247521 8.16835986579822 0.16642133698244888 0.7890191096941509 -0.8658375015057862
P 6.285064526201677 9.425790409698841 7.110169758255179 0.11813576250318364 -0.05466473853273166 -0.19379355834781462
Ni 8.562553474390082 6.182373462696641 10.716054559336836 -0.9653119401540406 0.5003189345744222 -2.279033812583617
P 8.48384891447143 -0.13267788890536455 12.966411778275988 -0.12160983709471314 -0.19803973521867826 -0.43798973751789727
P 8.980376930544281 6.978390901244635 8.218666844776042 -0.6889867416598973 -0.7233307663574058 0.40760109792371096
P 7.356048975623018 5.282971976140923 5.029328560404962 -0.5589177180542375 0.37928219637435967 -0.02122085705198926
Ni 4.430370043000087 2.0693533627543177 0.8179785794278545 0.18246656337076964 1.3538197688917264 -1.275287736823094
Ni 3.527438955377342 1.7862091347492486 11.53377257659168 0.43206180206923656 0.6346922419823907 0.48568935758670545
Ni 4.676739893395831 6.728953439450324 7.746552210743232 1.3703036254793626 0.2624263290248642 0.2641895915728741
Ni 8.203818496831774 2.0263328848274282 5.506040915618275 -0.5202007611000139 -0.003538352170561648 -0.08374674350035254
Ni 3.799412273199076 8.922933135168105 1.5434631313128964 0.3303412476992827 1.0722114676217727 0.2063503119669027
Ni 1.8934738959720279 0.9571501951130768 9.250323961680154 -0.3762945745009455 -1.2038645478851009 0.621712027672639
Ni 4.287365761025329 7.163852033750761 4.193530115485313 -0.3637661030166316 -0.6562931080816181 0.7546015514462294
Ni 5.855839165029915 8.786784779873278 9.597333641452979 0.2385325531264021 -0.6346333637199973 -1.741407656918304
Ni 5.935911214367206 0.6464806226612283 4.237224174348815 -1.4053881278873215 -0.2614601084568529 2.176076814703401
Ni 2.404739382468716 7.224437358872457 2.6626303312164863 -0.4015682614660697 2.474579577735848 0.6876597953183576
Ni 8.432429464371959 0.8638134984149953 7.434554879984234 -0.0979726572917474 0.11460615208337036 0.5739967238745469
Ni 3.492780490449558 0.3832657049741376 4.040580119927973 -1.3179387387244013 -1.8797129523908271 -2.3982509810764374
Ni 4.294720636547194 5.595646583753882 12.938012349376486 0.5056817415482323 -1.0634931139121684 2.038411981028354
Ni 3.8406864301791908 6.752561111508572 10.954809896017041 -0.08844337764507348 -0.1887842780586813 -0.765353904866727
Ni 6.686025359457127 5.476850560406369 0.8480855221419817 -1.4092872058314116 -0.18020116437536063 -0.029723495206361715
Ni 1.5213227384416736 5.67090470074583 10.693308959999932 2.1575975249522905 -1.4278199745282765 -0.6799611411225193
Ni 1.3115055106143956 4.729148001385803 7.709633692357348 -0.6118359062095076 1.2452703645253973 1.1444214141271194
Ni 5.802673393983669 2.451141624768724 6.704806163459316 0.7229774967830452 -0.6772000334376144 -0.09894916227240379
Ni 6.810402217999622 3.1568400831330097 1.3565291757437226 0.6721326462170361 0.643980352152536 -1.1889863452216878
Ni 8.975017850390158 8.416315264736115 5.4365031547011835 -1.074535487769259 0.5356224949717227 -0.33533227315597086
Ni 7.295629966781967 7.845231355967372 1.1491124462337567 -0.3136936118402726 0.590846448442034 -1.0877499295770041
Ni 1.1685012286396383 2.940213127592648 12.846228861943764 2.628746779941292 1.2490755972041006 0.7006081279489095
Ni 5.210883108274601 4.779791308842265 6.39481017194408 -0.05979666044265831 0.381580248379917 -0.48235515100714993
Ni 4.383561249791835 6.539047966333623 1.7533866167639203 1.1201926234867416 -0.056288904399715955 -0.7489356114097037
Ni 1.996035602369896 3.2503652716158222 9.709956558850543 0.13457539611644564 1.262065324595549 1.8194393523117505
P 4.808323790766284 8.765579454091016 11.452834758615696 -0.6688958844472931 -0.07288563241613255 0.33097373907695904
Ni 0.9324984264041117 8.57359502746625 7.524390618974734 0.780125663859263 0.8300713996497705 -1.4234282732184842
P 5.383547126964418 2.7336205876512123 10.347921787942738 -0.7616517734247915 1.1034164324696674 -0.4974508689980077
Ni 4.284603062807945 2.3591779613653023 3.114919140617052 -0.3103925724914977 -1.831393182239517 -0.9844026382369047
P 0.24626544073067191 2.3189294214491656 3.5359016821241718 1.2076206724934233 0.15180487262085468 0.034661041717295143
P 8.44972635755906 3.134276507725479 7.950971551284238 -0.07215672466990798 -0.1272878613160969 -0.07251076557521705
P 3.0102138021575353 5.52637585286516 8.738924498179612 0.6478825154204196 0.2457316419780026 0.7134525880117454
Ni 2.2762692954636745 5.299871558213147 1.7511681423759804 -0.09796905774732159 -2.34432646314384 -0.33212765017574414
