# total energy = -381174.9094789183 ev
CRYSTAL
PRIMVEC
9.22768051085480 0.00000000000000 0.00000000000000
0.00000000000000 9.22768051085480 0.00000000000000
0.00000000000000 0.00000000000000 13.50564317587271
PRIMCOORD
 96 1
Ni 5.027443346939047 2.2399456206296335 2.4716545235930028 -1.018766203318439 -0.9062575571940457 -0.35513850924862067
Ni 3.005501678189909 0.8447074098417622 9.079668507611926 1.6675313784541281 0.6126447752640481 -0.08359350575193991
Ni 7.895351081150541 1.922596460455153 0.3103112082549353 0.2296553052414303 -0.03997011263503439 -0.39175256092722854
Ni 7.851888705981985 6.242064476171884 8.873923529279505 -1.5712163113704618 -0.36760141760232173 0.2758312895768605
Ni 0.35672275011221094 7.493540961333217 12.052206142741403 -0.3099989365975048 0.753654871262244 0.673302498155421
Ni 7.471726724624413 4.656712055055417 3.259749190781558 0.6129975306177766 -0.19439108272249747 0.19598465246186247
Ni 6.592891661210807 8.69308406062435 7.601651543336886 -0.8833330871873883 -0.2332183400023403 -1.0808400898310482
Ni 3.6497321924983424 2.015842171936736 6.981661222941463 -0.6923237764529302 -0.7840825916244818 0.5047296620476082
Ni 8.254686187613116 4.678572430166735 5.310067822613147 1.5856453423115981 0.08289262303017336 -0.1661248887879526
Ni 1.16172806459034 7.39759153946429 2.2528090072506455 0.6161481604316162 -0.40488935541950277 -0.08385318717122978
Ni 0.7955183361531202 6.570948236974963 9.33406089478747 0.5228173727872544 -0.35381927621656484 1.0557656633609238
Ni 8.938189710141799 8.35190902939144 8.336047569375042 -0.7334951084849174 0.33778819089563117 0.25492205022801906
Ni 2.799401434158126 6.645941596421853 6.50578973940804 1.549728316700015 -0.931723305565318 0.4520991803360859
Ni 2.2810457095894523 4.035033991896017 10.527068027978418 0.09959810871031234 0.8248042377135602 0.5371970385476942
Ni 2.7887988292603194 5.393228602073135 8.807110508598416 0.3327182325718915 -2.004330980184245 -1.3384556277308304
Ni 1.5675429977459128 3.36754972272033 12.678894836413866 0.6399547759329107 -0.7895549275929629 1.3575121301416493
Ni 8.746133995835397 3.0904240218578956 11.64988665496032 -0.9948454308367833 -1.447773534832068 -0.9420128604167841
Ni 5.322673756948129 7.576866916274206 11.42526091955096 -0.6225916020641148 0.14144718353561445 -0.2817962489110437
Ni 6.1381792490704825 6.4984186682223415 4.090386233392532 0.2154011093152613 -0.04211698377470811 -0.27310951977032316
Ni 1.1973100006094382 3.773816812220544 4.718655628735137 0.8601913589636024 0.47996556772905086 -0.8540726476603743
Ni 8.014738811496777 7.14869331326016 2.0252793207870297 -0.5881717298233483 0.3648745055894619 0.16158920570112817
Ni 0.5046489279496987 5.135075012324617 11.643944028716469 -0.6857841755621995 1.3815694282011688 0.11514685507818878
Ni 3.1821471660565037 9.075912841647254 6.277301296940174 -0.08157338999811757 -0.6168865812595375 0.1654034372408958
Ni 8.47608592591867 7.2987815366394715 4.473784362302462 -0.567072743061204 -0.3192875609882824 -0.25522775439389594
P 8.54460145365254 0.3675892666724002 10.765537129678194 0.31815730403858106 -0.32630461573606384 0.8152209649004992
Ni 3.182156393737007 1.6310755780082284 0.12289055786512927 -0.5150953215526484 0.7387710121718761 -0.48082740150871384
P 5.185882621173464 0.8577387402479266 12.49122042481023 -0.316071625154146 -0.09215733616155096 0.7376165868524588
Ni 3.7141044916864203 4.249891304725031 1.209217399530352 0.44008261549118405 -0.38523224331020756 -1.2760742372801313
P 5.007022489986178 8.277312460206172 9.396105972952723 -0.5164392371750526 0.9369734982206637 -0.37998127932391335
P 1.9709864170122458 3.0703907274861475 8.657144090601742 0.38136453282468513 -0.40815877019939384 -0.9540541078520344
P 6.081576656865829 4.738469304310917 8.836282897740215 -1.0969863605736077 -0.7641426581674453 1.45469957252794
Ni 9.083774825435707 2.8594736342318625 2.567517205265202 0.41962229075430313 1.1677058385763566 -0.1957293419179468
Ni 4.501364053789464 4.033474513891031 7.1412170465167275 0.05353936667903683 2.1601426599716476 -0.24532386501662265
Ni 6.95321412948719 6.55301885375787 6.51066564578576 1.409394163722921 -0.14543959252445918 -0.738093012268245
Ni 5.974554018393449 4.493594346806041 5.394761319804663 -0.6689591335850608 -0.21459481136388206 0.19473818164927106
Ni 6.540967503021111 8.85775201919821 4.261165684763447 0.5074041235559777 0.6109676446719414 0.1030960945612418
Ni 6.727385104540255 1.628630242674966 11.12355821443716 -0.47242323660541863 0.7539389781615661 -0.26412608532479026
Ni 6.337930848916285 5.427684761070882 1.534619556479694 -1.2308343916057254 -0.5236753499121756 -1.241094635881153
Ni 6.767470148644757 0.45586218113098226 1.8457621787479386 -0.1032192504026674 -0.8599761576290028 0.31172106149493406
Ni 5.452553360026139 2.926429683960746 0.29730940642638004 0.776512749697024 -0.5599063072197518 -1.2611150448671378
Ni 3.6787071092773798 6.874677340727194 3.9948751263474915 -0.15124848589675244 -0.505894886000303 0.12886960398092
Ni 1.9851693619451694 1.5266920561596715 4.977747673590797 -0.7320174954981263 -0.13065137847169112 0.11127245972444706
Ni 2.4257818782770952 1.8607248626833555 11.128731252127073 -0.2374647739835201 -0.0905424262659473 -1.2478566371953348
Ni 4.743885952766107 4.517097249046872 3.298794275293386 -0.12797434586016024 0.20210413509603903 0.6981725219242233
Ni 3.0195646632762947 7.531651281810103 8.839038283138374 0.11259272119776739 2.5788990031812293 -0.39416194169966956
Ni 8.836159246821476 0.7174041751601566 3.1910998616803963 -0.02156435643433706 -1.6226787409158119 1.0523805489387748
Ni 2.3205217267807647 5.029944048355327 2.899648186837243 0.2281293555152071 -0.07830757476265222 0.10402066325804021
Ni 5.5874897320197245 1.3338243059690165 8.790269068912613 -0.9469432078388658 -2.210842243209044 0.4915846400252179
Ni 8.204865940578077 1.2041477118620707 7.329998779780708 0.3928812752150331 -0.17305632580046326 0.8547321356212442
Ni 2.2485735018998247 8.29211365973279 -0.06975388245735606 0.5615196744534587 -0.9952017857349377 0.5436687623149669
Ni 7.597149358019532 4.497525338700267 7.424349044618485 -0.21171903247798377 -2.068392072330212 0.10748419632660844
Ni 1.2670158991281792 0.614971384969908 7.568346076097848 1.3461735652003783 0.5849789339176635 -1.664079672460102
Ni 7.380012808106307 9.154265076797193 12.564340565115037 -0.10603357992301093 -0.9590338204548128 0.4117326035935812
Ni 0.5594013702135259 2.9183739188817337 6.764504372131133 0.18896245550775845 0.3948988198656941 1.502431331386264
Ni 6.478016266630477 2.4169048496333265 6.952272906075896 -2.2721268010511384 0.6493215618597914 -1.8285030051759155
Ni 9.06352006673189 9.14153087770322 0.9452005415903056 0.9084370813438678 -0.5415262620506675 -0.03540691874438418
P 1.093849246811169 1.9505840154203822 0.8406333888997415 -0.4375480219947884 -0.20150738205230456 1.0820821897682655
Ni 4.182603058498043 2.406569847470103 4.642240283722753 -0.4897745833996726 0.9988293551851959 1.0578629122095846
P 3.4939412625682515 5.886724955367055 12.938136369693673 -0.08288979481669595 0.5250411199114506 -0.045933015086688636
Ni 1.4334924830806028 8.861415408357853 10.232091379183164 -1.0889166961915957 -1.052843347507806 0.41011692236702924
P 8.1706312459124 6.371335052336704 13.467287557682663 0.4689203656584828 -0.5792901110630023 -0.044856237082742105
P 3.301719450012798 4.8653130005034795 5.144151358867248 0.08389535326307487 -0.26778810755740984 -0.4151845666979237
P 5.60594509302548 7.622931497344573 2.2995518228379743 0.3575283496370359 1.0226981913829936 0.5351237009584333
Ni 5.082052760155079 6.483266816836615 7.957254975804099 -0.36476240549162986 -0.08238920103119358 1.0782589593674332
Ni 2.3912426701548224 6.6916647533136135 11.031450275961582 1.33016870513169 -0.36108881329478454 1.2950780320761437
Ni 4.554847689984146 5.414701414603332 10.562871428329583 -0.5018556829339228 0.10364631063775699 -0.6708746054402188
Ni 4.3713368078234085 2.9449496387300225 11.659124485911752 0.5021688432989675 0.22672938984388696 0.7872890143769216
Ni 3.7344422995147633 6.8555944974472425 1.5614951759443265 -0.5815501107417725 -0.4576067404178764 -0.9893892928182187
Ni 1.2838656437264346 6.305098761687045 4.737955322506907 0.45917331357404795 -1.267671357928417 0.6134539014289048
Ni 1.7533700277128716 8.495353322808679 4.385228158052442 0.02238916632847757 0.3871595422399074 -0.12888425926893934
Ni 0.2877993589001139 5.785312746640424 7.087599608954755 0.785088664291493 0.23776662149465502 -0.21680775985480077
Ni 4.4537030839920995 9.297810874699964 1.1112471156312953 0.8151548875492542 -0.9469282954405305 0.30224474657338274
Ni 2.4923688207858636 2.476063509337278 2.829256671657138 0.04580651681115337 0.5628013693793598 -0.6719629534083912
Ni 1.666611375624812 5.2203756908932215 0.5153844114467471 -0.0962721296608729 1.714454268257912 0.20599498551001297
Ni 7.199454783706492 8.18137226601775 9.759097086430538 -1.0628526521146924 1.5374024481448103 1.8340753570573702
Ni 0.37077743028614457 1.574805182301678 9.392850447271305 -0.06295114691123996 1.8768148049074258 0.31685401184612527
Ni 3.4450345559029976 9.09276258624551 11.444452649460846 0.4264305719253882 -0.428033911856766 0.18393312061396708
Ni 9.086727683196628 4.240091508030974 9.396078289911214 1.2386222630812602 -0.08436637936222245 -0.16942104304072111
Ni 6.488489684001244 2.2814886382535904 4.34976249080768 1.5643578936877316 -0.12956148784162203 -0.004267002806470071
Ni 9.00783101489702 0.0791891857715489 5.5655675314490365 0.35271061653341834 -0.890754319352124 -0.17818361972469957
Ni 4.166574577464544 0.10178223871479562 3.893758203396953 -0.5063507425907989 0.06086649646806937 -0.12202995535126726
Ni 6.541115145909157 4.16274509005585 11.013068736399848 1.5575966637044982 -1.114608701641061 -1.9278967111849057
Ni 0.9593742588427265 0.7461382494780687 12.459725428485857 -1.2673031759557207 0.196397571629565 -0.30091085825330754
Ni 6.108807542029822 7.333329972442248 0.12267739844551279 0.1440087736152036 0.6491109885108821 0.5924850124867216
Ni 5.581639382580899 5.138812222928283 12.684662136728164 -1.1346275679651492 0.9156107162741715 1.4631651867967896
Ni 7.4281443896093196 2.600065079934954 9.102695261538807 0.33014970051376685 1.4251455130199069 0.4611147535711349
Ni 5.01212539730427 7.585485569863894 5.924790982977527 -0.1400644442554749 0.8160702002746719 -0.726300133398375
Ni 8.742701298688328 4.077472094528753 0.37323291606796044 -0.45162326914093187 1.5921510046405998 0.1352071161631736
P 1.1119908666798273 7.811536059142899 6.904584253237022 0.46286644615491895 -0.11894925954341451 -1.5418363155464478
Ni 4.377620858245869 3.1320131778843674 9.336505307352683 -0.5601721592866289 0.829060698997069 -0.10517843101156725
P 0.2635028761360359 5.5808181190161426 3.0012920103444958 -1.34780390171495 -0.5889075795481084 -0.028990473695079105
Ni 2.1521811513667597 0.25004430412258816 2.1373218174529756 0.09309553170510419 0.38311648251878533 -0.3725237946046036
P 8.620019286402563 2.1652936853613496 5.033134980273222 0.3219185708532262 0.5671971844542103 -0.2055267876243428
P 6.896067104132866 3.1083441773944847 1.8950444520096597 0.4526535101776591 -0.09989507112544087 -0.24953970287018312
P 5.33136623198184 0.5754289284789749 5.970074902277351 -0.1495824110482392 0.6947151595032423 -0.404911981127322
Ni 7.424674781740237 6.620048724930777 11.466952502831015 0.011328794749257909 -1.3173196170831636 0.10654831477590036
