# total energy = -340898.5219726389 ev
CRYSTAL
PRIMVEC
9.01264381271911 0.00000000000000 0.00000000000000
0.00000000000000 9.01264381271911 0.00000000000000
0.00000000000000 0.00000000000000 13.19091523191970
PRIMCOORD
 96 1
Ni 6.4173086184796 1.9169622394783894 11.322012656740423 -0.2533171676347444 0.2391552743120655 0.6640534687533274
Ni 4.715838685643657 0.33713866006967635 6.05230827222195 -0.39673767284664574 -0.08246093480939348 -0.8481382844538103
Ni 2.603680612737325 1.6141374170950278 4.694475115435993 0.5533811045067244 -0.5299771237604872 0.2889215471019153
Ni 3.349395750499877 4.208562044933909 4.711675745600238 -0.17450154288742206 0.36597365219091166 0.1410951995128344
Ni 4.845764954675756 4.576196786893425 2.3440389705315723 1.0508949655321838 0.8939378592864282 0.6812580055570719
Ni 7.226184362053539 6.099216377967744 2.705865965004663 0.21603642890641506 -0.33238656026408564 -0.9620407256019367
Ni 5.116216361523373 4.5338013117597535 11.599641732890008 0.3455680919513661 0.23596093574448396 -0.40543520062064364
Ni 5.395229779718138 7.796639633861719 12.51113453435605 -0.13291137815046142 0.311274975096451 0.016672061339042255
Ni 1.8771083298182933 6.538150142840199 0.4515154152310016 0.16897727063508317 0.08875782356169876 -1.0617018263397004
Ni 2.7839695337777055 1.6910152663488989 0.31124713775589896 -0.004184213284676664 -0.5383380941306729 0.43777067952855575
Ni 0.34190634849350965 0.1635848875342692 4.7322543145570215 1.4185362352335051 -0.3974195294050188 0.581832932089514
Ni 8.477788193423248 2.1725247592254906 1.2021406411850548 0.7996642481128228 1.0191112453626834 0.7138824764603124
Ni 6.850140823686772 0.7642424290534289 4.771246615496289 -0.46445461657764525 0.09592117407935738 -0.4218426954443896
Ni 0.9127374475366128 7.440793429630699 2.4603958034749693 -0.404719919721174 0.06131309708718473 0.9210311159587944
Ni 7.5256925316203205 3.853490928045894 3.725906143801152 0.7581864405840103 -0.32968947304789675 0.4937952745232915
Ni 7.535579401565396 3.7826966131702604 12.689686718989487 0.5746819228670297 0.06425238222116675 -1.190750379100646
Ni 7.849877319153937 8.733044283290555 6.913675454204375 0.6138393097927816 0.013504976464970292 0.23858371807931167
Ni 6.651898716747949 0.8540038522238779 0.3220478897542388 0.4998970165456552 -1.2413517461972816 0.5320892850074838
Ni 1.8081255562908454 6.511058136409115 9.110820051742504 2.0284600120219642 0.46413759955785877 0.7687354197444503
Ni 0.11065903970795808 4.850938212058138 1.3615004014355943 -0.39998806146314336 -0.4502731828709406 -0.01341910161938334
Ni 6.368901710115879 1.9508768170566213 7.051784302291293 0.9445176291165088 0.35293301695686957 -0.15141509338160375
Ni 3.198902628947574 4.253363895888305 0.42355999755038526 0.48421045904833376 0.07138667927310285 -0.4798143868631672
Ni 5.917548522468297 5.545740926557487 4.786139107654214 -0.07626329063911383 0.15423662199079888 0.14399797498192618
Ni 5.3195686373399145 2.6851458975445635 9.346304204248366 -0.1963060403570232 -0.10107777857963239 -0.5254596955061079
P 0.1497018114509558 5.527102779751273 12.377536514352553 0.49981088458975215 0.2918353783146006 0.356878888978495
P 3.892768028520498 6.103154903187432 12.618653569060484 -0.023571359562036823 0.10845813020410353 0.5998067429591153
P 2.5404298804907053 8.560289932235667 1.4447610048326767 0.31836093540895494 -0.4444568332994797 -0.27488589494445564
P 6.378491162824686 7.754640715043075 5.637493242682236 -0.6520232770616706 -0.6181716186195483 0.7943708609243674
P 4.7282671210623075 0.9814137911842681 12.487034725574707 -0.525095884408786 0.21329229050237458 0.38156713575379453
P 3.984426613152605 6.082678177102462 8.14553528740756 -0.1468261884593407 -0.058160410390815966 0.2665640053423216
P 4.662519886559729 1.112502691230875 3.808045574343934 0.6139346977200651 0.14497936505858905 -0.07040734607896908
P 0.2289391707792308 5.567407321587535 3.521248837202435 0.03416430458653471 0.040253962424040356 0.6346169086597652
Ni 1.3978610104660534 1.0374273706816666 2.5853002275358783 0.23515772311689823 0.8023983592145342 -0.1687075619134643
Ni 1.904479728198599 6.461407483239177 4.741012801532978 -0.23062178291975766 0.037623466779728755 -0.3341184553535278
Ni 5.943351720875546 5.625511834382342 9.17914850735016 0.14183310612012348 0.4848941153789197 1.0922131075546802
Ni 8.531305270664689 2.2954391915964516 10.191670338919499 0.6731595448196535 0.37482133238952864 -0.34357163034662763
Ni 2.3396912712959255 5.245899289180343 6.920098765243441 0.2769052393673296 -0.7902056738030843 0.5235542509532789
Ni 0.4398422393396049 8.993401529392061 9.217257569224142 -0.21443051787187586 0.4938392403873494 -0.4271787629453223
Ni 1.477577842429769 1.2155893078505444 11.302754440059806 -0.13232748062253338 -0.35326648903688834 0.25248798686522966
Ni 4.223333767668621 6.9192677995105925 1.5661838447005292 -0.4166400681975276 0.18652119305611747 0.10144878876580592
Ni 5.628684284902549 7.714255059415103 7.915498376647189 0.12212405772697033 0.24370149892185125 0.03156980438648112
Ni 5.27583027832127 2.9408075563704212 4.93250533973719 0.4214243769600484 -0.4462360366870896 -0.08675210598557963
Ni 0.9129627636246956 7.270283226813115 6.8466781660451135 -0.9559263851740827 0.6124570847332743 0.23490138413171804
Ni 5.2198347241109175 4.300788426107984 7.424295785661273 -0.287595372091324 -0.024890335483776487 -1.3555133545440654
Ni 8.050228384677215 7.138112809543711 9.105437701030382 -0.525471779690966 0.04745819348196342 0.5356057828011743
Ni 4.436915393884124 0.2903846705281309 10.421350348996347 0.37191598581727564 -0.4737846357293195 -0.3409807296909998
Ni 8.25666298457873 7.209006263498101 4.655957780810404 -0.2165730181361754 -0.7721994670336507 0.04030898403169187
Ni 7.476159042816185 6.203483650888967 6.90364978954904 -0.6499869633579322 -0.6719557543195395 -0.03552698926201624
Ni 2.341926406889707 5.316251984523334 2.4569394546837784 0.11889578059765976 -0.30494234801020387 1.070662377967098
Ni 2.213415122890768 5.389236371775135 11.311499408070476 -0.435081819842483 -1.0304593233856512 0.5074033522250294
Ni 1.0794262895003115 3.4818725976490743 3.7277131788275764 -0.592316091009025 -0.20421398235019025 0.45171737151663494
Ni 3.6113572471485313 2.731912504787042 2.603807691011004 -0.48326352175403225 -1.2343334058979194 0.1820248478476607
Ni 1.210073570014276 3.259332403771397 8.162643988607867 -0.6319702150655374 0.5884764055479607 0.4956258999741271
Ni 3.622623051552674 2.550397864227491 7.023727041738863 0.279755307221615 0.1600390876051889 0.06953599921760929
Ni 4.123951347537034 6.786412421333416 6.021903218031697 0.1619879838014436 0.5794456628042601 -0.19750443154049854
Ni 0.7616864433502168 7.439711912407901 11.298216574045817 -0.769572570933765 -0.17548241874345263 0.16569242923622432
P 0.274221395633419 5.6026737956942645 8.160269157039474 -1.3539336687617716 -1.6407451114992195 -2.0045227844800766
P 8.520111567408732 1.5080045269644782 7.935759700551952 -0.17837670957211216 1.0799607725498883 0.6283534442485565
P 1.8832189021271006 3.2658305197517064 10.39647184781459 -0.964218964200178 -0.254650027513555 -0.28473193450059997
P 3.958911819338102 6.143369318588461 3.8608749868845456 0.15666271493378825 -0.13094217023923257 -1.1372747757800092
P 6.863993256782106 3.9358124139878474 10.354326924170866 0.2126528571461628 0.16629226760375232 0.330787848318398
P 6.126966307376028 7.6859283208213265 10.294730818872951 0.06062764098438591 -0.5369705243591849 -0.43136091934747
P 2.3022888006741704 8.505952704433604 5.735950965588332 0.5794495194590021 0.11302415230823115 -0.3720499402919786
P 6.875123871533399 4.058609681993005 1.5301458883082044 0.03735864315411631 -0.7693725391078169 1.2150722436754622
Ni 5.261689440633189 2.857080098038831 0.3980929707465559 -0.5164469504845364 0.5486546455653325 -0.05372988542328811
Ni 1.5751126706390768 1.1072302947697361 7.0048635788445655 -0.8278607651516968 -0.28385853075671114 -0.0827229302215285
Ni 6.8868763586878 0.5272738941592773 9.330026468780908 -0.2051956295371692 0.01984248864722389 -0.7215106824295315
Ni 2.701702123696892 1.475027264312671 9.193566033194406 0.41658504658987616 0.4910434228097672 -0.3086622200639523
Ni 6.319881941992572 2.074422134474214 2.547218203592466 -0.07130543241320624 -0.22057262621387175 0.3367049851337814
Ni 4.00929249663343 6.762880409094041 10.528974831630004 0.5053135595755361 0.44800341300015745 -1.1763951388202385
Ni 8.294912643691676 7.282215966837985 0.3996891099145349 -0.6521796001338768 -1.08747790686254 -0.16359055240187312
Ni 7.676663323279359 3.8607731440127324 8.241762381041633 0.1917220205307666 -0.19564012463825017 -0.5448576404167456
Ni 2.856133770468883 8.366238704535187 12.214641995312169 0.9852343901095808 0.13172455693121185 0.6005983856224754
Ni -0.01869672898911559 4.825089950433273 10.193938821294319 0.4160386871681029 -0.552524412933384 0.24101366767704302
Ni 8.732999220072939 2.263994078343608 5.751885319337552 -0.658770365977517 0.7610704470000248 0.3230603977671533
Ni 3.73693040935887 2.6921577342057024 11.42326610166745 -0.30880594473066814 -0.518639587260481 -0.030950168524611216
Ni 1.1214792841800962 3.3339570921444395 12.544955380441639 -0.8405753845048879 0.4530754282064262 0.06499800213793967
Ni 3.2053106184926508 8.395250404036736 7.8229250086974655 -0.24034440952416028 -0.613822340511917 0.658324279579034
Ni 5.657245352227932 7.835285849289691 3.5331996025143497 -0.14729387212437858 0.3098469844006728 0.16817122979402005
Ni 3.250671253345492 8.347699696807728 3.72314917614737 -0.2807719214115874 0.14180482398534933 -0.30691284147301334
Ni 3.566879851360975 4.212311304639608 9.427691980321304 -0.20614050994894176 1.1190829353623308 -0.6385252425752359
Ni 7.232303947005869 6.110599346737691 11.388706218812949 0.0973044275801292 -0.409740769974533 0.31261760516727455
Ni 0.7534308618828609 9.053560924910183 0.2903540275401517 0.17042480171488714 0.15146754388609399 -0.132216666076282
Ni 4.587102085556635 0.44040282576675505 1.5727792972308905 -0.18793272869166344 -0.4841091575837792 0.47372472902566154
Ni 6.089428647101425 5.657741047621714 0.3986427420014781 -0.33463010488262374 0.7677936246564713 -0.16741583968523427
Ni 7.6264809241415445 8.629083440249126 11.592940832430424 0.5244073429821936 -0.1088193701982642 -0.42318558262552924
Ni 0.14044582655251198 4.746328458683029 5.874771812513591 -0.30330121286235506 0.10986015275795273 -0.3470827288236797
Ni 8.041702423904159 8.912918622728863 2.2832018242204954 -0.6231158499987011 -0.18198499574866078 0.39342480642332883
P 8.47355225096729 1.669285782814188 3.5013308950159097 -0.9072775138181278 0.9753040183697462 0.1361090591521527
P 1.6736479022794724 3.189772821058457 1.6852841263324234 0.32080836850818295 -0.4043679356983939 -1.50720998372183
P 4.89768679401357 0.8650749835279173 8.249822388144533 -0.8374648639003642 0.1598899636218343 -0.4410907450407242
P 8.510783481362102 1.4366514281903984 12.34636628672717 -0.1065467721140036 1.0700931357271892 -0.6711520274713215
P 6.3641880975531855 7.712813036451373 1.408130016496518 -0.09428800935130859 0.4317756382873854 -0.3520087053703873
P 1.7779692510618357 3.201336042698869 5.953680210353264 0.29180863884172326 0.23687804824211464 0.2997363783292322
P 6.937067770469138 4.000532207128767 6.049762200426613 0.336990120474368 -0.009514367248338453 -0.28093930022738717
P 2.2912212744275404 8.436924867688539 10.036993548243673 1.209785541355226 0.4806456245152109 0.6802904994374801
