# total energy = -381169.815286358 ev
CRYSTAL
PRIMVEC
9.20310523876156 0.00000000000000 0.00000000000000

0.00000000000000 9.20310523876156 0.00000000000000

0.00000000000000 0.00000000000000 13.46967478105928

PRIMCOORD
 96 1
Ni 3.196873375237445 4.882642927603212 0.4266771142064232 -0.7841836359787204 0.2918793441786586 0.24716117533567752
Ni 8.498662516238555 4.367876453420048 12.126424346523166 -0.1568558047812008 -1.6354905479684994 -0.44190167097779376
Ni 8.056664993165025 6.627073071137918 1.1559348343920623 1.9723472281887968 1.1007273156732784 1.5061530032122254
Ni 7.765938906715886 3.874387557960228 4.83697343942989 -0.0882654573063125 0.7332616523178727 -0.7279911479475526
Ni 2.3583508708170466 1.2120765357268415 10.730979625229232 -1.8209388196754124 -1.1995870035556695 1.4168557622072888
Ni 1.9251055005834397 1.0069669349452033 6.070607328271594 0.12585832795842197 0.6305926179917204 1.1164552679314965
Ni 1.3199553323509887 0.842778020165067 13.040840256195317 0.5361886518878378 -1.5849262047573867 -2.439955302793759
Ni 5.18258132214148 9.271023898927934 5.103080299735944 -0.29390408791817124 -0.9007800790192422 1.226988535497074
Ni 7.852153594207357 4.25468746522005 1.1091214002692122 -0.7193828374532514 -1.462240103879359 -0.3713071485886831
Ni 3.8687184452899945 -0.01806845601537177 9.2545015645499 1.0594906776209947 -0.1381425446424137 -0.8589361464002627
Ni 0.993235902308859 4.309050206361394 4.569600231878019 1.2051454714800536 -0.6518471564951226 1.311796116161773
Ni 2.435261219169546 2.915101909937879 9.2665162181067 -0.8157197589137888 -0.09318937697049112 -0.7300624286542846
Ni 6.496030059268678 1.3753120088306205 1.4711439410305218 -0.9675688545090175 1.7961320450443778 -0.6661900554803559
Ni 7.042436808387332 0.7065766679522139 3.717899801430824 -0.05009228867070082 -1.787876747014121 -0.1932094037095705
Ni 3.2692557959377453 2.925105685055645 1.8042494056211498 0.09009916808094161 -1.3948568893386946 0.9868073910236552
Ni 4.247150122238034 4.543710977247121 3.1516612813818363 -1.3328971598064463 0.33373458965154784 1.5454111773819
Ni 6.6853839443174605 0.7567050604903529 10.019282349663838 -1.0479376826760727 -1.1295653229508935 -0.08180350373105266
Ni 7.731086748140929 2.4215669989531388 8.422223366861243 0.929747669896186 1.6389823631718416 0.9097563143759235
Ni 0.259144711385547 3.0815952822060457 10.11087625201854 -0.4369309572360798 0.3229097311219019 -0.9029122948708966
Ni 8.689682163289467 5.352120922159397 3.194629658242311 1.0625955417985635 0.08473558977618309 -1.8824686607590935
Ni 8.852623137033753 6.029395824152592 5.350249010605623 -0.3213195038166466 0.7320437207503715 0.5082358754286537
Ni 4.177583851662883 3.5710532176828105 11.980399600050239 0.2354426013471687 -0.1175500652030427 1.388951322487537
Ni 0.2751120985330385 7.840042308048221 2.8064877852254995 0.27782749407128277 -0.7228713102224841 0.6558645051846318
Ni 4.2163933453810225 6.5610868084015985 2.0406688898693477 0.07688961136920307 0.347113324951299 -1.5404880290486695
P 8.969484164122425 8.209427332796848 5.007136089655235 -0.19178681233043102 1.020580116598726 -0.3962149675739563
Ni 4.275900622208503 0.23706738283908171 1.3414206544160086 -0.09230286060047975 0.3033989147824839 -0.8557304949787714
P 5.775463751430065 3.4463603482526306 9.004881146512444 -0.3702648233670978 -1.2263678711939394 -1.461321962940464
Ni 5.27104156724908 3.844164561192296 1.2685725566035104 1.0663056436602991 -0.7350881640036501 -2.9904135772267337
P 9.044747156682764 5.926440688694963 7.533763894486376 -1.095241867078675 -0.01676590660442919 2.689406302604878
P 2.4686500840520242 2.3302814006154047 4.32847980160392 -1.3108334951381875 1.4408076450371958 0.4817499133229832
P 5.886434791328885 4.822169324752395 4.643670502032411 0.40584297758202365 -0.9394445854689756 0.5353941810110006
Ni 6.571762410183206 8.441041875932822 0.7012904044493211 -0.43660262736238353 -1.3209106768685315 2.028301632067229
Ni 3.8754919305583253 8.511767737735976 11.4008405058472 -0.10939632574765676 -1.540469259995592 0.3860717084923674
Ni 1.1523207750647884 3.2718786808582263 2.6478823942392435 1.3570914976644628 0.9394571838744659 -1.2083390387166868
Ni 8.239898813399352 8.913013911939712 12.072060685071325 1.9892082656101935 -1.5055675630224006 -0.01176459673509587
Ni 0.6070137969917402 7.754821555895039 7.032248050859384 0.3682187394713465 1.500573966462551 -0.8564712297995379
Ni 5.985681075477904 5.052256152461003 11.341236596417385 1.227580660555118 1.1002007537458471 0.039462062650364296
Ni 4.194839673508155 4.499720135422908 9.855086992710214 -0.43800722101939404 0.1591019205029002 0.8762345284693942
Ni 6.573455781500289 2.0578050713498253 5.471691343355402 1.1028451333472298 -0.08547632459694957 -0.33814711689694665
Ni 1.8475601379870341 5.919124220232567 2.4458908054262336 0.19488756274294178 -0.3018264280890415 -0.0738593091833115
Ni 6.5193139148785635 5.358112143504076 2.550307393955346 -1.0696704463674738 0.4705617579166476 1.6046550506448816
Ni 8.760886586551797 1.866776221193929 11.896483848183808 -0.8346410212983238 0.745862886021651 -0.49178030097579173
Ni 4.103333200650802 6.240616286643703 12.23104340336193 0.31633362056628106 0.14722085279459807 -0.03557429756018389
Ni 6.1829496308130505 0.43337237308238863 12.334194564955723 -0.06829929859703077 0.6386064894351324 -0.7227396697406262
Ni 4.772306901948298 6.994000866855776 6.496221483852348 0.38224590698837396 0.7310924125806957 1.2989326299355435
Ni 2.801728859638198 6.397823725982867 10.18803048265312 -0.3712863226530767 1.4644882764835874 0.8079100330613828
Ni 1.8345837599593897 5.062057459269117 8.587752253727071 -1.6266876049648888 -0.852184686609042 -0.13586686123435956
Ni 6.460782167179403 4.114781863251078 7.004499769021689 -0.6209288696497113 -0.2756618538785317 -1.1375018041891507
Ni 1.6065492246622464 0.22225130412510677 8.550670182814455 0.14703676180825 0.710154376876448 -0.445383201768491
Ni 5.990531111804548 2.914246021174354 3.2162753611650197 0.5171817717680319 -0.31337839459269895 1.2128893770915306
Ni 8.491272422936285 0.4110005451764307 1.683399752832349 0.976087690613306 -0.7315716662099595 -1.0886284755272155
Ni 2.872887267375607 7.4703167684151826 7.971097283953941 -0.7635315069460077 -0.2834373840588925 -0.3375511351841606
Ni 8.316192553717913 6.554432963498061 12.363234962733191 0.23907865543785922 -0.0004543139285992175 -0.11166969516286575
Ni 1.5444926877541572 6.373196217045296 12.265821937097014 0.24257766973005318 2.0198599290577794 0.1799869914820255
Ni 8.97404890419456 4.004381415861276 6.888795572229523 0.04975264594309496 -0.766681622539215 0.3228156287461989
Ni 4.182157794840004 1.2063430013217193 12.468769728517877 -1.9949302556956352 1.5590598785135859 1.0768636216818035
P 5.102348652889704 8.363045561192195 2.981148913167094 1.1592805906271388 1.2869330343715062 -0.2141960332635666
Ni 2.8806178755622884 6.092354265349129 4.525285440758365 -0.7997251832577453 0.4681932576844711 -1.9736492348296717
P 3.9082641874068655 0.07397915941504915 7.104391190830097 0.3388652260098938 0.6552934631725101 -0.7612856483346244
Ni 5.062545223833276 6.993945648225872 9.04724395906496 0.8840362839020001 -0.028938280300905003 0.9909332402665708
P 0.5954068409857366 8.12608401406043 0.47645486844466634 -0.6344659849041976 -0.7176897660215447 0.03145744717833292
P 2.640278788901343 2.5406275681330217 13.339503100382784 -0.6395395427723631 0.8815939930090947 -1.0145279968673753
P 1.4107439630195786 8.228744650158568 10.44313319032963 0.7455916346381353 -0.20889159033151763 0.2934459173348301
Ni 7.241978530653562 7.22962796376484 3.9481504444081494 0.7864834877564906 1.206140488403471 -0.32843323204329244
Ni 4.08887512272071 2.755253179468266 7.565660015740425 1.8952555281111165 -0.3233545319688044 1.4288003361636747
Ni 8.52367655558546 0.6125006881832874 7.367292609670172 -0.4951512743305536 -2.284941950537936 -0.6068924461613032
Ni 0.3127003402197817 5.848582420529096 10.205137214197649 -0.7587294575716739 0.439934519949094 0.03522385619930063
Ni 1.7070839435090457 4.276489620927489 11.551538589031077 1.0943736055411089 -1.4722324392053807 0.11238369051075484
Ni 8.938985074204968 1.995803753071641 5.603223040099301 0.609981112388956 -0.068539696742611 -0.7927837189429057
Ni 2.772343345423823 8.210540908499928 5.566262450172476 -0.006658128746465952 -0.9030601333026705 -0.6615263314560994
Ni 0.6911375390308123 5.1353417842578635 0.5590361700883958 0.559410855640572 -0.6505981145793698 0.1837613709227932
Ni 7.27865290401538 7.42508350741811 6.79149022292166 0.0832410075085276 -0.06543020457935184 -0.7063265184899254
Ni 4.477126512686833 2.693150627035256 5.3352571525864505 -1.1953745081362188 -1.1760238715237488 -1.215618088876603
Ni 7.323932180537373 7.144710914076135 10.275205974304935 -0.7798209881346505 -0.027061889213798557 0.2685278139369117
Ni 1.804047857621997 5.755925559548725 6.348162851177922 0.338223735771153 0.034148363746934744 1.0941961994229799
Ni 9.311241467708648 2.473490917273684 0.5232857884669863 0.11322264147228243 1.4920787845073464 0.7580864246710364
Ni 2.739055714696171 7.85733494231343 0.3505048548736523 -0.10977016414730772 -0.2363311745997091 0.28665203434144826
Ni 8.485483669901258 2.3068134829058353 2.962627664386502 -1.787135497972722 0.9969722473717991 0.21402042691765075
Ni 0.9529907242131932 0.8407579386210472 3.8178307965906635 -0.4830745456716777 -1.2130238457868656 1.2177256221379094
Ni 4.137044174207725 4.772030808798773 5.943520731235037 -0.13644587366628114 0.7794566628166963 1.4397707191322495
Ni 8.75025700029511 9.080206720186673 9.646522546317527 0.5231642146037119 -0.4120696752180258 0.3792156048024824
Ni 6.103057476445688 5.891091562450862 0.3520564983739791 -1.4978434549052655 -0.45600365759681466 -0.8868300445970533
Ni 6.883802887775625 2.849290506196259 10.65731429169414 0.2844246876728263 1.1186949558952928 2.586522581164758
Ni 2.134540560707626 3.365925210691204 6.674318130884524 -0.6385103301769003 0.26763872646373904 -1.0441733305376342
Ni 4.009157827348046 1.253490508155494 3.4745025229836473 0.5166035306670587 -0.11028258500735201 -1.0569843662593732
Ni 1.6864229728196403 0.983011252671474 1.7280651822518993 1.3146171305503358 -0.4687959242654765 0.5152398175503127
Ni 5.041644972414283 6.733773870324094 4.278924762506294 -0.3777205083141946 -0.17658773599248942 0.5672717464458876
Ni 4.3937371784254955 1.9805081925879922 10.150571084436157 2.0890285176336407 1.1135396369465984 -0.13070999962376845
P 6.28827916735659 7.374760929364805 12.33226835508254 -1.101624116455935 0.04727718781940891 -1.7835210411485862
Ni 7.3109189900897915 4.901628933185503 9.132964439818782 1.5684683163116795 0.9521563766086892 0.2797591638763569
P 3.8151931867022078 5.533035559937719 8.114077643298115 0.20833237539393798 0.21798095422729558 -2.7047339341008843
Ni 6.097277926515646 1.2873763407071157 7.464718519653327 -1.940545253186852 -1.9449870910082891 0.7272570979950056
P 6.724276265980456 8.424697161480982 8.56560866282472 0.1935207643024022 0.30178991842415126 -0.3546705684732666
P 0.7077252154542352 2.1574931045380836 7.842232647034448 0.5026249569997795 0.6940713552716563 0.60567065793906
P 6.1577239200515095 2.5102849310002955 13.06814310775178 -0.09022875168027042 0.8986450349541104 -0.6635035097871284
Ni 2.793841798666786 8.25503792109827 3.0583031438016732 -0.25988659332214603 -0.15662389127605283 0.05951795285997492
