# total energy = -340892.06264903286 ev
CRYSTAL
PRIMVEC
9.03386536663591 0.00000000000000 0.00000000000000
0.00000000000000 9.03386536663591 0.00000000000000
0.00000000000000 0.00000000000000 13.22197512117648
PRIMCOORD
 96 1
Ni 6.1780164390903956 2.019421174366919 11.327001563671816 1.4307880560176647 -0.0326201000278664 0.5870435297561761
Ni 4.480390574052605 0.13152042869091402 5.673403704777056 0.9374584082768823 1.4505246152146436 0.8371313918203455
Ni 2.6508341428475934 1.3646737322892897 4.781687140044974 0.102482629346959 0.8990258153322968 -0.07778409815901442
Ni 3.1626658387758497 4.586746268073879 4.9590996035297445 0.2629508340697665 -1.0429620838383522 0.5371031932823073
Ni 5.143964102349448 4.367087837756434 2.6714205146759875 1.322019593661994 1.071110007027478 0.516384215567401
Ni 7.328650805164952 6.170292484415445 2.5384998368919534 -0.9787845207191788 -0.05903407124502091 0.09103916339670771
Ni 5.290538563871165 4.370827857914831 11.216848936141908 -1.0555993129863885 0.4170591580128172 0.5768053969679356
Ni 5.8002382676318325 8.026977612566512 12.312368594524763 -0.5793510462079249 -0.6946711936391843 -0.34373155296325963
Ni 2.1402491203054694 6.335792893357071 0.49005917761001355 -0.5825320150390677 0.8834457015058528 -0.528154982950084
Ni 2.7351743075789807 1.7035791821498283 0.4744838907619647 0.6929267001442517 -0.9114092765983143 0.36753842557487026
Ni 0.4836641044937594 9.13043713500061 4.961599274007591 -0.7296695640912401 0.19488267764693534 -1.089609351383246
Ni -0.35329007328618006 2.068989992263355 1.330223087665988 -0.6733696039479307 2.149143994868299 0.22056928377976204
Ni 6.671924946626722 0.6107751036211141 4.79147171935309 1.011732179289793 0.307807842483457 -0.9096475567122011
Ni 0.5574969807076791 7.38643140645265 2.3857733132256262 1.5555567504563337 -0.5732282211396387 0.2414034469162939
Ni 7.930757915206399 3.8401876548131866 3.440040729938665 -0.6560588805836249 -0.04593687174143056 0.6920203862798986
Ni 7.678631773658811 3.943498936290066 12.316956894617636 1.399266845480932 -1.3795081747967661 0.0966012308655175
Ni 7.9187428746009205 8.879765445736842 6.92812987827459 -0.006085286962131455 -0.18804817122360518 -0.17945837267206516
Ni 6.848609280583069 0.8489908996616983 0.4052880975125502 -0.5442418612096176 -0.4972266688023437 -1.2169815448830332
Ni 1.626457075646845 6.589012132583805 9.399025688950728 0.5245803782249482 0.33760667101244435 -0.34792476510900083
Ni -0.082303028147526 4.884963189447896 1.4334738422465838 1.0382201982779926 -0.7054202046255722 -1.1795218573746784
Ni 6.3624066599914615 1.9003096628005802 6.8720286725121245 -0.760215298088581 -0.5688432046980655 0.3084035670859269
Ni 3.499339923952514 4.420866436797345 0.9199663643391423 0.2277606593218787 -0.7812428081828416 -1.7283276838058943
Ni 6.184963481365292 5.62187363476374 4.892249905051189 -1.0329219259935307 -0.3111181378036126 -1.3501364065028685
Ni 5.188763039464159 2.736366777774411 9.28342654414184 -0.08348089143347558 -0.20592093773896794 -0.6365925443288971
P 0.4688187539471561 5.626643515545465 12.456435255090028 -1.628157761752512 -0.05860598256866681 -0.30523211133648076
P 4.132487394535634 5.965314084912964 12.53859735494173 0.17544102398255593 -0.057736949700152175 0.37287937817180944
P 2.323591412852974 8.419860406500533 1.3610303744876435 1.1578536283726253 -0.7579097898838559 1.5517587168664826
P 6.45362159607681 7.6184391303849 5.839326898606151 -1.1829313972768596 0.9793650758129971 -0.49215311093417824
P 4.794416759381199 0.9968237785942003 12.5660594015106 -1.0032441964234398 -0.48348129419179314 0.062168503108944555
P 4.179960355724948 6.1038484064806395 8.051574117120298 -0.5274417589331432 0.6875921753052158 -0.04521516308405761
P 4.509750635682534 1.0540804157051185 3.57227302720079 0.8508911646085991 -0.17846052753517008 0.2829007948291321
P 0.29745626993117386 5.629995079503835 3.7705763037683946 -1.2129094316961886 -1.0771667547445192 -1.8905103001166474
Ni 1.4553376026025073 1.0727534149017528 2.4979748213640476 0.327130711181785 -0.828488885653999 1.5880855763219748
Ni 1.7539971833672525 6.650686329736887 4.833530685177845 0.7520785279140596 0.30066686056330155 0.5669220764159527
Ni 6.080035138032489 5.640293685737101 9.172969475357492 0.6786727613283989 0.7535412285025151 0.3163220506020552
Ni 8.572053932124962 2.1622014125395386 10.132421960736096 0.8271462555831754 1.0489519828732 -0.2893673763900823
Ni 2.164342438572244 5.3660616762484565 7.216751931507947 1.0974100783745875 -0.3582189479461573 -0.34293939607926743
Ni 0.8037773081381209 0.15049425559594107 8.908701819092789 -0.25123765939789633 -0.48487303233299717 1.4455407888468075
Ni 1.3252951142447185 1.0347208427595997 11.593596343590633 0.2789508090424486 1.1145865901538738 -0.8116543305951635
Ni 4.214966583052939 6.646205532638904 1.7622640733357287 0.58958686500332 0.28114833091439967 -0.7254300720885958
Ni 5.684207304070356 8.06332988579692 7.966794906544228 -0.588077113227013 -0.6166430977901639 -0.4815905049269835
Ni 4.824626004332115 2.732753231727651 5.022062933235009 0.4492115743756457 0.07739663291260865 -0.06128378651114606
Ni 0.844455899373014 7.4661552661093005 7.072830716171063 -0.62173388204951 0.4823885753482467 -0.19180378161129547
Ni 5.268866321455719 4.398679264070236 7.303792318522776 -0.08567892752605888 -0.7869583705103801 -1.3018315487498935
Ni 8.290215408207887 7.5829992775312975 9.13313193696498 -0.6584916583948336 -1.8223845509830032 -0.16675326640057087
Ni 4.699985767314233 0.3112916343577076 10.160558837029196 0.04728670090110566 -0.4855777717095056 0.6226083142346631
Ni 8.19503460533622 7.3073128157588325 4.575556922740087 -0.5628635900758628 -0.14291656899228933 0.30952816760867335
Ni 7.17343093472636 5.918672239314404 6.976337292697909 0.730057286447962 0.8306774086648855 0.9831078306848813
Ni 2.161243822837147 5.250355931831189 2.607241226725988 -0.3835008624413976 -0.01826254575461371 1.5366226325559924
Ni 2.3340074593327604 5.304423614555842 11.396099791177969 0.19206731968532728 -0.20045502952839026 0.3750697009549089
Ni 1.2338904669919148 3.063085543592251 3.924150203982687 -0.7546398608833326 1.051243607120854 -0.600969652918965
Ni 3.4305380072221965 2.898000692446003 2.84744447309229 0.006923723703026785 -1.017278305919003 0.20832183387097672
Ni 1.0117838592277884 3.496178071161599 8.380391449804794 0.8355900154751544 -0.5888816114061793 -1.1316497162837478
Ni 3.523306768107652 2.7614267196086946 7.485673835080878 -1.437958862734491 0.9291822843110191 -1.0280707685488166
Ni 4.0462952874552816 7.027660487200046 5.987875259655912 -0.11037385916957765 -2.5094555636774265 0.0319662684939514
Ni 0.9707610777319411 7.676129393021429 11.583983407719739 -0.16495915061462557 -1.061164979999624 0.17995305292029654
P 0.07855397412401212 5.720406001593778 7.980136118548868 -0.09126490625426864 -1.4366357730476935 1.4227309900411431
P 8.654496985181801 1.62072960516273 7.864721264588366 -1.8836714228179428 0.9079786536502105 0.8595809790731131
P 1.8530444805089545 3.258469978340584 10.390052436299412 -0.11389318517674578 -0.12819648917329535 0.043846050650672874
P 4.053621752065088 6.077867010404432 3.874818976738826 0.36814983390662404 0.7317516434312494 -1.010624548047911
P 7.026287339702278 3.8152361193603057 10.102752037532658 0.17000519767896527 0.4699709184101842 -0.392291207039518
P 6.398704730031169 7.873176058951273 10.112907005310566 -0.06047260346376036 -1.4501160669223154 0.7043133447146387
P 2.2827493086594646 8.526640692182303 5.894514780605299 1.6536672188775263 -0.6316747953123056 -1.121512627849746
P 6.93693337983101 3.8613268991867344 1.2982946981833248 0.46798834076251655 -1.1621329724742695 1.9409190915865027
Ni 5.120313443473401 2.7080998138236283 0.5688173170856676 -0.11072095809635125 0.830404357509157 -0.4567886153919553
Ni 1.4046485854315762 1.1618453926846297 6.9017916445262655 1.2369477035923149 1.698678236370578 0.319752673550159
Ni 6.9054232583032595 0.7683374552845184 9.220238271195164 -0.04882113526776108 0.5694294162188387 -1.3501888570073586
Ni 2.657537270764334 1.3659655750010065 9.430414756685913 0.7206280227142621 1.3932067553297813 -0.3976252176579217
Ni 6.307932453336549 2.06483441430958 2.5147534190456677 0.4425153933023928 -0.6307276009076879 1.0982806539049987
Ni 4.191243653255957 6.720274192732375 10.352687466789398 0.146990739061663 1.0851505442809442 0.35538224982831057
Ni 8.174238647837113 7.16133458933483 0.2833787979195071 0.3675821343286121 0.12908994752184216 -0.46116926095815414
Ni 7.677963267640161 3.622688318258679 7.815165094103094 -0.0816824047721561 0.8164900614209099 0.7741041402555314
Ni 3.126991105429208 8.462852570591863 12.587134505441817 1.2641312059856422 -0.24304561050540724 -0.34265991716563565
Ni 0.10091821060741207 4.742905660484629 10.264880104626144 -0.09777313968643161 -0.015162309562735175 -0.04731755413904109
Ni 8.530326509149997 2.4478251259405956 5.577279766387183 0.3022848557826987 -0.755432274877641 0.8126259504798133
Ni 3.4484792633443617 2.633796273237118 11.687035417267763 0.9526117189785528 0.5345472596296729 -0.7760118988012055
Ni 1.2360947300804386 3.430953565017574 12.735326932205972 -0.7093923018994428 0.2439102724985477 -0.40463533042716765
Ni 3.0596617087129454 8.321653258814703 7.960554312521474 0.505135125016143 -0.5165472235078266 0.6516147287693423
Ni 5.557525413536054 7.734117773206817 3.6374577843383005 0.44543796626582643 0.19468855935825827 -0.16522963066719284
Ni 3.100630287018091 8.244847337590812 3.5673016912269597 -0.0789755473639543 -0.023136071796831123 -0.5220036186367074
Ni 3.52669446752649 4.589122174599625 9.461222043507567 -0.28119203966814155 -1.1543070486719476 -0.8141971516216752
Ni 7.423271508399372 6.032914497582733 11.377191911488294 -0.11411892803430668 1.8870652789908404 -1.004743663787102
Ni 0.6332847853328961 9.185995405469551 0.467017401242846 -1.188076946033541 -0.8110421509324612 -1.4031242715538093
Ni 4.563167880118768 0.14589872841097354 1.5359440708810794 -0.06067314951034067 0.04536223018488317 -0.30449600450140457
Ni 6.213203343720726 5.335653686264968 0.1082771971316396 -2.2160101605632287 2.8430546561923746 0.7266189501903745
Ni 8.01537812975641 8.972588409813 11.228749246660401 -0.05533888178162082 -0.03748848386376124 0.9273835405393835
Ni 9.112550082069147 4.899679355723328 5.835888609542659 0.08907664035369821 -0.5814421244089986 -0.1470365046979339
Ni 7.878569276426062 8.83686362029668 2.2814917946351922 -0.7290445289127315 0.46558204531386915 1.0633509319073493
P 8.5233794668751 1.5301741412309149 3.559805389952955 -1.0168484174704358 -0.1262841026419309 0.01841166973796829
P 1.6162759096600976 3.102012468380977 1.6708341312605974 0.3548795991602791 1.6552908705238782 -0.17116193699122778
P 4.5141952973200485 0.9723239363971651 7.8547523944318645 1.0238575017984173 0.1257223166011899 0.8388306338996392
P 8.404403463285515 1.8982770431492775 12.344088301723225 0.1402642189711068 -1.6348207755949842 0.17646689414390898
P 6.289295589600382 7.651864431317433 1.227424026341237 -0.30460424794449475 -0.044218089278110946 0.8928672519300688
P 1.7821015377459313 3.2321723969852854 5.995888298014603 0.19970298185371413 -0.13395396048236285 1.4928282610788612
P 6.7842610593553845 3.6685442175920686 5.510364120693273 -0.5951682157458396 0.4135413746675458 0.8460991425365945
P 2.6890473922920846 8.427756004612705 10.411578330099962 -1.6596445195068834 -0.23978930835163864 -0.7246643975671648
