# total energy = -340874.4647016385 ev
CRYSTAL
PRIMVEC
9.20549373346458 0.00000000000000 0.00000000000000

0.00000000000000 9.20549373346458 0.00000000000000

0.00000000000000 0.00000000000000 13.47317058449076

PRIMCOORD
 96 1
Ni 2.8644550605496644 3.2341016596741623 2.648892776457555 -0.12721201377283897 -1.027055697020741 0.03134971795587504
Ni 7.93869808689275 0.011444269755486885 13.382456073800567 -0.43879397858674757 0.015142769178709405 0.11628919621274811
Ni 5.107438036589455 8.449575370210201 12.413545643693473 -0.21255232701255652 0.026742558201166847 0.09680460512557522
Ni 3.174109457296019 0.3935053976704044 5.853674938728865 1.4474778579685201 -0.5197096803962082 -0.06762309846561257
Ni 3.347853945202276 2.826740152901474 5.256126091220729 0.4134025350968364 0.036696584090085194 0.1797630483966775
Ni 4.490043985784279 0.6654826292926982 3.2692915004031677 -0.3160667400581395 0.058099989466525746 1.4769727821038434
Ni 3.988740415904494 5.309655116479078 3.4188577591324734 0.24351303706012897 -0.1041816143159367 0.82722698822244
Ni 1.2907298867648669 8.006017862248184 5.86647425715553 0.6455631232586238 0.11588810411958753 0.35462068907193767
Ni 8.53910800183976 2.513946682806808 0.4701816368124189 -1.6170426256759571 0.2866088398083387 2.3365100524232147
Ni 3.113132267093038 6.607086602650312 13.10356091367019 0.3616187176563256 -0.2273834784881181 0.5879948379258518
Ni 5.707673047156352 8.501301039254669 9.894588410671162 -0.05427238819031944 -0.10383605805105987 0.020988686436525142
Ni 5.092092478608119 1.6783179930912986 9.75310733704984 -1.1666825395181648 -0.48726184428014796 0.19951272021977895
Ni 5.780884338473427 6.035913335662944 10.214805190877495 0.3490280254755086 -0.14525190199368532 0.08010143343828141
Ni 6.079887979020378 1.8268118118057122 12.951260623314935 1.6956808443051505 -0.32896930705242056 0.8663494081451981
Ni 7.33515830409112 2.4281606871091066 3.79888171129378 0.5135374901472253 -0.5962282815792377 -0.24999941611542104
Ni 5.707930800979674 1.4689482446044952 5.369395088330114 -0.12675667140297525 -0.08419822921547435 0.8518956946137134
Ni 7.774831093715931 0.9545728736848197 9.068009641802353 0.7486134521835945 -1.3482561587610198 1.3209425585477315
Ni 5.5025838532354285 3.427591931545606 11.383346877696676 -1.2476738317605673 0.48717365544171576 -1.0328391364717373
Ni 7.55711196245224 7.425970499343596 3.1992174413356667 -0.12623088080649228 -0.8233335667053047 0.03695292307526539
Ni 6.505660473173193 2.417924178125756 8.048831692851302 -0.9899119980909081 1.009928293311835 -1.595246612846788
Ni 0.014416723668008372 0.3036606998047541 3.4051286858431133 -0.3135745697639051 -2.0725603447752885 -0.6332485675573287
Ni 4.497748984002862 4.233965562314094 0.9925519790019146 2.3115004177527547 -0.7972019026152594 0.390281889918973
Ni 2.8558295129620745 4.038569753248807 12.916203341695066 -1.0231630468345538 0.8244571387867866 -0.20391830548664236
Ni 0.9103478408990169 4.416805077986134 0.7846136847839162 0.7024624075488288 -1.1504563074672898 1.5595617578506689
P 8.338317773472095 4.042629375966126 2.218007551109279 1.445960649993045 -2.6128671325965582 2.0720720922849605
P 2.313828455478519 1.096346682005487 3.9706507002541502 -0.7722583452960442 -0.07437250137430418 -0.5713523442731644
P 0.48156238866144435 8.863122968742612 1.05803617891555 0.8699934326556887 0.03993077475666671 0.9486154533349663
P 4.193608677976856 2.0282188082506103 1.3547273994475568 0.08464791515838326 -0.45897199619651924 0.06695846829842017
P 6.734729978156731 0.3932283123103335 11.439557463266942 0.8306195588437566 -0.5532911158960794 -0.3765077189530161
P 0.9005403079216232 0.32014405680618174 8.470151489706232 -0.40055704659273594 0.4876153709648248 0.1216751431150098
P 6.481891888465449 4.0303124254088205 -0.21791336718055107 0.02550945712501413 -1.1650162075593355 1.5715400132584676
P 2.8275686473335804 5.405143702526107 1.5468819541845724 -1.6676856446438053 0.8556219944253651 -0.023367213971030726
Ni 1.0034356341916766 7.159370196585669 2.4489908782309824 -0.6604791211385077 -0.1274485552636773 2.575748116257074
Ni 8.506189156404092 6.129698905377311 9.812051954246055 0.6512293204054656 0.9302300088492431 -0.038481186794333724
Ni 7.9290967569740145 8.406521276221776 5.626139989543461 0.14989068631727734 0.4321039681610816 -0.9258264804649088
Ni 5.332751700147448 8.100309734115505 5.071045037835158 -0.23072899792158327 -0.49746243896223363 -0.15847302866964966
Ni 4.608012387422443 6.941531393904007 8.364683227949806 0.8510698562783086 -0.9206467360361822 -0.1325323975444879
Ni 7.347889501864478 4.775653633012188 11.450699792829393 1.5153904626500936 0.18878350672773295 -0.025427181823852986
Ni 4.832258213712388 9.144507294366782 1.2007738024255667 0.3095124838793895 -0.29084190405307975 -2.3054202729969457
Ni 6.196852981846324 9.042206642989106 7.414393670478972 -0.7449342035597945 0.12492758861403647 -0.07555777993165698
Ni 7.979892671155785 4.804825842515998 4.268771533956224 0.06405055062300581 2.1123183413995172 -0.5449108622521841
Ni 4.773407492551812 6.875307072297691 1.606702934380081 -0.12986950600034408 -0.6155771184194947 0.02642476985043191
Ni 7.524588953245246 4.779409474437734 8.096634901034431 1.382043025403478 -0.37306012672404787 0.8551972481831208
Ni 6.672795416609985 1.0894517672316295 1.6363970953761184 1.0752885638851999 0.9909787487925256 1.717474028920842
Ni 2.713402114589413 8.534578898944249 1.4568402587539548 -0.6346176799907135 -0.5229729245285122 -1.3223687494712968
Ni 1.8125709130671837 1.5177373611618314 1.008278644422019 -0.20567076940137483 0.4992858653242176 -0.17363199579827515
Ni 3.5098246066789427 7.2031975520440605 10.80782677658886 0.23477308608396988 0.6913637265325061 -0.7705794149317245
Ni 2.8312048173411553 8.080112880959506 3.5983068914784635 0.5312827299457882 0.10592327959739177 2.2366838868624965
Ni 6.833615391375393 6.249103364031124 6.388223228520946 -0.37864327723878016 0.2047629128751248 -0.09638422975870496
Ni 2.137718155693915 6.489007735087868 7.8480681604153375 -0.10497042876581922 -0.6507971179640535 -0.39891642566551944
Ni 8.220993756392236 3.479455682995423 5.99743345148911 -0.07086860198610376 -1.3831455144390372 -0.06685768105449776
Ni 7.5676062252589125 7.238003523686191 12.077794592885157 -0.2887665095812898 -0.9868480144536036 0.35719539177764936
Ni 3.989191485095307 5.339149518262042 6.425597532902604 3.2140946671626 -0.41664880994827597 0.630089710213373
Ni 3.8932334188700857 1.925752457986514 12.611655232298592 -1.4147454007325055 -1.5940775322393514 0.6950000377335127
Ni 8.752703071930302 8.744906018774817 10.652481308920931 -0.17629822977652862 0.43327176321693767 0.5286185528500638
Ni 0.35132490503316466 3.376501441565754 10.288126027569483 0.9049830613569962 0.020401446474487446 -0.006579710100046732
P 0.6668119025815432 7.10009602271535 11.560424674868106 0.18817209839597915 0.7037284187454461 0.1783437994516477
P 6.95356297415692 7.257859773575658 8.455533165726411 -0.07519885393034145 -0.8451488628081831 0.6667215025037937
P 4.298799854373211 1.658829962949434 7.361161062117443 0.08154793607682084 -0.41208972982268377 0.14306157921058588
P 6.7631657481653376 0.21502744490871617 3.6278666522666265 -0.0470370467841448 0.48629922325656244 0.5657830777155031
P 5.584264198747362 4.284558955634683 7.6020881635231525 -1.478955102641195 1.2066313119969605 -0.9224850747965017
P 3.6883283348229634 0.37119680426190466 10.998768967806894 -0.5257826260631654 -0.39655255341903317 0.028948564713550146
P 7.49034451671821 3.0392950022050393 10.153030804920958 -1.8641374665500736 -0.4073427020560017 -1.5925487542996508
P 3.593290817966748 7.451156730079609 6.573115569285871 -0.016818357108919418 1.0300014099126262 -2.2234532471048354
Ni 5.252562644613306 2.8644642660433544 3.2524095455249604 -1.3936451284187805 0.8017273012894385 -0.8711398875553062
Ni 9.006977218637234 7.469724210852468 7.639112659144588 -0.8738048359819789 1.947690863092697 1.8683407059981436
Ni 1.422331624558014 7.715906728605835 9.575624498156047 -0.14553806577553646 0.5221337164566685 0.7865799041250389
Ni 8.43486499129348 1.8795132631813252 11.762320483027946 -1.1464932090544835 -0.9073186514687084 -1.2243868362081687
Ni 1.861065453826438 5.376919658872373 10.141053537080815 1.0459738740814826 0.33780901683123754 0.7579470708796946
Ni 1.7450486168505686 8.86134630846043 12.591095682691202 0.23877140861008556 -1.0943982881314571 0.2561710921437717
Ni 0.8577596170957914 1.0984731510478916 5.769993318888713 -1.0551771378473054 0.975433859079391 0.4074781991926014
Ni 5.549955323764495 5.904044638552786 12.75056429098291 -0.6490312843128822 0.48478432927393283 0.12031940041806377
Ni 2.8580480369413803 3.029371480007151 10.856276210429034 -0.5613651511534654 -0.26179383764718783 -1.0944759354469282
Ni 1.357782702803289 1.1953241501610492 10.922524466318944 1.0913052510284302 0.01851914185011004 -0.9339467955791981
Ni 0.16898156547101878 5.623479601867031 6.5360505694921995 0.11909786930613682 -1.872884616615084 -0.7499547967028374
Ni 2.402992867360474 2.073878056953325 8.516202892440143 0.33423312655452114 -0.20055555966199654 -0.031228618996978475
Ni 0.3953906827781294 5.089827927160363 12.031838006736255 0.12944810219220934 -0.8819919997784617 0.4417826289014263
Ni 5.764774724515816 4.033515937212963 5.32403133597485 0.2115249141893067 -0.1506987840408695 0.33483167937046854
Ni -0.07959346009239564 2.4025325926759704 7.792316008430838 1.429388861677293 0.09906100525991972 1.249648696098751
Ni 4.200540414725474 4.106092049465423 9.316603078353149 0.03907871116901657 0.4891834867828931 -1.8640526201457512
Ni 2.25019087759911 4.203992474859247 7.209466493246994 0.11701347597328235 -1.9211938452434334 -0.5385085582702661
Ni 0.7446563188728268 6.680988305994141 0.352687318099294 0.16089706473010998 1.2235118898023831 -2.484604823182334
Ni 7.991150989938732 5.373154611953137 0.7596750818281653 -0.9586329854719684 2.008662003459431 -2.6452807730405734
Ni 3.140601460264188 8.75540948707518 8.20485100265734 -0.16120945376420623 1.8928656877227013 0.862967893267475
Ni 0.3832633653908398 2.448725760012709 3.7026962693744143 1.7614974856896437 1.9765651229248864 -0.23858526074120845
Ni 2.2874363050691073 5.931338927343823 5.204510888100543 -1.1778287859429715 0.40816005575097447 -1.391852555294732
Ni 6.386154754088789 4.980107647868497 2.430613951177509 -1.0554291059571115 0.6008747792123135 0.5455778064122218
Ni 1.1480907620373335 4.720457492846568 3.305561145542018 -0.28947921937759824 1.4564535791045692 -0.5361521422229476
P 1.00826851837896 2.6952028535641577 12.738518902489462 2.0204057742589203 0.4783933381459245 -1.2909048745350609
P 7.689275235360482 1.2206116413276535 6.516999800300613 0.6581928962074923 0.45894371406174506 -0.14615204521045153
P 0.7644702234913193 4.563154016670763 8.549224839405138 -1.8940213985936993 0.28408170251111076 -0.2663614024132122
P 0.0985208756685351 6.722367000130976 4.652703218188962 -0.238634368811589 0.11437089614411271 -1.7134679930852428
P 5.891801331945001 6.0267630749350225 4.392765851763903 -0.13309624046775786 0.07145507061719307 -0.8652510328746971
P 3.9262811412174132 5.0464056134243345 11.224174686301788 -0.320780343483725 1.0659207495170546 0.6204611859846734
P 6.823894390038686 7.34236620565044 0.861045057793775 -0.44685850076243694 0.5723877275162141 -0.4859636942940147
P 1.3931594150542028 3.817601082712524 5.244364231932934 -1.049304224006296 -0.2820073364805853 0.33443033016699175
