# total energy = -340864.14521356707 ev
CRYSTAL
PRIMVEC
9.30804853725851 0.00000000000000 0.00000000000000
0.00000000000000 9.30804853725851 0.00000000000000
0.00000000000000 0.00000000000000 13.62326990624686
PRIMCOORD
 96 1
Ni 4.624582759960071 8.09591695994266 4.494466484515195 -0.056884629002185896 -0.7599329909614719 -0.615837828280049
Ni 3.6620561082776257 2.281095456326994 9.031246425492979 -1.4551711128477196 3.2237830980949576 -2.151407336981179
Ni 4.148736718190479 7.994533698588362 0.49608546184751934 -1.4074943755970468 -0.6657791931951825 -0.26022803582196474
Ni 8.271364361087276 7.817531853388828 12.193752616370748 -1.814714178921939 1.7857247336681246 -1.2580027244904013
Ni 8.09044382758163 6.349857424099174 9.87839609610757 -0.7037816405808848 -0.6659730543735434 0.07450876984185233
Ni 0.5980225520716828 2.579716259739459 6.272098919965162 1.0656821511436874 0.364350771875508 0.11036563163946154
Ni 0.09469077467474002 7.203954621914908 2.5337233318103505 -0.6480810045844709 0.1826470548126919 -1.6015653559759644
Ni 3.8773884961008283 7.313063563302631 9.039475670935811 -1.7556443693429766 -0.3582395167714475 2.578229745028347
Ni 4.389089139664099 0.8538291260266231 5.148969342460156 -1.1957198072907793 1.6761443169341197 0.5381578597990667
Ni 7.460456507072857 0.6701236244896523 13.233548168850147 -1.184774106912553 0.32032860065828705 1.584385501762568
Ni 5.165808532518553 0.5985484567968496 2.743331269970232 0.16838128892229712 -2.3263791346367997 0.4674584364009756
Ni 2.064487865895865 7.53028548491714 3.955461612265118 1.677246034638731 -0.6125355033796934 -0.706875191904544
Ni 4.92587497321542 0.7823879942283763 12.909900816153499 -0.13426300708234942 0.4841389823804501 0.2251227074783994
Ni 4.293737493564813 4.850982417132361 9.384266255193815 0.28483195041357395 -0.337170097695658 -0.20868847318177605
Ni 2.553309326902318 0.6222514016222921 12.554060647838053 -1.045093528359058 0.3377146573452184 -0.06178926539265488
Ni 6.623411653620056 8.934078779183425 6.434420111491541 -0.21068570611746296 -0.6078314130358048 -0.655507121845213
Ni 5.56248962406612 4.175488048812244 2.930746959532893 0.09499172028655253 -0.6524151131834507 1.8548820093900762
Ni 7.542776885645884 4.972871308744051 12.2015313522791 -0.8607451745845434 -1.1317934409504635 -0.35606050684225776
Ni 1.4068277179902566 7.727271709673016 12.556867024380317 0.19068175219171032 -0.9872676184895254 -2.171736278346518
Ni 8.736915701511121 4.501437281836921 5.581916451533303 0.7371021091098854 -0.893685634066306 3.3641748437828642
Ni 6.386633522667924 1.6763236384815323 4.601027813101534 1.4812212729675522 0.7227496970429552 -0.7289779373408541
Ni 4.193815595783104 0.28052968086672414 9.383871593948731 1.4719172219578072 -0.9572047376658741 0.2115385410360615
Ni 0.30411813669890014 6.5495057506497 6.802615783031528 1.0557708055672463 -0.4402499943069837 -0.9689677917390732
Ni 1.894411208581715 2.91635113213567 1.7085080768569232 0.42601225344104693 0.5449016062808035 -0.11447836825625446
P 2.101049879355256 4.004489894723021 9.053752355315652 -0.5970782882843588 -0.4572552706157286 0.027523659341565504
P 6.06788871897562 2.0777146024350186 1.6688641686275723 0.5331709481074366 0.5694093616141807 -0.661843348475886
P 7.319067254412944 5.567236728664971 2.1071243116321394 0.5187573437852678 0.049085187562425144 -0.31681981617408017
P 3.038351720326156 2.6726012730569892 13.528288446954257 0.35202438909967115 0.6890996130886777 -2.1565834818654794
P 2.5681649718822537 6.836500801819095 7.333665066456823 0.03804307081565061 -0.8685908958812074 0.22062250561520066
P 3.5160035234529583 8.371742353232404 2.4754707735535013 -0.3879912941125834 -0.06267912419677593 1.2532340994571645
P 6.130997285995648 6.412668133575744 5.421189728669243 -0.5274229898800659 0.8103392113281657 -0.6796076144378425
P 3.327599319167948 4.503038266133005 3.023385309572247 -0.4323379385487586 2.1756957772148984 -0.21578703189977033
Ni 6.983856513396389 8.082243437088321 3.9008866638651436 0.3151987356308894 1.5402278334087474 2.2157880172500932
Ni 3.905871123693938 2.493923979175508 3.156783602824094 0.22443570871370377 -1.1718324591502205 0.4132608673126496
Ni 0.4262443835405325 1.2285879023757282 0.27075809183167626 0.24100364037471395 1.284262943738511 0.14198454409632322
Ni 8.208376798694278 1.1480453610152128 9.144087894222151 -1.7569756865598904 1.5000911132888617 0.27909376237821615
Ni 5.520324165570438 6.51013270662393 3.055808033982404 -0.41978735557725766 -0.3508727919937312 -0.8485990261403127
Ni 4.708299345768054 3.9780457296929486 7.302617140770687 -0.1634026047607831 0.36705814350434207 -1.1062482454915077
Ni 1.1382998345152173 1.2631300693685485 9.619472256799384 1.6857815829135676 0.882076589072468 0.7862824274892781
Ni 2.7282540934423496 4.9120897537822845 10.97624129139234 -1.1621471135416566 0.056735505018831324 1.2168787007565818
Ni 8.994385623685307 8.600534178800585 10.155125300880744 0.6910438812992422 -1.5690082479755494 -1.4919070348161725
Ni 8.850911368221192 1.002672263711557 11.457183489569521 0.9955532555370856 2.2472832596448975 1.1496070720931169
Ni 8.317253038876174 3.805958533960461 10.312079471795949 1.0048297957430048 -0.709048802517095 -0.6508248858781952
Ni 6.568931647312058 0.5205079188013759 11.012588288937545 -0.7075429073955299 0.44724133802315236 -0.5984278603337178
Ni 0.030623478686709393 8.082922924609333 4.715013240958547 0.3701110713980529 -0.0410286358065358 1.1116532185571628
Ni 2.088530554481814 4.6361992041549085 6.8351753357507095 0.05667868363896691 0.45260003123190434 -0.05237902782234851
Ni 0.805742818049903 4.8411065779571025 2.6167985930950772 0.25955312124212715 0.8085517804104398 1.0863990719760643
Ni 6.106545043287446 7.407875342604401 11.13488394225702 -0.317121406574899 -0.5766920113185229 -0.4853538286241576
Ni 1.3914601303575038 3.087554063286018 11.29694637004252 -1.1282790000393021 -0.8090670294839615 0.24229921925768594
Ni 5.505077582564714 3.10040847789585 12.466272721732937 1.4321787657176044 -2.6045164466390176 1.5662995907951347
Ni 1.7363791656811216 0.5994457526465149 3.225377402667853 1.227600715159776 -1.3749601504147675 0.053996508821113454
Ni 2.798864947338209 8.661511202775246 6.0850918537199306 0.29103242279733105 -1.5233729666349378 0.8139366988714369
Ni 7.1739361663633465 5.874783950332924 7.318447338400622 0.06461773598038549 0.749979993513818 -0.28666643251915147
Ni 9.26106120556197 4.647415402275724 8.221343840687728 0.06664170838894974 -1.1044862684950785 -0.021337585135511636
Ni 5.9294687337020475 6.26721126383799 0.06528013467279604 0.1865535889559497 -0.6080332446339658 0.33866442285299736
Ni 5.290703923709516 4.917255720551623 11.578198355452129 -1.0079613993934513 3.3607264802229473 -1.4119099881662394
P 5.954972785860583 6.224543170737724 9.293848805462863 -0.18009883446954145 -0.05899010538096293 -0.9622605549222266
P 8.773803496658669 7.920562639280375 8.05294635527482 -1.9061423502269494 1.667100718674613 0.9624600725275425
P 2.6777113915369295 9.033395653829988 10.694320988119598 -1.4890533674174613 -1.0933935010160265 -0.6519083487503612
P 8.67917787832156 3.082453252854311 12.2447718903457 0.7107346748599501 -0.6276836718750416 1.8378551358147766
P 7.992914098195812 2.8691034793047465 7.230891182696509 -0.43841474087045784 0.943062384727221 1.090648848391354
P 3.1892817224249383 5.9158138269441745 13.181452884499453 -0.4328097359788546 0.5973806500161261 -1.530997315949415
P 5.474751961421462 2.4694438123226066 10.203624886199009 2.1050701444775357 -0.017585574292247132 -0.5571346580118856
P 5.941047945703953 8.249099509713838 13.055451697178405 1.5430385633846653 1.4784701925849764 -0.07877422998642562
Ni 1.0186634905759238 6.702185665816293 9.259137231992202 1.4524516570340276 -1.5487081029656167 0.7538191647542501
Ni 3.749533145571758 6.048369741830932 5.290120309085303 -0.11319770177161795 -1.0921871394127514 0.14909133034443356
Ni 4.175236731509951 4.765487994111866 0.9721074257287158 -0.2664902146815927 -1.2238268499396407 0.24571698668998326
Ni 7.856700120353471 3.7538427719036567 3.797881009703827 -0.6377333428015597 -1.87916222209368 -1.772153422741593
Ni 3.697836245685441 2.4154199003780286 11.297381986699826 -1.6749387266617928 -0.2749864250780619 1.587272850612692
Ni 3.206334066787872 0.9420768697144511 1.0942522886668142 0.6346037960336426 -0.41306314947954664 1.8561595905509194
Ni 8.621495903421396 0.8003683510001443 6.9911074829699285 0.44951265055583234 -1.7441775063539573 -1.0498210157417145
Ni 2.267505705906752 6.32319917395974 1.426424882740104 0.2430628368965878 -0.09186011663610631 0.8539870299251033
Ni 5.948950478653805 1.7278436854514219 7.900964543725703 0.4498291533549865 0.5324168435502314 0.24277153090841416
Ni 6.89703103947857 8.382604845520365 1.761038977864921 -0.10667661282364856 -1.7163489141774635 -3.396800086017053
Ni 8.032361606607447 6.071798099233499 4.179768820194619 -0.8465164325796711 0.3129328224148482 -0.48314293701576794
Ni 2.001565459840499 3.3328583664196167 4.300280120667819 -1.1494011267298978 0.11645477525633491 1.0906596470246315
Ni 4.958676535188662 7.143387152062501 7.245385675405004 1.434113263736156 -0.1652946795771734 -2.911657087852121
Ni 1.5217728056200968 8.750133130002043 8.344947274783944 0.7490592814717615 0.131271014333561 -0.9591793448937416
Ni 6.694478601879334 4.036416500162357 8.705718847053257 -0.5054693684271102 -0.6948023199004099 0.3947576663021395
Ni 6.3860098834363095 8.506550815791558 8.962708473938617 0.6686963668419774 -0.36686762476009077 -0.7250477490485125
Ni 0.9362779556652657 4.583050248744237 13.474298974788141 0.6064923825094071 -0.5090020641707169 -0.6774879969916783
Ni 6.382416976818355 3.975560480814726 0.8482405738675044 1.4285337127658493 0.1979985975680977 -1.2174435721211163
Ni 3.5674118738440517 6.988240604114152 11.333960754646037 0.33196232824247346 1.4104264616421773 0.802515858629005
Ni 1.5610248450188364 8.495874484468256 0.9578428418115784 1.4355939620467404 0.7492531426501224 2.4794057954798974
Ni 8.679140646128628 3.3802456399740355 1.5628482916676896 -0.3876971599109323 -0.5677887952916222 -1.2826372352096298
Ni 3.069738458967975 2.3591620568575205 6.567205935169652 0.5355461332078325 0.37447320502149056 0.3365160090514269
Ni 7.857938090768465 0.9636250013739444 2.5054008026468493 0.453045089189123 1.3811246273542666 0.6049355795452485
Ni 8.472790524850312 6.22082925949274 0.1295708238184197 0.5410899458441971 0.19488293475725146 4.009147384645341
P 1.8916187941118023 1.0450052670754337 5.384025484489174 -0.9109840161354376 0.9713704876432949 -0.925611279130309
P 5.024428587906872 3.1627724010572336 5.369380201399307 -0.5493971801583118 -0.3508936179293376 -0.6710155018934573
P 8.15123469059163 0.43337341768221965 4.783552123317732 -1.1378411898064404 0.935722399422382 0.5566860005102413
P 0.9476896227989757 5.802032245343464 4.792488780426276 0.6524572792752957 -0.3260796442094513 -0.9578025191508732
P 4.625010930178791 0.17705303946481543 7.209910841979232 0.024967725688931193 -0.7468676731370815 0.08781782824593264
P 0.43634361587338344 2.146212529381977 3.1092390232545366 -2.204088983645611 2.324012434176836 -0.5981455532066086
P 8.90224525422642 8.521117911276267 0.4417497302871345 -1.1428188455266899 0.01580817067685019 1.6123714454525329
P 0.07249480285822718 6.125021519030035 11.71731923675765 1.502359340497748 -1.2296375430841466 -1.2275068698943892
