# total energy = -381166.9889914833 ev
CRYSTAL
PRIMVEC
9.23911734589782 0.00000000000000 0.00000000000000

0.00000000000000 9.23911734589782 0.00000000000000

0.00000000000000 0.00000000000000 13.52238214001160

PRIMCOORD
 96 1
Ni 8.026769376491995 6.933938890834961 10.406568219376082 0.7006837183818514 -0.24915043785156446 -0.16838308869451
Ni 5.369396043505453 8.912486574550863 0.48834739197628524 0.9192226019951458 2.2330504038749672 0.8587142601974437
Ni 3.2511436704122114 2.857806738935356 6.087303158027475 -0.5028733255651597 -0.1168206432361859 -0.04566819146107619
Ni 0.376050543418856 9.052218981279445 6.4537865957092615 -0.6415198064271854 -0.001213046471494685 0.469322743303224
Ni 4.442703361193658 4.218257489952091 12.59896543095369 -0.4702393415802224 0.6092565755181056 -0.4399085518071649
Ni 4.689803547517114 7.164233123188615 2.0273431566659363 -0.07707421657618338 0.777738394574009 -0.0037126729648968323
Ni 3.244140419665037 1.3232078700644128 1.1415566652289628 -0.7276635894048049 -0.3212446847146532 0.1531439031472524
Ni 0.8698628731483783 5.037896522649756 0.7437812619065371 1.4966255233377646 -0.039622242377312406 1.9478795820647357
Ni 7.669178589000386 2.3041156914057845 5.013084873729523 -0.5734153974497802 -0.6272872077675713 2.7224706892590147
Ni 2.143179510976984 8.55035938057263 12.0420323772405 0.12070172345814695 -0.726614322204684 -0.1978600151077044
Ni 7.195036339535685 1.3729789937781705 0.8212558781867891 -0.9710056481047082 0.8567118850554343 2.7525605666658595
Ni 5.480496426400931 1.2732334857748788 9.474104784535678 -0.7272552982227926 0.43503194044115395 -0.7143450179190277
Ni 7.348220900733774 0.16029221396827573 9.956611206693541 1.4388235247276315 -2.3239514990319137 0.8034710234534227
Ni 8.19746206455802 6.191326377239133 1.195196207264412 0.44263057872401834 -0.3599647269926704 0.3337507876014639
Ni 0.5396799264766824 0.34805139910577937 4.012118005294233 0.23127484312272428 1.214378045821915 0.7167261165566946
Ni 0.6818468405560311 2.213590822249037 6.0764176302829895 0.6205961689006408 0.472922030618708 -0.9481763089150186
Ni 3.72145168628842 5.1104513090845325 4.44338705585763 0.830332623730957 -1.5115021833392808 -1.1251473963888556
Ni 4.609524859202868 4.905878778683562 9.97249971633723 -0.21247185148360825 0.17394747015616494 -2.1005118356828922
Ni 6.23111925450573 4.173244511534896 5.037411469003019 0.2155713163445384 1.3057681648001382 0.522430678871797
Ni 8.309430924459084 6.601820349134858 5.2109442616596535 0.9103011311358 -1.2828228688578744 -0.0022234900138800415
Ni 4.989409636210217 0.7734268168833953 2.543843986210546 1.6032573989664067 -1.7990229934389275 0.1020131459097082
Ni 8.16064418299141 2.86598335755178 12.761517532959905 -1.5257782336423207 0.20598212999420654 -0.6746636401690059
Ni 4.4195778511406525 0.24335095261210585 11.9716617180836 0.42362215594231556 0.18719456497405826 -1.0747406618015296
Ni 5.795836731482473 2.7141015118620704 11.315488536071433 -1.3174561426610276 0.9131591694098853 0.08286999732235405
P 8.45669321160844 4.312145397726215 5.7829814239763815 0.06917218812028733 -0.6868866645977589 -0.057121170493024204
Ni 1.4608337580985946 4.391657239322763 5.3369325578189795 -0.9334932529815471 1.1047081546978974 0.012744701260178052
P 4.046132738738556 7.856935926314474 4.59990878614527 0.8033833488356228 0.5078301553498028 -0.922395857516805
Ni 0.2061764411261811 0.7534851065764016 1.4789562862523977 0.1969588434496737 -1.3774587484669052 2.6230785259119216
P 8.645808699133392 7.989803669052093 3.516914264532356 -1.3721910723100625 -1.8115530075851383 -0.6331002149049225
P 6.113847141400341 3.2356866275361917 8.381591200594514 -0.994830261328132 -0.9403519277745934 -0.6478236371580263
P 8.683596687993475 4.185606450188879 10.920892312936477 0.013921495177098604 -0.8285644760869408 -2.2061276113421946
Ni 3.987270323817384 8.683347231832297 9.415702477645127 1.4746243364763247 -2.073825070420325 -0.5228022032786029
Ni 0.37392369866687775 0.8008087881754808 9.11098900502981 -0.4455176704638263 0.3471737458755892 -0.6997385808597626
Ni 8.671243988456574 0.35603399626350857 13.019713898897288 0.26103999020029883 0.1684720488638905 -3.180833076895993
Ni 5.016572640427489 7.036206677801285 13.033777682917538 -0.9489638378133206 -1.8576310328901233 -0.977437519772981
Ni 4.660552502839602 4.69879320843664 6.989894679522543 2.697922824716321 -0.7146885173013755 0.19050768850769126
Ni 2.8403448076528233 8.807714986855668 2.9729224421141085 0.9506900764758079 0.16718572595229914 0.6942734439801334
Ni 0.24713437105665456 5.431113345604563 8.325351771012555 0.2817183444852568 0.11625602898196753 -0.39010037003578624
Ni 0.18250212751858252 7.413846349358022 12.935469781532005 1.0779432278992276 -0.36773640051828926 1.64178178029385
Ni 3.0039418538008675 3.894343284219653 0.9315894143645687 -2.0668797494507434 -1.3241394682184742 -0.15398825342541866
Ni 4.277119904873262 0.864132772734925 7.410778962487228 -0.7788406264992522 1.4788717988987692 -0.38860527354749846
Ni 2.3934764318103636 4.64846773769804 9.947172524683893 -1.3022547523302412 -1.3234542692259916 0.5691483946433101
Ni 1.6877834300690329 7.2182080451740935 4.376789652116492 -1.2069069342558505 -0.06926526205472587 0.29338703907243663
Ni 0.9980279052919184 6.324776184352837 11.094965593942332 1.1444278418850227 -0.6370208901155674 -1.3439518749587112
Ni 2.605218517065961 0.8745951489171154 10.119149450024137 -1.1187000981016153 1.6160054426606945 1.0514505809253376
Ni 5.00611395989213 2.611399486392953 0.9167929683598195 1.683240818769585 0.929401856520993 -0.2815201124315216
Ni 0.06258300736957163 5.252364147444162 3.1715394376448565 0.6890065391542392 0.7399038402247387 0.03159782941093913
Ni 7.463303343091036 8.177385463141647 1.6709876391280192 0.06466710116108217 0.7465452568006562 -0.7846616040564035
Ni 8.806033467546978 2.463342635174655 3.2662228333996297 2.3038367305599095 1.3131053218914999 -2.4365012828068875
Ni 6.365456016859182 5.123321399177955 0.35212862147349455 -0.5701716937015019 -0.7679278362414904 0.495465720247179
Ni 0.8615892438026069 7.85241799806201 8.613094833374031 -2.203704346612682 -1.2337312535375462 1.4442943180342158
Ni 8.246106015987932 2.690338502730497 7.508951972763383 -1.171531382970034 0.5882568333379868 0.35525549444245913
Ni 0.587571813776225 1.9515509836060807 11.306117299616472 -0.8840334556885227 -0.7941402329708 0.4348936150910768
Ni 3.4529537048060512 6.852994986090905 11.113924262191938 1.5583551391370773 0.495567793042682 -0.9565318799685655
Ni 7.278539479711098 8.618839716374815 5.70038741292171 1.4495964469734195 0.8941764576597955 -0.592471642750283
Ni 1.5316885469905217 4.151911390195548 12.149265265725994 0.6874031992228613 -0.8239673436345617 0.11784857028006801
P 7.713489394519447 -0.021634316556178892 7.791744716193019 0.30566997020484776 -0.012665254172494318 -0.05635472464064488
Ni 6.206247551324472 2.7287547515520685 3.15727331696054 -0.27823758502550794 0.3484580119046515 -0.4955942754052432
P 2.0520448600929093 1.673213342432761 7.657211160645749 0.16217284611874005 -0.7131342854403783 0.3340572630982892
Ni 7.069439781940581 5.2776978064794555 3.1969072814133486 -1.5939484628606548 0.19613763309995896 -0.14173771819283976
P 4.398346360089193 5.170561004811599 1.54705504651915 1.6310502528089585 0.02795843288613895 -0.605266480522106
P 1.881509237017256 1.5295543109448786 2.70592304542223 -0.7385776652141474 1.6058058764198733 0.7238120768691986
P 1.0318523129243795 6.961554611789189 6.616933696855475 0.5024308387111024 -1.1979145009492531 0.056282733752128875
Ni 2.8001361701175953 6.1317710285369085 13.037793927112519 -1.2423853296681184 -0.5934599748054811 1.8140171528549145
Ni 5.890639311847589 7.63240690301918 10.615205037380855 -1.7324635603511387 -0.6112872327948892 0.2197017935731442
Ni 7.4684310530708276 6.879575925932093 7.6085302527475145 1.3596759705621875 1.7904491357269874 -0.692195478405182
Ni 7.321353548263084 0.6772614667488771 3.198489942169273 0.08845983270530572 -0.9095341710627883 1.2443046581780182
Ni 2.3410444423773624 1.4653794037023016 12.653879971146276 1.2878956553950915 0.8110966583194805 -1.1834011378244265
Ni 7.196634706790648 7.695242138285056 12.804857307273785 -0.5789766935876416 -0.5393392817016776 -0.6229903801644303
Ni 2.5771593184918604 4.732377399025002 7.3888055703341875 -2.413043823114896 -0.11195045962807816 1.5372039589807591
Ni 0.8086749724579931 2.514545822035922 0.38721324467576385 0.8000239454450867 1.7598098135745759 0.6756121201252041
Ni 2.5716805220630023 5.994551661654278 2.4533523778752886 -0.3588596668539497 -0.04651228462892635 -0.46005674462026575
Ni 5.831010050208717 6.440246669627488 5.726837157300353 -0.5675954483338934 0.051649348745175565 -0.31898519925651514
Ni 5.562863155175417 8.328315679772045 7.202953338962142 -0.2645883696731895 0.09786209985581211 1.0833296890221216
Ni 6.959771462192613 5.184715332179239 8.90713897358455 0.13033076190747878 -1.820759870895387 1.288326315174607
Ni 5.372990060049847 0.37204076660583 5.090379327226701 -1.3854613070564077 -0.7550478949550288 -1.5845341115252904
Ni 1.8009626143076694 3.8123461201283964 3.158530760795224 1.0221040094424205 -1.7234053068036126 -0.7634746855661432
Ni 3.783788009231937 2.203215293767405 3.7213325016780785 -0.9246663987185365 0.9064743011905422 1.1018385464595863
Ni 2.715903139692808 6.563450295898689 9.015034306764731 0.8972131876035904 1.0666720258607822 -1.679373622504695
Ni 3.261583872713408 6.545785104040381 6.026059822634606 -0.4043293691509746 0.7174789355623192 2.198239723953685
Ni 3.0233717170215906 8.265425009803685 0.6711072908614194 0.32844583044878267 -0.3703753808030331 -0.705657774557675
Ni 2.620749472878627 8.53478222917456 7.443516849950999 0.3308145877912754 0.23142499554734336 -0.6294343360175612
Ni 3.6201355283814083 2.6966672979307797 8.860405671566928 -0.12497078314714605 1.2325344050159677 0.060213693375418875
Ni 2.4082959756078144 0.6824067310511217 5.37574146911648 1.6866976669699338 -0.386506996257573 -0.32363606776496523
Ni 8.632883174337486 5.134750187006787 12.679598901363835 -1.8652091023476975 1.9709765730935154 -0.47327787129623006
Ni 7.5747178559672586 2.3586541995331864 9.829027315014377 1.0162737759138885 2.0609991223002506 0.13980836238061084
Ni 6.2730740851692115 5.053944869018941 11.281790704342978 3.0019650295097593 1.1775094549303398 1.9618995504929118
Ni 5.5153278977951885 2.3188336049153473 6.026222431095226 0.1406930789784093 1.122052559513616 1.4545275657264498
P 6.511415588500159 1.169496679192723 12.40395908237808 -0.06840882759170154 -1.76469285269849 -0.014337499668594662
Ni 0.6792478769212287 3.143655782295289 9.389212081151328 0.05932409168161397 0.9184214462500894 -1.1777004878952233
P 0.3932750293924144 8.474617098745009 10.913603573471509 -1.3516381878593753 0.8029112942952108 -1.0039769608244062
Ni 6.241965977958478 7.505267412871598 3.589921767704087 0.3916887975688287 0.8030100246566041 1.4395632311071338
P 7.716621455209807 3.7104756151965423 1.8489690666590128 -0.07761311979878892 0.1981073552318201 -1.4699444145021523
P 5.352950415101797 6.4623004420991315 8.187031101373904 -0.9884261575740009 -0.3522964118141352 0.6573256631111905
P 3.2814572135540043 2.9595386571109987 11.189987141382261 -0.030537506467224824 -0.4769203531448238 -0.40663616290728033
Ni 1.0719038854692358 7.781387665945549 1.8162588965464848 -1.769771552772978 -1.1190387123879566 0.06847361939136595
