# total energy = -340859.1966117066 ev
CRYSTAL
PRIMVEC
9.31484764625205 0.00000000000000 0.00000000000000
0.00000000000000 9.31484764625205 0.00000000000000
0.00000000000000 0.00000000000000 13.63322108952134
PRIMCOORD
 96 1
Ni 6.011681568023359 8.07634548997574 9.591489290785349 -0.932185332803401 -0.3999075859341952 1.63529591545919
Ni 6.6980740602559345 1.126873007006949 8.903448070522089 1.5686832605359629 0.7369388440591438 0.7172128263851261
Ni 4.319667440396463 7.032886943504328 2.342828559332895 -3.73348013145017 4.178262466409868 -0.8870539876824014
Ni 5.893187391309502 9.073611707045059 11.807473843987966 -0.6580427437828732 0.52686351783217 0.8986681748825619
Ni 5.756370909305486 6.693090616773353 7.13695055826825 -1.639684017224557 1.060605250841412 0.6498062148056939
Ni 7.135499305007342 7.04800494120943 4.7327725494681125 0.1182406635121641 1.060748975508128 -1.4554801594477063
Ni 7.940628159992179 6.631184139417777 13.469485778880198 0.19968986922759155 -1.0313419831009205 -0.40437359212534874
Ni 0.030269528861673237 5.456069536529918 8.68051768513907 -0.02010731227283634 1.6992477357208027 -0.00018769053077387032
Ni 2.692223836547608 6.162265394825983 8.064186819363005 -0.9737320458969358 1.6490914265813859 -1.523371423973041
Ni 1.563031432480542 6.531478010375633 10.320185163534079 -1.7019247683323335 -0.8099304059255212 -1.064568092143902
Ni 8.485360449452621 4.9851015254593065 11.417699633777664 -1.8341630316751703 0.2547672698177096 -1.4416381113582915
Ni 6.010424063593175 3.87411964851083 13.31532132464822 -1.1234075308796136 -1.8051589311333365 0.7108393187586146
Ni 4.423760862672804 8.93104796405272 7.932353780841568 -2.3110306772051876 0.10771739538333708 1.1548552078659338
Ni 3.5478857399305794 8.55584590147634 11.111484264241179 0.7927456666161186 1.7248543805453134 -0.570301534411147
Ni 7.593510363023243 3.3910330206722965 9.506908611326411 -0.7691010306139852 1.421820819522048 0.19258154031758445
Ni 4.149224358444562 4.887127958076527 11.837057800063999 0.7136788450899387 -1.2282707446436074 0.7444621490193823
Ni 5.6010551399063155 5.238251139526789 5.328448672107216 -0.012066958466863089 -0.9855660624173865 -0.865051258159065
Ni -0.08676314825887967 1.1656693473900328 8.224771998067027 0.1378466106685497 0.06476788840500458 -1.4013288702162834
Ni 1.2995143929997641 8.511674894010174 11.831141008848792 -1.2636095291542173 -0.5353324745351297 0.9055276210065566
Ni 8.314321217252337 4.523345898695745 5.073562770441315 -0.3556481018951875 0.7229911236298 -1.5444547270059015
Ni 5.552701765853834 0.37102435341387785 3.715447739510214 -0.9428217294713247 2.528863021669761 -1.9957069859606598
Ni 2.739701614922777 6.567191136192858 12.226491086851007 -0.5680253367824604 0.6413064048647987 1.3337237694728
Ni 8.458263557694064 6.631519473932492 2.4568292535495595 -0.11748090252800412 -0.040595662034175244 -0.49609641185264236
Ni 7.983662756047365 1.5014137154015266 5.740772265462624 -0.20729647793025588 1.2624579320482774 0.5934568894816876
P 8.899107351526046 3.143612037897874 3.382129889306594 0.6758707731032295 -0.3276495597997325 -0.047895538129698156
P 6.711319773587206 3.2857007236610336 6.026455847850875 -0.9383361828961454 -0.9817214918603155 -0.8776298661550239
P 6.293483653403775 8.013134933951825 2.647408241625377 1.4187966879837435 -0.5193646383519636 -0.2816059872771086
P 2.2654175180955316 4.263731780372353 11.237236570229106 -0.5435818590281155 -0.3193186713365339 -0.7037880683387879
P 1.4277984745737928 5.70367681625696 1.386853198842239 -0.7239370324828371 2.4583518030230755 -3.4668521056391324
P 3.6285243758720815 5.268878358537492 3.4762126448339075 -0.02363435158948833 -0.14751498699624918 1.8507872704954127
P 6.094164543795797 4.549893214444074 11.326480262412119 3.0625255647016356 -1.923491125918042 -2.845398730944519
P 7.452269328394505 4.559599285675568 0.9908417666582239 0.6557642321613416 1.6838799950154808 1.02700196096467
Ni 0.5836217783198353 3.3879125467159144 9.355157634115624 2.022805127729032 -0.8552666679684755 0.7724241814499471
Ni 3.175031018957212 3.5987448079957987 0.16330138827321886 -0.34044825422629754 0.3608730977395527 0.05160049778511113
Ni 3.8760105625799217 6.450261853881009 10.092727762202397 1.9204312560457957 -0.13888173680128338 -1.25955952745456
Ni 6.123869592891032 6.587814208847876 11.68362921879487 -0.11467711453062186 1.217689112473019 0.6453594918882498
Ni 1.7279508097872642 1.8109461021794075 0.6267588376989616 -0.24692000585914894 -1.28142187474529 0.541791342786596
Ni 7.120521030016706 5.972503318887404 9.569880707250972 0.12430203921489559 -0.4228389979193879 -0.5460292921273435
Ni 8.249052079901972 8.396813507872405 8.92718323377062 -0.46741498475754983 -0.5138017995522054 0.6154092253830626
Ni 1.0117508051355129 0.9229616775168922 6.039530167985737 -0.802003951989593 1.9648532338045968 -0.7161257639685344
Ni 4.655980014113448 5.340341869562467 0.6179097324495187 -0.5636392918996228 2.3546062478032934 -0.35646956935521834
Ni 5.857567413968588 5.790239695291774 2.6702435905927553 5.959252513606485 -1.0027798551925118 1.1975918275025117
Ni 1.1918533840807528 3.442926036824556 5.302709885133257 -2.807200622608243 -0.08284480051137345 -0.09549591361648069
Ni 8.181510119729646 8.930246887156454 11.394809327209263 -0.547455997271541 1.0008664402198828 -0.7096234440736423
Ni 2.622744388068035 -0.07163397273662164 4.783584111810414 1.1783008404833835 -0.8705603609027524 -0.3547834399020471
Ni 4.861549386481821 3.956937958797984 2.532070866773665 -0.24275044786249161 -3.0696765739241196 -0.34004356258871116
Ni 3.517379613939079 2.1521582857502937 10.694334648328153 -1.3671720218289165 0.6807442991454469 3.2305145032815203
Ni 0.15523845616383175 3.7093027345280487 0.750487958781435 -0.46718127148018895 0.8468571037485416 1.2878619739436787
Ni 6.434137852631761 4.453121262405693 7.6517812553484434 -0.8318020091876319 0.9684142332284483 1.3418890788924114
Ni 0.9888828542014262 5.299654615110291 12.546189698333354 -0.17591770650865832 2.7954810201784692 3.3024945931642478
Ni 8.0714645098171 8.696872694609567 0.8643284376188467 -2.601074253726688 0.22836152613067123 1.0394535564644616
Ni 2.0498998884572583 6.65166748935833 3.3451154792753193 -0.43886339837210225 1.4672897504881246 0.17424160435781605
Ni 8.553312262920711 3.754479745538362 7.297849647337437 1.2857726955148179 -1.5063520065969087 -0.8203487730453679
Ni 7.729870417493343 0.4911775044908133 3.6141944142765627 0.9394582123157305 -0.7829978432007355 -0.2210235977083613
Ni 7.563870517861425 2.841680566786883 11.92706437826799 0.23770054414341 -1.0447356307990072 -0.7188591037392974
Ni 8.379310909173771 1.721886843979488 1.7390941620082205 0.22898296176475405 1.1158690564107234 0.335304505241829
P 2.4605635759648243 1.102142086546664 12.220478352705202 -1.165129336098432 0.18279129370004002 1.1007977638998976
P 0.589493858266413 0.1435147889354646 1.7823662866779963 0.7437013595939579 0.9789429006739142 0.9481475125596123
P 5.002836995348715 0.8157384664365375 10.058985658143891 -0.5153501178759319 -0.6534186147473006 0.06794551480203781
P 2.3986198392187243 8.219365660502 9.179711547501116 0.026461022405006043 -0.43733436332208553 -0.5215716733056115
P 4.4947400016209675 5.03581155596243 8.231043684976974 2.190877627161659 1.071166571297026 -0.6406880545545095
P 8.676724679183732 8.869104227306618 5.9492106109013445 -0.5766454743513036 -1.0791763289753802 -1.0908581361886827
P 8.656651182538942 1.7171455865353131 10.138467390009623 0.1335317853432797 -1.3648644567416623 2.1233812840818977
P 9.036557243168971 7.075614149587691 11.440739909392924 -0.36746026403876714 -1.5404844295042437 0.07802295364269789
Ni 5.579137303430591 1.3781689663958647 6.870066201368869 -0.2401754880464638 0.8797723664193235 -1.6345562090796881
Ni 5.252540115792732 3.1183315414273602 9.619546543334662 1.4626034007560489 1.4007447155780393 -0.0934508581619939
Ni 4.4558598276092045 1.6299213533186991 13.244537797500307 -1.1928152320494747 -0.13541126175417972 0.0658040429790028
Ni 3.1168597955016635 9.21260786339473 2.565131123985583 -0.42001309843481854 0.8338524639587575 -1.1431145223902377
Ni 2.302639649228978 8.707892159357032 7.020127465219395 2.316982266802932 -0.9127269669684732 1.0406267508369562
Ni 0.7874734927850539 7.815501811765057 0.5474131026086413 0.5435844301312767 -2.914886907643328 -0.4732727290899076
Ni 1.486081476200913 0.643121299047563 10.141589726935532 -0.30308961107218124 1.5830485281186994 -0.9657104611440401
Ni 2.827922536835907 8.702256676540282 13.61688858521684 1.323984944918481 1.1415906295465437 1.083712783393153
Ni 4.8416621867896525 8.501838414911846 5.199547016135252 0.16728934140969898 -1.8936426750980422 2.781603747975745
Ni 6.681214186043838 2.691292351784509 3.9623182147896454 2.722999308068975 0.048632159185406566 -1.6796430741159978
Ni 1.3825469447824312 4.4172497841787415 2.8260306912820523 0.002396782366950711 -2.8523980450804873 2.89835934230195
Ni 3.4882520853969656 2.0410228386649223 8.526216302646917 -0.6010267314091455 -2.0161320865842307 -2.97220219642503
Ni 0.4842053410390154 8.629815106514052 3.841841838499915 0.18022584696570898 0.012675281474823332 0.027422872097643092
Ni 5.844405534265995 1.8901968258238917 1.7565855828896983 -0.22692196547066723 -0.31246359608791346 -0.25832490526198093
Ni 3.3701211877407182 4.177839570366972 5.668352119585948 -1.354353015687377 2.5010719675994215 0.7410279265268529
Ni 2.246098524108853 2.159666052940874 4.03565121573416 1.8570977860944726 -1.4435312146159462 -2.2681477617987325
Ni 5.508241998111107 8.70506976052484 0.6220036079833399 -0.15120580558427507 0.12044307048012161 0.5939824229678544
Ni 8.727332246362913 1.121945452610154 13.096617085635383 0.9252793497121871 0.6797618806275196 -0.30796750798977285
Ni 3.025592918413199 4.139527602060699 9.228259601869086 -2.3582114486560486 -0.42387181005927643 1.2311683779063765
Ni 7.9611860287137795 6.303376021587889 6.722677367303675 1.2474208352094969 -0.24836033785010128 0.9482500995757475
Ni 0.779451546005243 3.2055464597963432 12.331643607302993 -0.19717661588743463 -4.189193768610392 -1.8666656322885657
Ni 4.7211373732922395 2.852020047657285 4.787401336369594 -0.7191334404466067 -2.2929236831918316 0.19988167352342348
Ni 0.4323076674629407 7.844126338535097 7.391455482666043 -0.8377458854758928 -2.0162215609742433 0.4689123952386828
Ni 1.223943034169522 5.57340867213753 6.246509808285442 -0.6939237739501984 1.9603257782478885 -0.5038937964098741
P 6.539880002938789 1.3369041913905682 13.41682056185933 1.8995307584477032 -0.23137074527064025 -0.3192909034223921
P 6.394400712637948 8.697534048791368 7.6220613024969985 2.7539561614618053 -0.23086578060976368 -1.8171405289752447
P 4.413477270888189 7.448878723856823 12.871110213397635 2.64052320375093 -0.20223628979852912 0.8789596407100412
P 3.248674204327838 1.2901063968924618 6.4517988037401235 1.003774100784981 0.6480624926417097 -0.8756354614328145
P 1.5462367622018627 3.745854196632063 7.312273688894028 0.38913826323283307 -0.004799221160856251 2.2202920757680342
P 0.0685880175612871 6.567964268546231 4.4570269780173675 -0.2660212454649741 -0.8559729500068806 0.7255977080147117
P 3.5327770570731096 7.042946978945801 5.958426721147448 -0.9376507267933464 -0.5941346322750025 0.4586338961308101
P 3.6601203390364083 2.277759691206597 2.009018885174358 -1.2403384744414188 -1.3545790156552542 -0.18940571369276413
