# total energy = -340894.949602164 ev
CRYSTAL
PRIMVEC
9.02953728251165 0.00000000000000 0.00000000000000

0.00000000000000 9.02953728251165 0.00000000000000

0.00000000000000 0.00000000000000 13.21564053257672

PRIMCOORD
 96 1
Ni 6.345949557556933 2.0153204168620715 11.396097352225299 -0.19478240462364518 -0.36508379338679064 0.711742033078542
Ni 4.724452395925511 0.2807346252756981 6.059793598280536 -0.1599871513213309 0.20242320899835461 0.4846879129053846
Ni 2.7616116479709385 1.4755979031649114 4.860183492802769 -0.10699362984343509 0.0703896054671562 0.09148036469918439
Ni 3.4250749363942443 3.9984144162549655 4.695477514721577 -1.6515105775458399 1.5672730104519976 -0.4712137896783498
Ni 4.772679152917072 4.509413972829835 2.544552414499918 0.6350563101900288 0.9319529050776209 0.42802902676075966
Ni 7.472059232045877 6.183183124018295 2.2116640866015738 0.17069631020871892 -0.74280995812794 1.722342669867053
Ni 4.778683795006454 4.490551270085898 11.385102085048999 0.9976795578514689 0.7050070283475535 0.26060110289066735
Ni 5.586574527369098 8.006869677627815 12.377464451934422 0.46125924956879916 -0.31739959993695016 0.3193253562047533
Ni 1.9380817575649723 6.51058510524971 0.23897753152780993 -0.3343020321192436 0.5240489312015103 0.49604241868625537
Ni 2.726522867280206 1.6586356472158228 0.47584215140311564 0.8447737388569516 -0.2458509411646863 -1.0209701529482933
Ni 0.658813076880401 8.846255434964538 4.638425288289171 0.8803580637194643 0.8540991300229355 -0.004964800204443062
Ni 8.546258098456844 2.4949513619805326 1.3521451706683165 0.22190291498952108 -0.14745276629974605 1.4643959738800971
Ni 6.978920099610551 0.6715627830912385 4.853602766254286 -0.6938106454111018 -0.16690187616329322 -0.4796801752781481
Ni 0.8357667189165375 7.517306241835189 2.327155476345976 -0.1495171050279425 -0.5945917744170792 0.8544225748006252
Ni 7.870361137616878 3.920525630295557 3.7177845336081945 -0.7284583173919583 0.04987245935041088 -0.2690685169317302
Ni 7.549641013748084 3.7911052768111846 12.682877704720632 0.16699674986994464 0.2522262485634108 0.5033528363047396
Ni 8.256536375028421 8.77188816842597 6.735733900897989 -1.0750062567580905 0.7157658095259544 0.7310677299903473
Ni 6.672042255926754 0.8997111909231155 0.5153888144991532 0.5849084856910443 -1.0692670402814681 -2.2365712725440323
Ni 1.5939570738530542 6.535046120919085 9.303705322500193 1.5526087235716035 0.3349836315673005 -1.0469472937383453
Ni 0.35548293827467475 4.899255202253842 1.3691405651655109 -1.1892812507542871 -0.43153652569338585 -0.7533224276234897
Ni 6.571064943918399 1.9782180494255763 6.9513213198418375 -0.054401714679332115 0.18534105670508727 0.36727231639767716
Ni 3.450222196873835 4.458035907433472 0.4298176984801271 -0.38181884675328437 -0.8750461645882478 -0.024676162590441374
Ni 6.106061848701891 5.720509649341728 4.701067701063736 -0.4331689190904862 -0.8921769107312636 -0.6854746147415808
Ni 5.404403618867931 2.9513673675323764 9.380289340366495 -1.6051031939258935 0.2014179076622918 -1.139535803900044
P 0.1415858486528296 5.442011640375111 12.4513666973187 0.28113984627396743 0.6365452360307295 -0.3116809522856181
P 4.034731213974504 6.227418825666236 12.621504844844965 -0.3015762597514484 0.05713274045724999 -0.6324785221605236
P 2.443762916860676 8.532506113641613 1.2210706060098468 0.00352523954443909 -0.027670212221758795 1.063952055826458
P 6.441879358395417 7.712046265807662 5.727327852712693 0.021693940033665864 0.1248604828215269 1.1393193170138636
P 4.6802437828885 1.099066211244285 12.540915324375883 -0.08284505762168959 0.007233284523645607 0.107919226981498
P 3.93613769972795 6.319465925604818 8.2136388507604 0.4295452062949699 -0.6378649832834176 0.8521435489584614
P 4.901584822793783 0.9042720100499526 3.9065298479819606 -1.0188407653101164 0.7623755389646935 -0.866204912147534
P 0.36149660990103294 5.580651151112505 3.4399384572112837 -0.02912057151504017 1.0789737260462706 1.2564073549788233
Ni 1.5269398504133689 1.1020640175204879 2.4360390509309657 -0.5767891990180196 -0.18054106421328261 1.395441558197571
Ni 2.1210021176351894 6.416650832083036 4.914077187200791 -0.851135162298605 -0.35397945594351293 -1.2583436527695875
Ni 5.864052198657367 5.658837911792138 9.255851485385763 0.023081821520127988 -0.03840276814791451 -0.2312470752085824
Ni 8.595189159332572 2.2097895547252495 10.315903776215624 0.5441814402853272 0.8595354705471584 -0.21258575135365324
Ni 2.637428425932944 5.248400308524702 6.857714818867412 -1.1301409929487052 -0.9463032602620218 0.8964639681423915
Ni 0.49514007782932096 8.898951812759472 9.075973176322933 0.38919019951669104 0.8788593676867509 0.7559770916375175
Ni 1.404102029384875 1.1354281566487063 11.645740572829768 -0.33860888702471365 -0.7686323185076828 -1.025126341208512
Ni 4.03437906203242 6.844379998660496 1.7243110814607985 0.30707276408964534 0.6447164589876122 -0.3079006593075794
Ni 5.75756686909334 7.856654300486531 7.973960627163212 -0.3733079810687958 0.39434397580348857 0.3261603768487157
Ni 5.013939351392545 2.6504219296421474 5.1895972548725515 1.9918295052831243 -0.7117487179467614 -0.16370188116875678
Ni 0.9185477080098209 7.267179038048778 6.783204885644615 -0.18055597661161807 -0.6218374975069096 0.921344276323839
Ni 5.136145104832683 4.5182448599928655 6.958285801711822 0.26656503378358604 0.14201976820963286 0.22761513488294996
Ni 8.095386228608579 7.158878771552472 8.932081183926302 -0.6900398655147599 -0.14129985932447278 0.26555639001341363
Ni 4.503264858148829 0.20212437931186647 10.284424101454405 0.3304044968370503 1.4182109906836027 -0.08382439081582338
Ni 8.070347322572706 7.239232621106469 4.39511177310524 0.4026344979470549 -0.4715747725621943 0.10108446344785171
Ni 7.077974120242908 5.948397103554983 6.942083200561166 1.123282061045343 -0.11464934661647998 0.1929692626743064
Ni 2.341611765045375 5.30764310062761 2.5087647476472035 0.5170516739480708 0.239646097905555 1.4748318245014407
Ni 2.227704156086653 5.246585371592423 11.402943547160891 0.07833020047047154 -0.47463438532412444 0.009996706201395686
Ni 1.0377466256367798 3.0745121928180716 3.8522271155589043 0.9965886387801353 0.2663308062855929 -0.7750960718551554
Ni 3.75967345859594 2.484025622238951 2.5300545899304274 -0.3975303439512702 -0.4196698561627869 1.0851168628295311
Ni 1.1380196337609658 3.2731800653753287 8.177917099527614 -0.7587605679199255 1.221949944631902 -0.13583472244484346
Ni 3.5984149577323796 2.8358615305288115 7.2065809124456965 -0.8744951771807843 -1.141013673997151 0.18617949344598259
Ni 4.311865762857666 6.884218315800874 6.0908904206739525 0.3374557472568769 0.12058628092620523 -0.2763074578823306
Ni 0.6696313651319623 7.435805641085174 11.402520061876691 0.2965204424950958 -0.45735271542554135 0.16546540082708278
P 0.08417785846355004 5.512586501383543 8.021338607678981 0.1561829470838923 -0.5269846167910667 -1.1467914570211928
P 8.504686110216973 1.6707261972273748 8.089213637131435 0.1997351206432302 -0.4403353549319384 -0.7596668817842788
P 1.6702656908415727 3.287230024910784 10.329106765182683 -0.03877943476104289 -0.16985838768845585 0.9333721540226505
P 4.037069864051421 6.08249475719319 3.9385386536100047 0.10436827640544606 -0.08013460066906199 -0.6882367508677502
P 6.885644982643164 3.9821973678451466 10.49969368069668 0.13691355733131905 0.4059226817800235 0.0933888945758069
P 6.531714221774752 7.872320547140782 10.246469345727325 -1.6959901480154531 -0.8852184771355592 -0.3148390382986256
P 2.5531196391832345 8.452639859084348 5.8538280539388605 -0.6954132140115314 0.6201158868301127 -0.12144991447808118
P 6.748179311712718 4.003741843071109 1.875814973528631 0.2553642799717602 0.22038082191803982 -1.6142218683977103
Ni 5.271786809293873 2.8917272758025026 0.5081480287976868 -0.2744521498411467 0.33974685728389875 -0.1692264105314118
Ni 1.442956126994814 1.112475073654408 7.198942827117264 -0.12609769766273765 -0.058021570820106526 -1.8389897636398522
Ni 6.7882885149623915 0.8998195453668336 9.189085283074025 0.06255725390693097 -1.1403840108329522 0.3043841615138887
Ni 2.5203153313475597 1.5610353820366851 9.295353000796917 0.8394605541741543 -0.6304522357591142 0.14322278737879848
Ni 6.434520285759557 1.8708117070899446 2.5261168088549697 -0.4241345768023599 1.0579336175465202 1.9833903733768357
Ni 4.1896329208065985 6.966865667746906 10.559071915854235 -0.3765797098415321 -1.3549135161765375 -0.8786143415554803
Ni 8.088189687638298 7.227124012020963 0.15070477804541088 -0.4672681747670404 -0.42733971400321885 -0.04081189181003939
Ni 7.6048295437485365 3.8032680631185487 8.401327709307912 0.1528705948812077 0.17519702629254988 -0.5942642158743313
Ni 3.112463336730359 8.42308618456022 12.378362890863587 0.3847403912754535 0.02185514820187849 -0.20848329914950547
Ni 0.11437443602040755 4.886956972891831 10.184514080716676 -0.8561639829717642 -0.7136983854739645 0.3509671514797504
Ni 8.741269008538612 2.2788474535216277 5.6960070978022594 -0.3552704068407946 0.19925998077902457 0.5006976580700797
Ni 3.4407411830484955 2.598592387396958 11.37035323935156 0.48514479793714516 -0.14739800180241067 0.5723663873599756
Ni 1.1249268051450207 3.2230300170077713 12.81163799905202 -0.18143452256182946 1.2781925691747147 -0.614386183435187
Ni 2.9868624773870525 8.466753025378638 8.005862884254933 1.2255512888299152 -0.6445992166834577 0.6132029617603634
Ni 5.749521551647266 7.931157010079747 3.49088491074017 -0.9108364348139798 -0.4935620754665629 0.7271339421535798
Ni 3.1417822432930995 8.224481518761797 3.741533118810124 0.6572837541296616 0.6961457213021818 -0.9242401098143954
Ni 3.3025621786969044 4.362711085572415 9.256630734426837 0.3764472980287259 0.34677985287128016 -0.31352391903162774
Ni 7.148142652087397 5.890915071162496 11.492452444255376 0.0014164207315523994 0.9916251241272729 -0.5897701846587197
Ni 0.36601047543559223 9.057167359661948 0.5198665618858065 0.45387735528243117 1.0469616919160485 -0.8874576508787233
Ni 4.561956848496169 0.3725397336233094 1.6647215551379932 -0.531987983542929 -1.0261928347998133 -0.12868577010488808
Ni 5.9531195513937005 5.6234872745290865 0.44335839213010725 -0.6497679053685906 -0.23761724040098434 -0.38584365164196127
Ni 7.9049713528478565 8.883095945828716 11.46881040758977 0.25082062646513575 0.8878926815336128 0.28701301722529277
Ni 0.11752845328630382 4.992105930983334 5.626083266409834 -0.21800820792080516 -0.019535756040082484 0.5029630570654886
Ni 7.743658674762436 8.771463780188075 2.3307365907108615 1.1028752152542167 -0.22955426088719175 0.6216914588473487
P 8.478346950856483 1.4574485338421184 3.5087787441665275 0.9927962616172386 0.49059579374938733 -0.04700465088431259
P 1.8590010727246644 3.3411724788084776 1.7551297941153379 0.47818687856207315 -1.376236960244662 -0.7436566223989515
P 4.767676789432083 1.1370625028414554 8.242105369032556 -0.434443929148168 -0.033189599378091225 -0.6263302431709407
P 8.411040782233549 1.7377163320561309 12.527554318511735 -0.0178982204366595 -0.6990505536538025 -0.099779371483183
P 6.102188177338967 7.684144996550234 1.3655585478469279 0.4527319288240784 0.276668183655859 -1.1387181930947552
P 1.6491546333904832 3.370717123795631 5.980302069507797 1.606891139064252 -0.8152140229219637 -0.0032640154632524432
P 6.934350305094479 3.868939885548734 5.742737660516812 -0.2991151998054655 0.1883173657245918 0.7902879491042454
P 2.341756237636999 8.420548884669818 10.268684715550643 -0.3170188195587637 0.813071008437032 0.008225730343901963
