# total energy = -340890.7870963662 ev
CRYSTAL
PRIMVEC
9.09824698756124 0.00000000000000 0.00000000000000
0.00000000000000 9.09824698756124 0.00000000000000
0.00000000000000 0.00000000000000 13.31620413119416
PRIMCOORD
 96 1
Ni 6.414809982424502 1.6764429798336862 11.60841413906972 0.6357613066768535 1.2315823255153435 0.40727328227064696
Ni 4.446104016369186 0.46283873936673947 6.002612085485605 0.980804379362685 -0.22225926988767528 -1.521028634772477
Ni 2.0953171703718554 1.3575221300990168 4.731141174876803 1.5467545787836716 1.3577067626509585 0.2312984972718081
Ni 3.4564240097623866 4.371953303867045 4.734003483361856 -1.1858758246171641 -0.09205012115972534 0.6710437840282315
Ni 5.110330631943582 4.333813452724839 2.447171854353795 0.2844910221343875 0.9227172454119658 0.8736724241691728
Ni 7.420320938694335 5.941773927895505 2.714374629223781 -0.21774287007456047 -0.04447057160854922 -1.2761305444393634
Ni 5.161135242816214 4.790172420626054 11.533856734929685 -0.6733487780123242 -0.9375229429662305 -1.3089805010898488
Ni 5.589307841719682 7.576037434948832 12.393191616678733 0.7193175314329546 1.4454572279940654 0.4807027030053915
Ni 1.9780225709144805 6.530093869309733 0.3633175652925466 0.11278992481023803 1.2138805373602062 -0.5237056889294787
Ni 2.76425667785743 1.6498488040491759 0.3418220470891652 -0.08361484590817858 -0.5359174005043222 0.26656323401137316
Ni 0.21069174352111475 0.09229807583426035 4.942881946269267 -0.3291336005444267 -1.3007138902056825 0.7482483555346919
Ni 8.652678485739123 2.2670920724627055 1.4508401194144416 0.19465153547273575 1.0136826181479444 -0.13158623158113467
Ni 6.896389290823377 0.9770516398641035 4.862798266942262 -0.30046014386913417 -1.154271567448322 0.8679342361338149
Ni 0.9742493798088079 7.529299740455151 2.625169957346665 -0.553576508346982 -0.36375324750082516 -0.41535503083751696
Ni 7.805831857730007 3.9675908171866565 4.041401255253512 -0.0352164000001329 -0.8559693504624548 0.3429867043774351
Ni 7.575864568257109 3.860777398195842 12.608753651782964 1.4015828952086185 -0.5014286226988333 -0.08915737299296259
Ni 7.814693550242533 8.686778715243177 7.155848547728876 0.16818742774393616 0.2720368555314347 -0.05415026079015836
Ni 6.757868481271832 0.5711806638422606 0.49626842807184585 -0.032710602859143664 -0.41677299423096614 0.9060698666632718
Ni 1.8819086903166131 6.7999387750889975 9.129828767531123 0.794142289853329 -0.7842332582697332 -0.23839011401126686
Ni 0.24043664221844607 5.035088129809507 1.0689512124827083 -0.543260985353587 -1.975992538250868 0.9431089216944404
Ni 6.4615385786712505 1.7634040240171787 7.233295555094762 -0.8999897219074628 0.21978278332272475 -1.0888071671969248
Ni 3.493863295890768 4.356932098181028 0.3553611483498322 0.20215221472515507 -0.6488873025358503 0.20311637841063726
Ni 5.879469132899841 5.464752841209951 4.659113083384079 0.4950857111999409 -0.011032089444445517 0.6350971907302934
Ni 5.264937142072279 2.935976990466683 9.770338982825846 -0.03766846108505126 -0.3073990370808125 -0.691591526272596
P 0.2835459558353351 5.7602911963273815 12.300949949975456 1.758516548684449 -0.8023227687815925 -0.478654305116795
P 4.038165918644216 6.2315985839391494 12.78407505052821 -1.2553470320351088 0.21426673860050194 -0.3969821847572841
P 2.4015823586230307 8.52602179018792 1.2545145078001831 0.2517336251977084 0.30637856623609816 -0.002297280674608947
P 6.499696626307321 7.719998996166179 5.805185585992481 -1.9957625217889436 1.26384709908632 -1.2775742188644257
P 4.727258043085894 1.1051094654429547 12.871402754063094 0.42757085617741847 0.1357434482826178 -1.4479851366222416
P 4.071410912936587 6.262450739288201 8.200664840573003 -0.329592028238084 0.7477225649382091 0.13667984405395817
P 4.687116577618477 0.9137096447181027 3.705979824881556 1.0140502859000085 0.3901327659356184 1.4897455083884794
P 0.39923380488438126 5.646017214851689 3.503360046039202 -0.4090344879361278 -0.7905363176696256 0.26871884690179526
Ni 1.4914301284556442 1.1098405538479994 2.4106860645039685 0.16697489549307373 0.08555834278779459 0.54915755334368
Ni 2.0763018342823494 6.461556775165116 4.681537532599297 -0.25089955933218727 0.438139118611568 0.41661255739370184
Ni 6.065100665069311 5.843285404848182 9.048347597475242 0.0464930013552167 -0.35246739017436074 1.0483197486058398
Ni 8.544846063091839 2.375934400519529 10.333441313216493 0.9646349686916742 0.6058249241287372 0.9536339895954802
Ni 2.4503125691949896 5.400446431889076 6.961471780607619 -0.4983420133537095 -0.5216238666997856 0.392039496040028
Ni 0.6062680531385193 8.998339083209228 9.01853264227653 0.2781293415824178 0.434028181766988 0.8568646085832146
Ni 1.3510350800359456 1.098622415379884 11.605724697276392 -0.3088730505231777 0.2866551196652418 -0.8358008459343799
Ni 4.252939135739375 6.866865479526513 1.590394489817551 0.35718767846816546 0.6519715978881288 -0.5294299930077657
Ni 5.460258307225159 8.179051045159497 7.975407713537204 0.7849588235818482 -0.9050913048000865 0.28976126939439123
Ni 5.258522877984671 3.03919660191905 4.77925179483264 1.032665072787718 -1.7423335111666831 0.23100462018047313
Ni 0.8263018766102105 7.703349204279196 6.806377604443324 -0.3438125427128401 -1.7857589293401699 0.8144630036885522
Ni 4.92056849566663 4.592503907764518 7.000994565283607 -0.11827151675009953 -0.01957483680813403 0.06901406527586824
Ni 8.333047972743698 7.108005416232863 9.163505928552802 -0.7072590576065239 0.4387315007799283 -0.022529291450767652
Ni 4.612547345757427 0.4261291326423665 10.657623679152389 -0.14505726948437597 -0.5810132644016962 -0.6165819055349253
Ni 8.255157880752185 7.028350264336391 4.758066526849667 0.2964273685606572 -0.17350395486084313 0.15837095587414662
Ni 7.023045986374582 6.0131587733300815 6.832011915176427 1.3255836568641686 -1.1740860310710874 1.1190158295698212
Ni 2.3417340902992163 5.242591847605376 2.317179741477035 0.7223046390857367 0.3486295044855093 1.474578313729738
Ni 2.4466914669157442 5.473532649500082 11.49404098670246 -1.146084146541523 -0.831985843063664 -0.5674265268561969
Ni 1.1449506887615901 3.565093471127488 3.6022861947639915 -0.17651445955239278 -0.7401946319922801 0.6844826831419566
Ni 3.5393272358138606 2.5656692420556833 2.977543241403773 -0.22540167217139892 0.43887959632201834 -0.5100641868866441
Ni 1.1362254699530556 3.333543086688286 8.229800156725839 -0.8543127886956383 1.9892144362577804 0.2745058858972175
Ni 3.769276328792893 2.524790818586711 7.018505051330431 -0.09889491199570065 0.28169520455680513 0.1647030687397615
Ni 4.15165745088369 6.8840156749948 6.016966389671449 0.7488769902576264 0.8585566515736568 -0.4252738326131256
Ni 0.9530777591962334 7.783068043904196 11.394449756126885 -0.4044592098606195 -1.0627336100383247 0.17409222326414536
P 0.22246396522743628 5.589098582040228 8.10273676953674 0.4453132677625041 -0.2715285484364485 -1.3572928150419914
P 8.530798369827629 1.4601594537476859 8.108583303015743 1.4025966811851134 1.1640021644725242 -0.7814999184989703
P 1.7825285390698784 3.3199866987584468 10.307474006645652 -0.30992051795108566 0.13492223793290312 2.0794876680227414
P 4.1235165731206065 6.064190840376034 3.5949357210669994 -1.2896666312525853 0.17670549251727632 0.17249222576687714
P 6.931190085341254 4.060583999086581 10.580123901954293 0.6629237260242583 0.12416191409260552 -1.6188843068703864
P 6.422143169452321 7.85417994193079 10.191063756790143 -0.4191497219932588 -0.19910674303061193 0.43603724177721676
P 2.3695656276665846 8.613838069583094 5.791217047476587 0.4944313654453936 -0.48850728665147475 -1.33699524113522
P 7.125710604764048 3.9201707541730175 1.4430238154744919 0.6679281212173852 0.9324285591624586 1.8690837548117551
Ni 5.4917746346003025 2.861826277964542 0.7187287540005091 -1.4455767842910654 -1.0698601937807768 -1.52781583289764
Ni 1.5785276463431288 1.3301000138436234 7.332101606960039 -1.071164000193865 -0.9541636368467052 -2.3447182992656197
Ni 7.072995362035533 0.745072727994368 9.394195618832162 -1.7344782767883222 -1.383532722575127 0.943406398330201
Ni 2.8014503113186264 1.7482190498863721 9.31835991099807 0.6374762324854312 -0.8798916656060072 0.444951256437395
Ni 6.5639848391343305 1.8726557731859779 2.7649099319872033 -0.22160440991249578 0.7740457762137701 -0.5835414301401886
Ni 4.191598754918585 6.821110395701572 10.573518574681096 -0.06790900513714755 1.0119142133936123 -1.5638773545068874
Ni 8.26784993522341 6.925367207304276 0.3169938410343071 -1.1335765009928156 1.4386672016554254 1.058883383054299
Ni 7.657393959021733 3.5092302349602305 8.355198564726239 -0.2751697447334616 1.5872419973747567 -0.0627004643530146
Ni 3.1472837754804535 8.672257913138463 12.367091475702672 0.20453974112072515 -1.067600965432955 0.8459852426665496
Ni 0.2465888767943906 4.929621251364743 10.18892020981278 -0.2802587292205947 -0.5816424133452628 0.22772132144351107
Ni 8.740913284493207 2.506721700178214 6.005660908032779 -0.4356842293131722 -0.867736518300712 0.0394458647004482
Ni 3.4565968764541095 2.99069384752041 11.738633708119801 0.3511715541810726 -0.5857368951296106 -1.229887968532056
Ni 1.1018886860287513 3.2190052560515428 12.714032196516218 -0.7026444416526479 0.9221721715417731 -0.34245731423652637
Ni 3.124647337111702 8.770773730926583 7.792469262459836 -0.03908873847134558 -1.125857792192319 1.6287583714509883
Ni 5.531734135129063 7.7418893782864435 3.606933579297254 1.2099768314304258 1.010278220452086 0.5939438564204352
Ni 3.0871807562425215 8.361106966284385 3.4339959212483957 0.6753922908049143 0.42800177306725 0.5397791974525736
Ni 3.353340872014011 4.397755932168403 9.188460600240024 0.36763587038468304 0.18177236551722242 0.21387927335409618
Ni 7.542028187914108 6.292593231376494 11.342183056972155 -0.8543117602543738 -1.5200433880410724 -0.19579439082792732
Ni 0.35087753226135915 9.11353198762513 0.5667161540723464 0.25262836909783587 -0.44041891578468023 -0.8949123073845555
Ni 4.538587696440875 0.4383307916039152 1.5976512515711347 -0.22332499214802828 -1.055184594046473 0.23901052120408517
Ni 5.97424557119859 5.4612136231531005 0.20804961261183597 1.0697136409005834 0.5074267492637972 2.296796278773361
Ni 7.7671916030064985 8.58601563046266 11.938350236365906 0.5055303035720325 1.038798696489282 -1.200901608602035
Ni 0.27039807919277753 4.779627552430965 6.061403137515831 -0.34605068801473954 1.147102046283076 -0.5385545810168532
Ni 8.152220314954734 8.90065120589199 2.719062046043548 -0.8708614370829388 0.2664035685050573 -0.056808781458927975
P 8.894846524348877 1.7450983511884295 3.7431716386933664 -1.5332200346323466 0.6887779680832009 -0.223510368685957
P 1.8956925344197717 3.2192418104717953 1.524199284433431 -0.4717295529725037 0.37755775748408527 -0.316913404329151
P 4.835063170992381 1.0954744219411428 8.550094841747358 -0.14487703515276984 0.7335259617228528 -0.9250808605481358
P 8.410346678684581 1.5493404701827764 12.634468027089074 0.6984558574925971 0.37233301875003616 -0.9388087516571896
P 6.593253899517078 7.686963261553261 1.5719641710058225 -0.8587854797550113 0.3359336541853956 -0.4492791943887875
P 1.8759220438348452 3.192492964489428 6.030655612006506 0.41172514739441346 0.525565882066669 -0.1696876664385465
P 6.767367051069652 3.8120653841177483 6.194324885904945 0.9664668796940904 0.04882576325345139 -0.6356913726708665
P 2.5159291260741856 8.645026860068658 10.112990790035282 0.15383655833890278 0.6053258730051316 0.9725557662006477
