# total energy = -381178.1912835152 ev
CRYSTAL
PRIMVEC
9.13825531241880 0.00000000000000 0.00000000000000
0.00000000000000 9.13825531241880 0.00000000000000
0.00000000000000 0.00000000000000 13.37476035873604
PRIMCOORD
 96 1
Ni 1.7098772398421924 2.2559336898121045 7.352306728899129 1.0951444222688622 -0.1775480430232297 0.7448226176825946
Ni 8.665670498865671 0.8793697456678046 0.3225913806656826 0.614193864918723 0.26619968002436734 1.3524627406431997
Ni 5.878036558278747 1.9359485395795477 12.169494186529109 -0.3343423984388758 -2.2778847865808385 0.13829835349398764
Ni 1.8112844597453992 8.908245487811389 10.561968148370422 -0.20623589787622548 0.5196063220491245 -0.9204693299180534
Ni 1.190742090208844 8.99219863994717 8.254099925607619 -0.1965559515843002 0.7712335035759555 -0.48101612048075226
Ni 1.032019732589776 4.415230329027074 9.026372059749821 1.088075688347539 -0.04896460282416083 -0.7383917744555863
Ni 3.6252738430819806 0.45236100377818755 11.812080569929103 0.8399135825511729 0.7495894429436187 0.6658678962542468
Ni 8.644981488695278 0.10122902392338219 11.469726798188114 -0.756356329353807 0.5239373453243106 0.27646532361643356
Ni 7.449103698965337 3.8119592621504323 6.110901237062334 0.3120085108283659 0.5921209442790833 0.12743132887249667
Ni 2.9508705963615465 3.8157333616205613 5.876936312331522 -1.2809994424958904 0.15793515388830864 0.07818184781806535
Ni 4.198434358495969 1.8200845996721169 6.080834549225483 1.0601303680875225 -0.07496025555697414 0.6384288262066876
Ni 1.5685175674367942 1.5959231953082653 11.967053501367555 -1.7538715937132698 -0.20192750030885867 0.3289420533589109
Ni 6.316526604222287 2.2621020121906454 7.370389508636397 -0.3752075120843538 -0.6440124909420523 0.8646067144224787
Ni 8.192162658322772 4.2455420649572675 3.651470479767258 0.23844950649429253 0.774567453045195 -0.4668696537770411
Ni 3.0749863808731583 7.19368946121688 11.46670386330986 0.5194741673466344 -0.3363720272743949 -0.1794023226231491
Ni 3.501249441124125 3.0049233769083132 12.193087334257871 0.3784604718040127 -0.25833750366747116 1.3796503568015852
Ni 3.1754980517495546 1.1873243826983635 4.110866112533595 -0.8380940128439308 -0.18230586942318924 0.9351138193041058
Ni 8.25917348499216 4.869767151410196 10.43714140759059 -0.22336715823987338 -0.8192059176901763 -1.147291536586063
Ni 6.3593941601893 6.568057083436107 6.93688620865133 -1.5099260971014126 0.23113651777264707 -0.19611706427466868
Ni 4.779435497022235 0.4939071680178865 0.8686048808353294 0.0015372625801328365 0.965082597752054 -0.03317802941386544
Ni 5.69492419706216 9.026512788882606 8.002975184932478 -0.7344353609109996 -0.34261106620557125 -1.2614652291177049
Ni 0.8558268583436062 5.059276291389713 1.563963974783125 -0.9705240804825995 -1.3308189371211792 2.022304276833214
Ni 7.708438248269934 6.744105573247342 11.585163981569504 -0.5072233750037394 1.374267238112801 0.13730642189436354
Ni 6.328369783189085 4.092631637757091 12.112129702234217 0.3717113260056373 2.28732124940339 -1.3555529495327492
P 8.060069176868247 3.3750958256637515 8.223859610918632 1.2104805105397218 0.1832569204825489 0.7326690130391962
Ni 7.713701883366288 7.986012755304258 0.4484827281967763 0.07322527514373842 -0.8806897360272703 -2.656069636125961
P 3.18626291658203 0.7876244031732363 7.962302637906686 1.2431396913356396 -0.2491622649261064 0.4002575130744461
Ni 8.719631896858681 9.087620302579348 4.785903554177096 2.0394468500507714 -2.5469034241112394 -0.6397979386400723
P 8.763541213938515 6.795453430202927 3.8366307240135193 0.9087425283994285 0.462854619080377 -0.746380706198334
P 6.0595771395707265 2.8912434800356546 4.895430113981537 -2.750312394061631 -0.3017292403895449 0.4950173198558507
P 2.5553303506833998 5.473029080031461 7.357321803449267 -0.6256044207485096 0.1679956234481042 0.3500058160077456
Ni 7.784212661844538 0.3684672503023482 9.068381533537064 -0.29206780604038085 0.3519218020835358 -0.26324136872699183
Ni 7.895370400233527 1.9783043532455262 4.336244732513478 -0.06310284199775583 0.6806710227053503 -0.005805293827867421
Ni 3.69436819197701 4.0164368644352075 8.551554707211597 -0.7384236561347863 -0.7065617744291832 -1.3045260648629209
Ni 5.900187689309238 3.207344871733575 2.7534221401116947 0.5363855983899923 -0.04799966780773024 1.0947351026455856
Ni 1.2965905022245998 4.004091081422751 11.437145262471896 -2.4110872136091572 -1.056525938565716 0.6111753898073733
Ni 2.084298977347292 0.10970018665657787 5.970988150482896 -0.3448720943256061 1.6014974788525065 -0.21444363049799842
Ni 3.1353445576290992 4.876264450982259 10.85333685189424 0.16528002428915406 2.602215052199351 -0.8980135720176986
Ni 1.7733972529580968 2.972500846835629 3.0761679572932255 -1.2523835785314108 1.0211329037784027 1.6056973758664668
Ni 2.754489488339567 2.4543526287828468 10.130538318530084 -0.9240799300874473 -0.859886426128674 -1.3694973275279834
Ni 1.224051031052963 5.162383226792784 4.600917850608509 -0.31620943628359094 0.5914090058137235 -0.7924235073900094
Ni 8.76817430941395 1.2933098685447537 6.782621492004487 -0.04264560258466849 0.5230600849256798 0.6318115780004862
Ni 0.7085492517569592 7.38627819325798 1.672821614294071 0.4014181090414506 0.2735892876202191 0.6917987571873957
Ni 3.3773438364861526 6.199803668309548 5.393666073570852 -0.35641120531345716 -0.414897117364492 0.15501129537329433
Ni 8.908885165687682 2.2654374754027446 2.3121485815807414 -1.5467574069971488 0.3566837422485534 -1.024842748529822
Ni 8.018736847804337 8.787949494046785 2.4336983439828805 0.2763377968996338 1.0233823619342115 1.8273976879268787
Ni 0.46121231793500883 2.1235843372070633 9.668253169413976 -0.8979441522323439 -0.37087597458853544 -0.06789486406976049
Ni 5.845321604034042 7.679835508944256 1.8790866593303168 -0.7976803849135746 1.3213223104846534 0.20102298621671832
Ni 4.3278960224023155 5.789276683815392 12.936937666530834 1.9081017879461653 -1.9502038593225381 -0.9161755876387061
Ni 4.905132199713829 5.611720381867181 1.8922877830459313 0.9356547794092402 -0.9365862900845742 0.08251338531388369
Ni 6.928150036512242 7.102434843035983 9.261526785330538 -1.1627166128918816 0.21576851995700905 -0.04475827805229711
Ni 5.3032402951525235 6.041519946948511 10.682340903480181 0.39928177942473814 -0.42357356209256725 0.9096192745774271
Ni 1.7044034248721989 7.8178871329036825 4.154027006498165 -0.6763965636997126 -0.31257029686910687 -0.2789502948218164
Ni 4.630088989418549 6.213876581587996 8.518331665968008 -1.480687254840953 1.2051454714800536 -0.7492742256960451
Ni 3.632136672869068 4.2657741623588805 3.557552973969906 1.6321038908844538 -1.5954314751640846 1.6455636159337854
Ni 3.3328953623391584 7.722209599120986 7.252089309845828 0.5346336486958921 0.7569988480338125 0.8778226988921204
P 7.774617493700142 8.112623283533413 7.241817910803635 0.8839478379532518 0.8171608622356894 0.2943743426863704
Ni 1.9663423769588453 5.82984139942775 13.155521079813411 -0.09352876258778085 -0.7918684062174879 -0.5734467649083478
P 3.1379489604111503 4.476246460170059 1.1972567524661202 -0.9349942630071059 -0.5006930300843894 0.1324128412474881
Ni 8.360142068637337 2.4416870068322436 12.185116034093722 0.3018950765434478 1.679275920584566 -0.6826911384591726
P 2.497476055900377 0.8791531690154025 0.40840508159593875 0.9204652161529955 -0.3912540240242552 -0.13309238381301594
P 0.9021084665189489 6.356670960087366 11.236176750251357 -0.11139124469049848 -0.5907993972541825 -0.34004073437523374
P 0.9388734955461259 1.793949189297856 4.790986251817014 0.5424660002561175 -0.1408825692813961 0.36994600657509835
Ni 6.800397226361135 0.43115933748122176 5.7712889419340305 -2.2152794530447912 -0.3734475919704536 1.1761058897145937
Ni 5.094458574585833 4.471074207627461 6.480232052497679 0.09388923125099313 -0.4596183715312665 -0.83218998865467
Ni 2.186172248274655 6.889650566614773 9.12676310565526 -0.5731351472052 -1.2506727664878912 0.573797206269231
Ni 3.409720675281959 8.542194392230352 2.6302667862400604 0.9115110922835011 -0.11743770799489452 0.8192640246216212
Ni 6.04226928388931 4.527146542612239 8.616703157435435 2.427767759588632 -1.0873105280467403 1.1906110253093043
Ni 4.951810408172474 3.454068628619822 0.5910897724609461 -0.14440523772267388 -0.4162099226386445 -0.020164904983649142
Ni 3.767775797409331 2.270088847388933 2.286215126650282 0.36791637773957925 -0.5698053115010187 -1.9207726985456146
Ni 4.932336785967036 1.8209253191666737 9.487079032162558 -0.12922595887907423 -1.5807530472163034 -0.7066545912533055
Ni -0.05760207893465558 7.746608740973881 9.823159391588188 0.5773532990516057 -1.8515033227258306 -0.42085770582330095
Ni 8.618736419256509 5.976747992846146 7.95338187300901 -0.37780381205662034 -0.3398702702356405 0.6341929337484691
Ni 4.351335647440769 8.321925884656514 9.792517907488211 -0.8347775468761881 -0.19583552847850788 -0.24622015157864693
Ni 6.508110128172069 7.5390972379044 4.3451517900280905 1.319633609928321 0.7877590120348046 -0.07864978859341938
Ni 2.7023831561878064 6.040377665026559 2.8547224424270072 -1.3327027844074533 2.102699330252514 -1.1276917600772642
Ni 1.387050092187819 8.0578759955781 12.870264041484804 -1.0939429457615935 1.9078467345125658 0.13688476097591262
Ni 1.3819052544113473 2.938396877773831 0.5835287799631617 0.4361958788422681 0.12702355191111672 -0.4511702407639133
Ni 8.785783727522762 4.994833314480871 12.858013296328254 -0.3298987608452254 0.09960916445390587 0.3155689744861146
Ni 1.4750240766888707 0.6619185622262678 2.2467862961811136 -0.4694369002835851 -0.5097512836319157 -0.01577808876986315
Ni 4.509308668119037 8.506865896948224 5.4582397275315655 0.24615484555835027 0.30723500069912246 -1.027024329562173
Ni 8.049112408672885 5.906803786201185 5.631563189589792 1.3842009522867451 0.8079578555801826 -1.104929526680084
Ni 5.987092497931343 5.28819872680426 4.215096139522329 -0.23763215279931976 -1.0756940268537345 0.30597875969451815
Ni 7.160142925732996 2.5105254845767564 10.086120914451365 -0.03492098024690115 0.39515541596119047 -0.1433099477759661
Ni 0.5049452666860925 4.065399636737756 6.563008197341079 0.6183703648939157 0.4054156602366179 0.40792274292918773
Ni 3.4801674859725797 7.449359570115855 0.6993031649679112 -0.42722632835380614 1.2102424263869866 -0.07768099692224686
Ni 1.0630623861007422 7.167380423990483 6.532527546535714 -0.5684873640205436 -0.8617764440625352 0.009421807534532159
Ni 5.353774847379678 8.100688722012858 12.468459521746672 1.0317183926037328 -0.9605785392341134 -0.3055516994594286
P 6.6109429159138715 6.1534727135551766 -0.023926694049974415 -0.913770320631323 -0.9087998639999252 0.3157615501128949
Ni 5.952102118098111 0.5883702276611628 3.42936883816507 -0.9921123481763365 0.880691021578851 -0.2274061041959374
P 4.494020366875632 6.928195727789119 3.7624938858022245 0.932839421447632 0.7328145374781251 -0.9132381022769369
Ni 7.620848070494658 6.1366034941317915 2.0102800226303428 0.6527696683093919 -0.8715777464236732 0.5690733184310006
P 4.731249476426614 3.6750773348790857 10.455344812298815 2.6700250698647885 0.20704142449665633 0.779574162231167
P 6.722329110687251 1.5745031247078225 1.504553435109635 0.46772608824006545 -0.23579072871520682 -0.6545681549707113
P 6.058882632162179 9.202497310906212 10.658935089986617 1.3553421190735238 0.8586839211801406 0.0818415560578397
Ni 7.25030095326882 3.852496562996663 0.8845429120359406 1.2556738192469086 -0.44803658023093806 0.640245310590136
