# total energy = -340890.2882262562 ev
CRYSTAL
PRIMVEC
9.10216184677499 0.00000000000000 0.00000000000000

0.00000000000000 9.10216184677499 0.00000000000000

0.00000000000000 0.00000000000000 13.32193392337355

PRIMCOORD
 96 1
Ni 6.610599733662528 1.8913108909788487 11.470531539395141 0.5978179946638607 0.1921061433430627 0.7987718182055404
Ni 4.808280678463108 0.513102513106278 6.039965186556962 -1.2181675947713342 -1.7102381732940353 0.12748223671509012
Ni 2.7962387135578655 1.683635967674824 4.632702708264228 -0.43738989915036935 -0.5195962947467956 2.103109935427372
Ni 3.560064824133946 4.350396429830176 5.177170360668075 -0.3584272073022214 0.9485941131787277 -0.9187402630420887
Ni 5.528616660026802 4.486619383115942 3.0681748990693944 -1.3332632848966135 -1.1974609583516023 -1.2790037522221003
Ni 7.359980713484599 6.156074182728544 2.471458107366718 0.5560581371182552 0.16659822887994533 -0.11504555361363412
Ni 5.267193471377832 4.50841906059285 11.543308784169406 0.7045074630033157 -1.5811148014310963 -0.2728675789628462
Ni 5.846072756628943 7.828914986525449 12.343771095933192 -1.0984773432968373 -0.3030376747883232 -1.1316823692938962
Ni 1.987511638892604 6.215893589984594 0.5128476525762765 -0.38777866388114507 0.6906427892060816 -1.4721200819972324
Ni 3.206336612815529 1.6050114941693818 0.5163820219976892 -2.2408279909378566 0.06734130555913563 -0.1903426236847367
Ni 0.5462553169785715 -0.03739441126446026 4.902884907199639 0.8930600846671652 -0.3246907342817246 -0.4456009742062519
Ni 8.489904873245951 1.870030036723729 1.4071022802453048 0.7144946561230145 1.704531352717245 0.18230869763666668
Ni 6.834085111988427 0.7745366243493907 4.741049380864909 0.60571848045786 -0.6262191715143731 0.1180059217935387
Ni 0.6011841327071303 7.1775369826507145 2.2627036676749013 0.053366074325966156 0.5181721607057592 0.2828007789161581
Ni 7.7173770960026795 4.143877481072943 3.9237225837444556 0.560502546042854 -0.541063720591952 -0.3865633034168052
Ni 7.663956508482022 3.801235702809588 12.848498709980388 0.1373025652396216 -0.8035790097861966 -0.15110938921572684
Ni 8.285670567096947 9.12946827112276 6.867763110595759 -0.39747660789519934 0.6895791238282576 0.932325200815375
Ni 6.741579841759693 0.516586820637869 0.394484050930361 1.0654044720022682 0.5460539747176918 -0.753936921279037
Ni 1.7795272420878632 6.6551275091184925 9.425241197918853 0.5955793351413291 -0.04824315127710401 -0.5947599245638273
Ni 9.33717960307393 4.588345143233657 1.2444020485409257 -0.16236259353204296 0.1492988183695493 1.7289398634685964
Ni 6.372459874861545 1.984480619017944 7.012559390067538 0.9661799445812909 0.4369402132074604 0.786895892703561
Ni 3.5367632899623866 4.293872005140572 0.6880069233330114 0.25439343141805865 -0.7679108669606259 -0.20983184275759992
Ni 5.963499745827104 5.6958415763548835 5.005409837122145 0.9805123020435631 0.8574593047444201 1.1732874464291922
Ni 5.42741882529266 3.0127882446030116 9.711836414986358 -1.505844213722555 -0.9456352876607197 -1.9613861011916027
P 0.12627064958921 5.515709794614586 12.606612401388386 0.8282523441631607 0.5651513576687751 -0.2954637190958073
P 4.079598014541868 5.826976421202407 12.46172327986639 -0.9562953384777272 2.9822171574588703 1.7342898149266002
P 2.2358368167318576 8.516246529453957 1.4182933881609034 1.2499117199521506 -1.1471429268233404 -0.35698533264937227
P 6.6726218640707335 8.025876665407628 6.040830802142788 -2.0027068143172606 -0.23641833499687673 -0.0543358944384032
P 4.8586520417855334 0.8263952809076109 12.72223352168825 0.2535989605412213 0.0242429317077647 -1.0853330926053952
P 3.8278868325183093 6.4192904972493094 8.382067921705275 0.04028353011039514 -0.10708259001281559 -1.6391080901164288
P 4.7884379657701395 0.8557333687754902 3.7324861646255227 1.2579973251737626 0.3851222000949045 1.2249398804981613
P 0.27436191162743556 5.535133807865408 3.6436026445713448 0.016768991928222732 0.24605714363822137 0.07358163004189262
Ni 1.6406464575606536 1.1274847804027681 2.629670063094536 -1.016778997685081 -0.3771029293348538 -0.21309662955180073
Ni 1.8323288826070887 6.66188131316353 4.64240106164696 0.22988773296721055 0.3653817842431836 0.5977226067365771
Ni 5.832610659347796 5.646444144343535 9.138980030188888 0.22397059615182716 0.8938584121987444 0.8785104689877644
Ni 9.13693204378709 2.416942529783233 10.153871069301736 -1.385102638165408 -0.4397717691189845 0.9605651694976746
Ni 2.2296200402321795 5.38888027229173 7.0335280401734055 0.5083765147715761 0.08515930757716302 0.03617182193486673
Ni 0.5723439330889325 9.287299756487936 9.134529983291825 -0.6532381233053781 0.764096121200226 -0.7701418131736737
Ni 1.5473219927712003 1.1100268340976702 11.679619118208317 0.5677402014418739 -0.43313652319065404 -0.2665426651860829
Ni 4.025303619489777 6.708238623138434 1.6136321515966803 0.17376980692772007 0.7066481634954024 0.7202570125280886
Ni 5.439397270202727 8.045373495952738 8.109794045991492 -0.11296064606014738 -0.09749160389027081 -0.27860293878472664
Ni 5.096145647099727 2.731567854070002 4.937109035514117 1.3317579039956806 -0.4704553142457704 -0.3322340938466214
Ni 0.9653206660275707 7.519204829602994 7.046930063186767 -0.44383694032729365 0.7394839790785006 -0.288723057937864
Ni 5.031147109787574 4.520270075237916 7.17552631511224 0.3497700458478557 0.3216077244810268 -0.6158409136038425
Ni 8.430203794093115 7.366443248352492 9.187178707493052 0.34874828945156067 -0.9339997603043205 -0.34845929745623216
Ni 4.413629147755889 0.576362537517348 10.575763549801394 -0.07341656521893808 -0.8184055332760678 -0.5115780524280094
Ni 7.995475445043171 7.313368542979693 4.530989691173013 0.5809551574702512 -0.29520172368367226 0.04965802934675964
Ni 7.3538367542792065 6.2270528403339425 7.110888223406804 -1.248466759975508 1.7531336871059806 -0.08501661135171165
Ni 2.283413816386054 5.158723009376864 2.706550562401826 0.6775659014174653 -0.30207891041947976 0.23578404384698748
Ni 2.298687243862568 5.304794501714828 11.451694615579497 -0.44795970424641557 0.11641955114302531 -0.07076292964617491
Ni 0.9920173065452208 3.3230354290708277 3.7865329808770407 0.3202941478759258 0.21715023079588408 -0.36854012736650726
Ni 3.813587336352872 2.4516945834812858 2.6919233884121003 0.9944368825444551 1.7723999915347604 -0.6822710202026185
Ni 1.0670191196599281 3.518094756139782 8.14356488664904 -1.0751450963288 0.18941316989193188 -0.20323670603858546
Ni 3.688523633416454 2.524329834531694 7.100484452485675 -0.21304289349572986 0.7869362590231932 -1.0500626994388755
Ni 3.93325345735033 6.907120858157409 5.923757887038095 0.4531713303543421 0.6990942624075444 0.7286758327194032
Ni 0.6906738567362406 7.38783332854904 11.565184009589137 0.8070638830110036 -0.4112888311879433 0.3344982072904497
P 0.21054483491507672 5.741725573916927 8.027343933887494 0.12794143573969577 -1.1334430607387447 1.1360923254361337
P 8.322206644505009 1.827340897948489 8.251113299661109 0.7741131391165958 0.5354851980629101 -1.9266808364999333
P 1.850942803458979 3.4712550315902324 10.476235961754943 1.2958835586965745 -0.526873545134499 -0.25705529452093795
P 4.195632372986806 5.993018056498341 3.8513048743607268 -2.1410841006783 1.2435389836565875 -0.8993759995828641
P 7.089792143035936 4.101916515240565 10.291526702852583 0.7615193616119853 -0.0797759317780626 0.7318542304473847
P 6.580535293284145 7.701593947466162 10.026073987181054 -1.855838973986707 -0.41008709757035827 1.4756903158469938
P 2.507754797919815 8.670928666841256 5.970744156392394 0.1187299444437568 0.20031310463388727 -1.5520124847485013
P 7.167069496597085 4.190653490489992 1.6093432129632275 -0.42309302291172296 -2.3438906611580017 0.37990646022191993
Ni 5.459604069367127 2.642557813967002 0.40338505494066107 0.39415962770682433 1.2584806925680843 0.49985973554981655
Ni 1.421047702317276 1.3001254829933817 6.928084957182384 -0.05294775584162494 0.17276296292976054 0.1548529154185591
Ni 6.834831489254859 0.7376819712788264 9.350185682049611 -0.9193881810387328 0.06474140604244334 -0.751391529149364
Ni 2.6227606120829616 1.8822178313548692 9.134184101143967 -0.04142458569337382 -0.3057910691637443 1.4613553872815606
Ni 6.569885763994799 2.10322742167504 2.701061958845009 -0.7439078191778092 0.2941596555724031 -0.06320491479325889
Ni 4.137223800807549 7.1005144896195675 10.425598815308371 0.16128093043209 0.2348751588794729 0.7061591396741257
Ni 7.927491398665289 7.363712599816762 0.03623479585295374 1.0156757373185732 -0.3765506563758096 0.9090657160668021
Ni 7.403197777643412 4.124253220262832 8.013116344800164 1.2389559922715954 -1.5323396889099221 0.5766519021092069
Ni 3.248470519721837 8.302227399385254 12.659008085491966 -0.3255535965026522 -0.23174638344250412 -0.06116962953078498
Ni 0.04663583612554794 4.878867943111719 10.242209369864947 -0.0007355926144438944 0.5763068600649623 -0.10700108604260282
Ni 8.745994195088462 2.4443127302730296 5.542390961457199 -0.5146147823718041 0.11077829369684793 1.3556473090187686
Ni 3.7377663286774454 2.5928418062931504 11.688318054226972 -0.6359217435141177 1.0064123097387763 -0.5131194287732002
Ni 1.0975659746129571 3.3019730266985663 12.723112790516755 0.765289884398011 0.35677887306552103 -0.20807757907065452
Ni 2.877075012377249 8.712070438112915 8.18049326723007 1.432111659925095 -0.46358918325355647 -0.3993067191254026
Ni 5.643850028234592 7.685910922709287 3.592885399101059 -0.19742369890123418 0.812967135869316 0.02556087918823985
Ni 3.2009390308765697 8.500982204139229 3.5900482552724364 -0.5438356269101344 -0.9880731451099565 0.2957108021096069
Ni 3.3661159608028557 4.416168650894117 8.956869438476362 -0.0455360367585861 -0.9110909740269472 1.3364205995786727
Ni 7.268686030773371 5.8588794982615156 11.702386355483052 -0.05315164432231491 0.7263132460244975 -1.652447230427496
Ni 0.3774484449321223 9.094534174188995 0.5130688351076707 0.5244698207890128 -0.5648456535028981 -0.8847885886869923
Ni 4.6847006278977705 0.23480755737121314 1.698226733017406 -0.19631555343871995 -0.8847456512641988 -0.21756263574295434
Ni 5.838381429919971 5.477398795658298 0.5596573399919326 -0.15845760205068193 0.564573373678118 -1.0129606523802555
Ni 8.129677718412498 8.87497182759276 11.105230839582301 -0.39438717033659826 0.9938023342842499 1.3153923181534637
Ni 9.127647838765608 5.313305022984518 5.94603178714404 0.09751654359093528 -1.5704843183004435 -1.7108508671773694
Ni 7.731294301373115 8.629923427996381 2.358168960916367 0.5829415917726605 1.0208210289649386 0.8843980381167931
P 8.692336951361376 1.3753457479909477 3.6090317238928287 -0.6828410337734756 0.4871464017482061 -0.5367704925332369
P 1.9124825192925392 3.06603589104974 1.7148527417352852 -0.19195753358034037 0.9844584311755046 -0.8351069051911489
P 4.668161999933034 1.1883600384259678 8.414333264803457 0.8801498043634003 -0.4608339891059225 0.05221601988192298
P 8.717204057360087 1.695932988247393 12.486008757726994 -1.4593635536625125 -0.888297116060883 -0.15915848477244848
P 6.09426140204141 7.669026412596693 1.2761449275526042 0.25887152179407025 -0.8774666011042824 0.5116042776802544
P 1.8713680545062368 3.3753637571771935 5.978284387215721 -1.3430522459625773 -0.778020701701118 0.2541232084758075
P 6.801481168471815 3.905564681198032 5.840202772493303 0.06933313917818382 -0.5407305056222493 1.1156713385776205
P 2.2091492783759934 8.722847397667262 10.24793736027673 1.291635582053498 -0.9185656851374373 2.160551208263976
