# total energy = -340864.12989206135 ev
CRYSTAL
PRIMVEC
9.26127808566246 0.00000000000000 0.00000000000000

0.00000000000000 9.26127808566246 0.00000000000000

0.00000000000000 0.00000000000000 13.55481662270155

PRIMCOORD
 96 1
Ni 4.972278264726191 5.373152681390852 2.7926716887935443 0.12326665597184579 -1.273568440139142 -0.5988261242134009
Ni 5.591255777439202 5.48930762961329 7.7294033164389395 0.7598409454682978 0.6912963636296804 0.7792013522727806
Ni 5.562545815751309 7.212738845903616 10.037802780503476 -0.44702819357108176 0.6637202537836248 0.08587484558694888
Ni 6.680641381769356 1.8090054246761753 13.356658607451369 0.033803578813006295 0.8562681126497962 0.0737891180670084
Ni 2.764454427093327 8.471179818185641 9.390925667924408 -0.755768318060821 -0.8490111739770668 1.6989312329216482
Ni 2.2376081075645624 9.014103716259626 6.829512720526842 0.8462271834740264 1.1459141966225619 -1.3918492128606224
Ni 4.81461426866984 7.51708296235121 3.539284429892962 -1.6181993649882196 0.6874880456271838 0.14714629080292077
Ni 2.140077589327401 6.180736119837392 0.5026799408099297 -0.7321470790974551 0.2278349642032399 0.6868049035172301
Ni 3.4112342962537743 1.28423363141131 2.504495911415216 1.2340035333623265 0.11743076601635904 1.0787402698792259
Ni 8.05565405978219 4.1815410908958714 13.010535939981114 -0.9962677651056068 -1.6532902951540818 -1.2976187962201267
Ni 1.6142314878187307 6.9687226941124525 3.286026448821687 1.7110480707898403 0.32489205165925333 0.2562402548188103
Ni 6.098523755352415 1.142221195113842 7.29941792475055 1.9775611682895684 0.5139321544824828 -0.41887718505816246
Ni 4.046020810451052 0.5238947502416899 8.12899967674459 0.16482802435340002 -0.7625758279009576 -0.9004111257155976
Ni 6.472818304260866 7.8795045529100225 7.907690326265161 0.4872160786438771 0.2742857994666115 -0.005834861514222209
Ni 2.4005973384501202 2.2506294643817166 10.106240846272836 1.0719980660593862 0.4942981823016391 -2.1124309557179815
Ni 0.376936791511533 6.22592189502295 10.096955488986294 0.7455908633071869 -0.6064234769446846 -0.6183428540900899
Ni 2.135595130792904 2.195302589825758 4.552968348146718 0.545148432184287 -0.3790955342848503 -0.27236415696386646
Ni 0.4965925028043 9.202348452152567 4.485017425598254 -0.27351035475316765 -0.25813001564235544 -0.9359329727712913
Ni 2.4493394443737917 1.2175339075157599 0.4752443309698606 0.25068487221821983 -0.7081160062901805 0.16402532594644653
Ni 7.920013382723843 2.345983582297377 4.143002134904958 0.580882909471419 -1.2028687596307348 -1.946691475293905
Ni 3.2379650468283576 6.461075003802722 5.405105016493885 2.8920611679980643 2.5859667086612883 -1.7311260724866377
Ni 3.2437996519455745 9.09903889646597 4.408378498191914 -0.9728537570570407 -0.665782278518976 -0.02773937489679739
Ni 5.016584218505185 1.39308143132028 10.148599153296036 -1.4386638592213157 -0.5888433019690762 2.1314743455026774
Ni 5.526973247092212 3.041190673930724 4.268357236656671 0.7535610259968569 1.312387984109501 -2.29393258407232
P 1.5812705995454368 0.9169600573272441 8.583573761426965 -0.7019594997704814 0.11319847310256632 -0.38647819990216664
P 3.585096267468876 6.032574194971936 10.097389842922798 -0.799112746484727 1.52123766545949 -0.7560020313381819
P 2.7477378203686023 3.073901507698995 6.511205375293172 1.5949141692080337 -0.859222824402746 -0.7725668776753984
P 1.2160984094313654 4.387576741757341 8.92992703471852 -1.3136871625368989 -0.20484004596996336 0.6982694525134039
P 8.530563132489762 8.112212684307341 0.29070318013465896 -0.8791411605932279 0.9261782073773727 -0.0183677038739103
P 1.2921983304602096 7.540680698603065 5.469992308291912 0.9115512014928171 -1.5326438504139024 0.14469088728389276
P 6.642716448507446 0.4993523636375233 9.291813323411022 1.8282327822336641 -1.4719264779291876 -0.3358907167626022
P 0.34033344261506215 1.2556255437810193 2.8067006726531636 -1.020887620536816 -1.2679685774538616 0.7006176410306063
Ni 7.913845371599927 9.029255167008463 2.6128260058860073 -0.5317031053126585 1.0001228771856387 -1.2496466392162218
Ni 3.061287647112249 4.303780698740549 11.585843914714667 0.21333008571884549 1.1171864896705663 -0.31729572736923417
Ni 4.506250757585941 1.607767115799973 5.41535262056087 -2.0124425535477855 0.11725233145696581 2.403256918931461
Ni 6.520662066222045 3.10995566281221 10.769382615211994 2.836818702584992 -1.4685092247175227 -0.558942914865218
Ni 2.189625426433926 4.593955059903473 3.8526990419783376 -0.8700703086402112 0.8031689188319716 1.0185774843464008
Ni 5.644924883239634 0.384104094527746 3.7522039886649514 0.953387677912629 1.2401024471712128 -0.9356010433531693
Ni 8.606255557288197 9.426221324372385 7.843982921279728 -0.4210073440272878 -0.4080078464438264 0.32835301362466035
Ni 1.4573917455011602 2.7772627745173133 2.2482150492165447 1.2335875288708302 1.2878537464135627 -0.11145809337269193
Ni 8.818468480551545 1.919566561008455 0.6739126352110983 1.6886918145818273 0.14171200716122692 2.1502079173564392
Ni 5.344257494143683 3.6775238215479633 12.617853123675465 -0.37374558282684667 1.5661350401928125 -0.8668358608633137
Ni 9.106920244013196 3.775961945025581 10.5437362082621 -0.17963860700367126 -0.5977298058254287 0.09792766298642488
Ni 0.8801279548650665 8.793537120272896 1.5099383844123757 -0.488201582485598 -0.19011379550338225 0.5737804940986828
Ni 4.619340222802348 6.502435871189215 12.094962295965056 0.07540479929356045 -0.689943963366844 -2.0194300406092123
Ni 7.382072052194402 3.041320331822218 6.1672109494990055 -1.1358277589208374 -1.5261034781922234 1.1155769790916013
Ni 2.4664913311628167 3.644090608098514 0.3131395521298492 2.0810159317418098 1.137187101162209 0.10720857406771858
Ni 8.822358217296356 6.064701568228485 0.5206273713760484 -0.5499337693880723 0.5445480795961267 1.688185307259054
Ni 9.103271300495443 4.605411260744738 2.845901810018491 0.036104973252673304 -0.750559520166372 0.8452157114903766
Ni 7.813990272593843 5.0928137974255225 6.834975948397709 0.9398204807511557 2.4344066050613877 1.1258860743270933
Ni 7.334006019562091 7.839153164821586 4.5936735170533725 -0.8900238689440028 0.9012670459579898 1.650757501429899
Ni 7.410485652987452 6.995061768641604 12.30770589045573 1.4568582707421556 2.0856503451900275 -2.2107663956657864
Ni 4.825496270277347 2.871422187575638 1.0282926581139114 -0.9208827633063881 -0.34239406509875875 2.11589577433813
Ni 0.6540194101447777 1.4907971751167184 6.274836260716748 -0.17788922841273233 -1.0447063202229685 0.6101993990473491
Ni 6.152702231440859 5.8566376974929355 0.0038073113709331677 0.24540999697252575 -2.2149974030279984 3.5689842936252085
Ni 1.6146204614932118 7.094379713525786 7.724320727092386 -1.6849364613044528 -1.5815074088838248 1.1438781400291398
P 3.6249568078252277 3.564582536778978 2.815633175249284 0.9487000426289726 -1.3025098057638407 -0.02541329786678204
P 5.252663455081341 8.659100409349847 12.153885324754372 1.1282599738759085 -0.9511153369386846 -1.067107570736304
P 5.561360372171937 6.554836181908602 5.209698534351511 -0.24529918242627427 -1.0090294356466494 1.9200383914827515
P 4.074943781532114 5.269287449026427 0.2627628306455607 -0.49865543082907027 -0.40935818982413374 0.6270771486392942
P 8.586658693116718 2.0650241927084703 12.173214537992695 -1.2469940320847233 1.159718706605822 -0.7338568626997103
P 3.855599674236611 2.2538153440012763 12.041461745423565 0.11696411079258565 -0.11691885937694703 0.11613724401591612
P 0.9712672651793846 8.213901516350266 10.755651844502811 -0.8706950867084038 0.6909824319336875 0.06663373796914976
P 2.8794331930143566 8.348847597561326 1.9831507909969706 1.0228879387962966 0.3564058059968184 1.685775926486613
Ni 7.215063426672539 0.28903151946218647 11.619405859927815 -0.39081385116304307 0.2636182924504363 -0.36385609162727656
Ni 3.908666796969394 7.144548056255888 7.683615558185731 1.0143490480873498 0.05116186758579576 0.2616557694074268
Ni 0.6602568808534215 0.1969040307891269 12.765248214725515 -0.09687505335219446 -1.2128842348852078 -0.07412618969145297
Ni 7.3869805295152355 5.889459666596772 9.292978392178872 0.9388061805540282 -0.001998261376951397 -0.3040599454052505
Ni 8.677530352497882 6.807780205656902 3.132016953049865 -0.8147820775908677 1.0178123240456018 -1.1533585687157493
Ni 3.278390525140504 0.16735777570109947 11.926029176882308 -0.7487875158676136 0.168365090972381 -0.7304714911672452
Ni 4.522763616195462 2.712359738546747 8.398821453454188 0.8370390892168551 0.13510247226450925 -1.625218990839162
Ni 0.711611593290691 3.5969970096524055 6.810305756157641 -1.8454879697696862 -0.5093427353395873 1.908324445479933
Ni 1.832417935368754 5.23965135954215 6.260956383432347 -0.43422024317313607 0.9361654004970715 -0.1717736024332977
Ni 5.212191670379376 8.737867578432276 5.964620494040083 -0.4511563568068424 -1.8212406671865473 -0.20546945202384614
Ni 0.2936371529936024 1.0349107673468687 10.67765799213036 0.03131295118066865 -0.245312552162713 -3.5450007862264172
Ni 8.62560236695465 2.565818537324963 8.330383387684826 0.1337467295675632 -0.9787593239081983 1.2377912825395327
Ni 4.526458866103033 4.378315463793505 6.216686548637412 -0.37791719770603305 -0.7332845351360081 -2.2287602611400454
Ni 4.923554681358448 4.4783280045249745 9.928374298466172 0.4548577169178295 0.22843197435729046 0.025858870044632883
Ni 2.374878769544547 7.020974824384418 11.687112284738031 -0.12002912287115457 -0.7008397843437414 0.08005489647106212
Ni 5.9113996340931 7.67073682504922 1.6221183921327338 1.5733891506520645 0.08201973350691681 -0.4179179064686867
Ni 7.253395856164858 5.260155828954084 4.510161795270069 -1.6266374684532439 -0.16050085773295583 -1.1407578492326031
Ni 1.6859508243706802 2.363570749150702 12.184451246546217 -2.131542993957084 0.07078426980241358 0.05752354813776545
Ni 8.107998802833794 8.073602416476106 10.03491511403435 0.18511094297215216 0.854939880756676 -1.0260532238981555
Ni 0.8097866964741358 5.1454178562601145 12.226620623498953 0.8549501651693212 -0.08901930475320152 0.2818494707464823
Ni 3.9221604789627036 7.786178654868442 0.2926758323409561 -0.916675152982944 -1.7702307517975835 -0.2012615845900856
Ni 3.1930015423139317 4.452563129229581 8.192246796215223 -0.9191716941525524 2.037283266740549 0.6651222763374739
Ni 7.1902246791735305 3.523443940063616 1.621969285557516 0.06137326090115881 1.4068336020845964 0.08714599898988862
Ni 4.913070914703385 0.45997804037427253 0.3570148564835244 0.19594068659780448 1.945553247924404 1.6863307705488184
P 8.704869645047127 7.203459045383853 7.350492020465516 -0.9989987908835246 -0.8047488617245818 0.7682492241366511
P 7.006990294659025 3.871380891886988 8.606250926649214 -1.1554229074439455 -0.2782082744494692 -0.41533574756380726
P 7.057945846016054 5.615594415928164 2.1763614241341194 0.08496364662658915 1.2619861346181815 0.0769816568623771
P 6.513253043850976 1.6798198583586204 2.127631357871801 -1.0190073727949676 -2.15932427783541 0.25991461834660395
P 0.5621642030438548 4.2049165564765945 0.8829767239667425 -0.4762117571135734 0.025376788201891782 -1.2793760479598546
P 6.69745060127372 5.213543816962096 11.27210423177276 -0.04368535670309251 -0.007354126372226044 0.763216289698434
P 8.970483097049957 4.177253119198615 5.048409674100113 1.0309447476625018 0.13195544199509532 -0.4105010451793253
P 7.988778371605329 0.5296710093077347 5.67529353981085 -1.271850429006771 0.703440198081066 0.4455582938937746
