# total energy = -381171.34911424195 ev
CRYSTAL
PRIMVEC
9.21316288902357 0.00000000000000 0.00000000000000

0.00000000000000 9.21316288902357 0.00000000000000

0.00000000000000 0.00000000000000 13.48439516886006

PRIMCOORD
 96 1
Ni 0.5936077809210438 5.266999481805238 1.5651874188201913 0.9460389508570416 0.11049778634195163 0.397392018601193
Ni 1.1665707060676727 1.0901198790344269 7.989908363578444 0.13296485709621617 0.6128962291532218 -0.01801237741702059
Ni 5.708531108069549 4.287492838413272 4.0471794572265924 -1.1010469037962265 0.8076310683683833 -0.9126840295456798
Ni 9.129627305921314 0.08585285993122418 10.987705784852425 -0.12499418018591378 0.15264716601649195 1.2810485505662712
Ni 1.488257507308068 8.928356545814268 0.5511608960924623 -0.8192426844653826 -1.998347251796984 -0.38339441877052033
Ni 8.810686027271412 7.604811967609641 2.059242366346714 0.7487366080250202 0.033930848419489956 -1.4774666910211265
Ni 3.40272515071941 5.780670174792894 3.8893045377428264 0.5261240685629842 -0.7126650591134437 0.4536459559979155
Ni 4.91648469336467 3.1244876264480177 7.848632799971491 0.6600060381568311 -0.05347431776905629 0.15013005602159304
Ni 2.9422789007024766 2.37438874313412 8.847125008471604 0.35467751045180207 0.17979570140682583 0.7734397671986551
Ni 8.082726374779508 0.8076995787359083 9.120116557699284 -1.4456978832499618 0.42286676583352983 -1.2325266917064839
Ni 0.40966698052109846 8.193210626139194 9.079852271198513 0.056429286632322176 -1.2475725302960126 -0.6759504773012294
Ni 6.057912677454309 6.595205920515867 0.7450924505096229 -0.7807959504534101 0.6612959606128482 0.38741151034971344
Ni 7.078463962257832 2.838778226938741 10.217747007256426 -1.1818237660349775 -0.12438868539143093 0.8682697650963628
Ni 8.379887735966577 4.470724225257956 9.693096066539413 2.7749327637134726 2.1322865569913274 1.004634134792431
Ni 7.012608272738232 8.690896481225828 5.62183340108615 0.38075800958893785 -1.4201825125876768 -0.7367997473781182
Ni 0.32574704219888545 3.126468456504916 2.6413908150595207 -0.5043031160331508 0.7811638753157901 0.5326107047285924
Ni 8.69469230440463 6.678198093318407 11.233094697566292 0.6880320910561118 0.9810789731803103 0.23742723587736528
Ni 4.115777905387768 8.46136895002804 10.794042333480174 0.6320064676201116 -0.4667696378640671 1.1122479147183684
Ni 2.215793354299427 0.36904706592639175 9.946049907438024 0.4202540108010311 0.2039311610024488 0.17497719697225994
Ni 3.687172346890104 0.0008107583488702826 0.9133294144817342 0.9302798882505721 0.9634540610096957 1.106410996321617
Ni 5.812999163954096 2.513083699769271 12.856386771827621 -0.756848181388561 -0.3002302872465152 0.1797910734211355
Ni 4.733363864476651 4.925522806321963 12.693144263547813 -1.4304098467426396 0.3499240549272167 -0.17682530592459225
Ni 3.354908834462174 5.8414217719798325 1.3362762482308057 0.3040802571202247 -1.3542164901095128 0.8394636394979479
Ni 1.7728797535768135 0.6141503705855446 5.90264600443151 0.2607443133367509 -0.03557198356733874 -0.4335651260876404
P 5.714298548142194 6.408151071003216 2.762696847744015 -0.9536054503503899 -0.1314957287498574 1.1340076749929633
Ni 5.652782258421661 0.7386975940329086 2.1152832732634557 -1.253717723961802 0.39744755442947677 -0.32604056344139976
P 5.135232823787706 1.9087462691539734 9.7718179382658 -0.5691437666576199 0.5304646049198671 -0.21617861091123414
Ni 1.281845802216138 5.380754406049571 6.151298219499582 0.3405238446592394 0.6936833758046183 1.2760742372801313
P 1.0800406786518806 5.5283769176853506 10.275621333621183 0.5411547376438616 -0.044048396469466074 -0.7676295882747812
P 0.8742278291585482 0.3340729776519999 2.774468506179828 -1.7732613110937914 -2.284706437488362 0.7349732356923407
P 2.3599148639741747 4.102114784576693 2.857006470043739 -0.4080261012762714 0.2803507747137688 -0.03136514457484276
Ni 6.887640929055545 4.868216932117723 11.747349505091657 0.44253004859041206 0.12469130423351428 0.0067488886880593445
Ni 5.8764502179162506 6.877248481129117 7.258514965215811 2.4018070738588118 0.7161771860317601 -0.31945519691439817
Ni 9.01183701625874 1.2340386991219576 0.5093423489842553 -0.8125102508375555 0.8070343153246489 0.9807539857407238
Ni 9.444413448033256 8.209527137910209 4.344861362126289 -1.7175051392690937 0.47117496602061437 -0.5332002586834752
Ni 4.240957151820728 7.09097543768699 8.754069297663712 -0.6319645586385826 0.055496747515723775 1.2240358806266531
Ni 1.714680202556205 7.998960296280319 11.590053172247766 0.4262508518144143 -0.031869080794454795 -0.40683156674753806
Ni 0.5354395546548232 2.237057334631161 9.821992824265205 0.005732788718719159 1.1647287582259036 1.136916363999326
Ni 6.413264376498931 7.5154350728097485 12.234432852134201 0.29111881186355026 0.1763185414915028 -1.7810026456021069
Ni 8.089018965146307 1.1799574319870874 2.8107545488733012 -0.7858954764635045 0.8315071036550324 -1.2515238016342771
Ni 8.290685891264735 6.151232806041889 0.11330716451984411 -0.9371917848790569 0.9689325676257636 -0.5215446767224179
Ni 1.6189370120850686 3.297022530985447 0.7062506763845976 0.6728147598857251 2.843545479785864 -3.2007910080751585
Ni 2.893117462639161 0.7458470085638556 12.311078076907913 1.2006581251326611 0.6995220939735823 -0.16202526479728224
Ni 4.959371967387297 0.2716989424510147 4.377007930658995 -0.18534079959477112 -1.5980491152925898 1.3523799511214063
Ni 7.189031132085017 8.921971823816914 0.7686615642378042 -0.767293287981285 -0.2024293796459417 -0.5588737521901794
Ni 1.0557732071641042 3.72440273879675 8.063547333247197 -0.37045662766292975 0.699047725440325 -0.36450683783739807
Ni 5.683139630689021 6.794578769033514 4.873732852838957 -0.18246296382634383 0.02140674781055023 -0.7674354699861041
Ni 8.392426850884899 3.722191579663467 0.5821595045084732 -0.7604528680206839 1.0164198145734495 1.739822057598739
Ni 0.780489422968255 5.201770287373401 4.045251142199109 -0.3885908753697953 -0.13336054987273807 -1.5106994849323274
Ni 0.918732013297388 1.8770253487544235 12.134634027286102 -0.19505237045558022 1.1127875892719221 -0.4703054189314675
Ni 7.847910487987952 3.9444683515367 4.514885679731137 1.9500323667416803 -0.30861414043483626 0.2047559708965893
Ni 0.3348358275529824 7.656562304491509 6.666900912779944 1.0039952156568515 1.1302476937298986 0.38068550447978955
Ni 6.507257065989553 1.7345714215926928 4.515357393679571 1.11374275409634 1.7400107765707777 0.06242612764570539
Ni 2.159980012510152 3.1373307757471673 5.944771349869461 -0.056686139838134635 -0.8096812660291927 0.014927824954425904
Ni 4.174244638136981 1.4389855112880874 6.303024273960212 -1.4146708387408282 0.18009240671163823 -0.11987305690926452
Ni 6.305175547533635 1.1170775941343638 7.0264759257691365 0.25638989302279713 1.0826902556659097 0.3785818278732254
P 8.696378313243757 8.369891454051528 12.89867334761904 0.9662154258049166 -1.0214339799585892 -0.4991925342794628
Ni 3.7980527642611706 6.372081537641543 6.414891421094505 -1.9421141403358682 -0.19405246843615612 0.11980929355086463
P 6.0644448100605475 2.753261647459037 2.3043622546993667 1.2045284067213449 0.06614908502324737 2.2100508576560003
Ni 2.5714583008879313 3.5687002831614345 11.28111278209444 -0.6847649902690659 -0.5194510274181828 0.4325253719692164
P 8.763302729677777 3.190969811055381 6.318436974435497 2.4939420414228595 -0.3221597403297548 -2.4049636172099227
P 7.922887208932342 2.580689890269386 12.547688687862651 0.47640896072604405 -1.5620256460101294 -3.4403831128143265
P 4.420429568138832 8.483351557078091 6.351568430098819 0.045321349644618716 0.23166333681039458 0.05079317139246736
Ni 3.9788150234070225 2.6504427477613963 4.008142364044794 -0.5782053626392558 0.2522254772324624 1.0920619266887965
Ni 5.853159341712341 4.388174284282072 1.0594133278872706 1.3481635990472136 -0.1339760719695499 0.2472946155897483
Ni 5.583563764386861 9.235182515046391 9.004340265480607 0.12763341758097374 -0.8723688748664009 -0.07189935724346326
Ni 7.192357083947996 7.2851981280567 9.650310137310393 -0.46007268545986574 0.2391694153794526 -0.029910671516503326
Ni 3.7383791071517067 7.280637612344304 13.180591530531043 0.5762973469832656 0.5764307872373363 -1.675329534342308
Ni 8.644627976361889 0.7850702076393722 6.568572508755478 -0.19802739392350413 0.9313759495282283 -0.1409710152301443
Ni 1.8607364764725753 6.272063439512728 8.328218474919595 -1.7517368067584544 0.38315607750746916 0.06640182446400177
Ni 7.069517980931093 8.413681618053579 3.0692372089214244 -2.1773546529745595 -1.992454540461633 2.3942398030345156
Ni 2.8146213134076286 0.6018305289479384 3.7636968792277927 -0.6682741917028943 0.28620234839853936 -0.015200876110154467
Ni 4.6885418262124015 3.978382004743421 10.49687360176266 1.390982751095269 -0.7314711360763532 0.06886725528535881
Ni 7.5971466159475955 5.349917949303335 2.4865765083427407 0.3220532966588776 0.034227039503670086 0.6126679151924997
Ni 4.103810006578876 8.02671955656607 2.880860270510331 0.24934018526486737 -1.7183471755544146 -0.4689849003478311
Ni 0.23080079033203663 1.8368559578331232 4.5350855397299785 0.3782537551098453 0.18751749553111577 1.3424511220434687
Ni 3.989354881942336 3.1765696371998775 1.734794380138632 -0.6419360680289976 -0.33225903354728586 -0.21338536443681316
Ni 6.3286967528139275 5.007704220775632 8.755849280766004 -1.3758872902147272 0.5688488611250204 1.0569812809355796
Ni 6.285035573094652 4.373635912980739 6.419543147121148 -0.14063985714297067 1.0418853058344055 -0.902647471245284
Ni 2.005364710115367 1.6101660808563814 1.8193011969474706 2.381456278116602 -0.2940017898383001 0.1307843045051296
Ni 6.891556523354066 0.8257380306819665 11.24711805305283 -1.332478584211789 -0.8554494734032428 1.194395432052401
Ni 8.409139528667295 6.013707921114768 7.818994054422449 -0.17507618444396947 -0.3412967182695219 -0.024138544919416492
Ni 8.164253654656248 6.3702112655413075 5.366142329443796 -0.8883235984234443 -0.7516031309395378 -0.5550525786718763
Ni 1.4551638256132717 6.46732721730769 13.159785444403159 0.20177503389139442 -0.23460467882690564 1.3305481999582955
Ni 1.6909563076886938 6.9572832285908905 2.5694249558016167 1.3312560246585976 1.512690290110111 0.7913876099263274
Ni 3.0481934231867127 5.963772577354803 11.20403545997343 0.4755165308187617 0.3194891354761272 -0.6269943591175008
Ni 7.6809679734251155 3.2308351675958544 7.939140149878275 -1.2052274896708985 -1.530167878069584 1.1874279995956323
Ni 2.305234741240708 7.788504012607093 4.890196775218857 1.7164034215644828 -1.2736877393258257 0.8963559818096177
P 5.403584624100714 6.394635360801026 10.505180189573359 -0.8942080822286794 -0.9315818948914472 0.6842021757870603
Ni 3.5133936653402036 4.90457207353411 8.792890802830016 0.2576507620130917 -1.3062543604079375 -0.7228782522010195
P 5.272988037791211 9.24236878222956 12.940044135002758 0.000509849756882993 0.3489022985309217 -0.5323134852031477
Ni 0.34021723609360893 4.707005004975311 12.13657616205817 0.15390983477899944 -2.25384265802997 -0.05114078453987321
P 3.9904420351828667 4.306011296154514 5.975893414670414 0.7831814199664512 -1.1307133205124076 -0.5904710673804863
P 7.528287435271954 8.343339118126027 7.8268418267129904 0.7869383159057222 0.004344650121940905 -1.172099082548046
P 3.6529730856286666 2.804754015775355 13.171530384666111 -1.408814122849735 0.258972823258625 -1.8937087524492868
Ni 2.558513806795173 8.440943367534341 7.74581390027385 0.7015782051716627 0.18044799027884406 -0.6470638761738663
