# total energy = -381178.0919906721 ev
CRYSTAL
PRIMVEC
9.10304344520348 0.00000000000000 0.00000000000000
0.00000000000000 9.10304344520348 0.00000000000000
0.00000000000000 0.00000000000000 13.32322423179698
PRIMCOORD
 96 1
Ni 3.636256199347561 5.029367754430742 4.449690502559184 -0.3205260613810738 -0.8814947484270689 1.79972747570512
Ni 6.823386443672879 5.974509441002844 0.03727696270250281 -0.0817058018109238 2.12250582345548 0.5217020282358886
Ni 1.8018199974316476 0.36184870586405316 0.950125602830862 0.8030334216953717 0.9716522805497718 -1.2238001104667633
Ni 3.168587344929714 2.299192082447362 9.945560101244535 2.1174600335014566 -0.5499335122777561 0.36624824600853695
Ni 3.240856406442576 4.555827437023123 2.171551938875766 -0.011413126932948086 -0.9701021624538326 -1.2500749850028923
Ni 7.444842113205764 1.0582287946681204 6.182869001270875 0.3756764813009723 0.24756406720105106 0.5192800490579573
Ni 5.288367545105128 3.00799145335522 1.1877678330919115 0.3079636513350309 0.3821417773103419 -0.4575542899133862
Ni 3.3730052874077123 6.099111898993531 7.276239184661033 1.5658686739053034 0.36878489638746165 -0.2300468842528941
Ni 0.3757217439980249 4.959756781589219 8.140996446533636 -1.075157437623974 1.2611155590877698 0.1003090187344079
Ni 4.139872972132241 0.9842756701271842 0.3525071627321097 -0.06674918050109149 0.43876081135596695 -1.0158662560628249
Ni 1.4663455391959124 3.674789382038573 11.061514024993333 -0.0022381453018993714 -0.2848070107129095 -1.2476905439311157
Ni 9.087113069053341 5.744229752239666 1.0688793554402638 0.9660264497225621 0.8724442081890265 1.3504868478637517
Ni 1.9033917556329971 8.223252456955146 3.893019372259797 0.40209816582761077 0.03805849743461833 0.6934463200931477
Ni 6.408569859206372 7.858985072461043 9.614931193007955 0.5760988578192143 -1.4924245978825394 -0.3265833233187472
Ni 5.983630690484628 1.170869853637783 4.4051511318361545 0.28288022600384183 -0.3222767255235934 -0.19363440706213103
Ni 0.08866637358026573 8.1667771757326 1.9024896440325534 -0.3636673726552382 -0.5847146245126833 0.8856149412430296
Ni 3.409836200983861 8.17388665262409 12.486645535218408 -1.4257762046253704 -0.1907599137278134 0.771286211190762
Ni 8.936184609564332 7.1434039342239135 4.256197122459519 -0.5815246568204759 -0.3811331335401694 -0.33653426388387203
Ni 5.671077695517489 5.060964418054768 2.2874373225114053 0.5606393287310344 0.8929135317869719 -0.44269768451652786
Ni 5.03333668135096 5.395009698477489 9.105117978584301 0.8321341957160701 0.9156120018257521 0.008352999950385614
Ni 5.777874600627567 3.292998639009105 10.060406827628805 -0.08504257949364064 -1.0023067722108352 0.3039938680540055
Ni 0.7868707122806897 1.4708788548066196 10.077886491555873 -1.1699357563481398 -0.5497761607642855 0.687826402803209
Ni 2.1478812951357615 4.398972896283972 6.67554846741647 1.908882889086564 -0.9848119578601813 1.1811475659035593
Ni 3.4257301147515213 3.3599970383962656 13.043449569951363 -0.02078376951457066 -1.3206936757617191 0.33052636712689526
P 0.9862146183703181 8.32698163644111 11.067149719159174 0.3966687672819233 0.25001947072007913 -1.0286788344464608
Ni 6.482714147658601 1.3453569894330393 12.973235975637092 0.3325588241758918 0.34738560477607916 -1.015041446168684
P 7.979818870486201 6.631694555861083 8.408207182350306 -0.23390533876703587 -0.0844262860658804 -1.0333348451612334
Ni 0.32212120387961773 1.2043326411577833 7.464723159980433 0.7953851611214947 -0.8071644131446097 0.8367691233849202
P 2.798812619181639 6.799217863459169 0.8429654862893252 -0.4044237286369938 -0.10589859700704342 0.5995858851975608
P 0.6041216543001364 0.596496945152489 5.112640574799474 -0.1360121285629722 -1.4678214546218786 0.7888278196189511
P 3.550423603176157 1.3639636101324082 7.747775011913073 -1.1571843702197426 -0.2880987940903038 -0.6556359341135934
Ni 2.3190549231352398 9.06288987057926 9.244812372219549 1.5123709590974792 1.8263214241435644 0.8187418335695642
Ni 8.437929529339304 3.372531929151173 9.719651693919634 0.5144764570217268 -1.9704628666818902 0.13906094269162503
Ni 2.3567961410508875 2.9630861402877113 3.923636548414521 0.6718570239581462 0.17938920999702654 -0.18120312327731372
Ni 0.8585608202336301 7.637589954051379 13.190231593173952 1.1069750963552032 -1.6107184832301422 -1.61283784356599
Ni 5.875832450601104 6.615017780361454 7.065852376628936 0.3438431388404595 -0.43104904453400605 1.381907014046246
Ni 2.3328369308352617 1.294043133815455 11.977444955615239 0.5062982920863087 -0.3076988277094185 -0.30744865937182536
Ni 8.408117062220697 1.3565628358522774 1.2516129382470456 -0.29810321360118336 1.002755943933112 1.1861599315164861
Ni 1.5503848358185022 6.072776794451811 10.635636332497567 -2.3839402208807203 0.7097219173247196 0.38530166309556224
Ni 4.735184701034702 0.06277731816490115 10.508453161704402 -1.611458189609644 2.082969713034071 -0.3730812097699704
Ni 3.859162422960793 7.333976147698126 5.242489116698694 0.5260914155528358 0.8292890129577911 0.885837598776797
Ni 7.934631363073448 5.114126191481536 3.357119566379107 1.1618087563656312 -0.7403571257120733 -0.29431160776923504
Ni 4.265795371415201 3.5348209867971363 7.784666915879967 -1.0589543455015504 1.0659960828396804 2.1689391752173552
Ni 7.627203381537691 5.3459898097954435 10.158345561211213 -1.8981860714943504 2.078831265385665 -0.26503111363756293
Ni 2.1374947226220726 5.28472632774713 12.675075802581777 -0.2659633956438452 0.8631440138340231 1.6532435010765463
Ni 1.6017260005662717 3.0402344330602906 8.592760463531748 -1.2260814503017723 -1.3751527260415477 -1.962164117008208
Ni 2.3234152809214423 8.815232471975039 6.685487170195125 0.6975729406670116 0.595155103119717 0.04492231443398715
Ni 7.754300073418605 0.09420011366008293 3.5154924947565442 0.7571875670058509 -1.048994148965045 -0.010708901777071879
Ni 1.8084470130232038 2.183738183068645 5.996356745150831 0.9597413880447987 -0.6452345362746114 0.425380533394319
Ni 2.708974683916438 4.81335253466752 9.122558499424771 -0.0016730168270487316 1.2099482921853355 -0.08901416254687895
Ni 0.014007763176217665 0.6682589671482498 12.44848830821961 -0.8797520547043495 0.9168301905035694 -0.6535227444253325
Ni 7.646620173099214 5.5761693650812765 6.011838291052698 2.5028105475570834 -0.0623569649706668 0.551526824906805
Ni 8.567748031195322 2.122319949282617 3.989999555372711 -0.6304074985641079 2.7357620070512816 1.2863560788221136
Ni 6.900024966015338 4.1179892558106745 8.012707255967976 -0.6845832132755628 -0.15657144077156263 -0.706809371663615
Ni 5.547503881430438 1.1956847499325383 8.516298540231151 0.17413644623851945 0.16524865683058637 0.26731990967173963
Ni 1.5108412153106459 5.927920064907261 3.072708630067594 -0.7988738910010436 -0.4553022606544158 0.28917351521172135
P 0.7192332792472009 4.487108562434309 5.370232124660654 -1.8380052882393958 1.141072038038912 -3.3620662820802933
Ni 3.732047524993089 0.9399438487935606 4.610954557518871 -1.1219255470174485 -0.07824355429393622 0.5555814545921528
P 4.662961154738815 2.0434238721781988 11.777903513483938 0.41972282088790946 0.21889600984239724 -0.9992597578543952
Ni 0.8959124278919719 3.525563191664427 2.248733912908907 -0.8295890606967131 0.40838991237359346 -0.3406925090266197
P 7.011191331955012 2.9344115535934785 2.7553355736228053 0.01982603358699166 0.20763637776817787 -0.8458435748823627
P 7.3466384810605625 8.599453931340088 0.6145164195528808 -0.285479868410218 -0.814148814882243 -0.30232342233011805
P 5.21665376923936 8.281375389032187 3.835249638266482 0.8992656992572448 0.10409908190445943 -0.38673196778418556
Ni 8.007765213708835 7.5032563426714445 11.49815606630368 0.4530612871390391 0.5453451215761254 0.1694153866137663
Ni 5.42732550252972 8.91092366414322 6.541876647291351 -1.992481022824194 1.1993255223641668 0.03702337130188462
Ni 4.387521267693069 7.775100527576168 8.36029695465811 -0.9784821589874116 1.9166170245060286 0.7718066024706062
Ni 6.7447816639571005 3.6373667706417505 4.997154814768875 1.4781973985395638 -0.7441772707891119 -0.14080209375244784
Ni 6.408069191819647 3.94806274475631 12.42806380975426 -1.2114061076777847 -0.9001861541889853 -1.846893077647329
Ni 7.254251693644762 0.8662192106418389 10.52365524417404 -0.03386965616425135 0.2246935903607808 0.31282020809638383
Ni 5.061856516307477 2.4757729182234667 6.117291586957674 0.02018675936052007 -1.8111801976267516 -1.1063469758529012
Ni 5.907802339004324 0.8430018984629053 1.948521913872362 1.2221258080881339 -0.8337089964023578 0.7437862059982803
Ni 8.775142668863483 5.274330652190046 12.139935190520232 0.9372511773620827 -0.3497314793004364 0.47860031195040803
Ni 5.710766964719666 8.070330430962633 12.155336629640223 1.7196990615966192 -0.8986365503136782 0.7282495438152619
Ni 8.779621366213819 8.587019174062524 8.953779882142516 -0.10806218031726549 -0.26069417682510587 1.1006013316183754
Ni 4.94038550524467 7.379992032059823 1.0242908282829015 1.0506905628308614 1.6068744268937036 0.1997199511345786
Ni 3.548848776668823 7.007277023295165 10.505575689687245 1.401156092083845 0.002964224834646508 -0.7582622881272683
Ni 5.04157493562343 3.1484423098965912 3.579030827349267 -2.5062296005409612 -0.2566300340580613 -0.18265656789438864
Ni 4.482493319433047 5.381955934249067 0.17420403114567182 -0.010542037181904424 -0.7196756861033219 -1.199346091189457
Ni 7.802254906023436 3.935200144439183 0.9350008962300785 0.0038805660013288 -1.5730320244229619 0.758415525875681
Ni 0.07111297500169768 7.851420443399802 6.531670315036883 -1.5230626344833706 1.163145472899184 0.9798245319479191
Ni 1.1162333871810257 3.1166999975782455 13.229801612507655 -1.572418044988047 -0.677992961652555 1.3429123779506034
Ni 1.026641234087489 1.024902552799045 2.922995426871816 1.606477448565601 0.618567054285754 0.2277758288305303
Ni 3.708461539556658 9.054888295435061 2.3194536364359406 -0.6600608026541664 0.4793045371062842 1.2003249101629585
Ni 5.887748334405151 5.9166596002276535 4.4485580839608465 -0.4402011433469193 1.061252654617424 -0.5076797458148675
Ni 3.710801021709172 6.774239112383303 2.9849352650443777 0.30409336974634726 0.17913929876974954 -1.036419397623828
Ni 1.6774997337862065 7.191085675526896 8.570643709299269 -0.7672755473694722 -2.3289772343812793 -1.399309011572777
Ni 7.075249448325589 7.20866365232263 2.49657246207669 -1.1032840206568613 -0.17006201905882967 -0.41343107434192666
Ni 1.6697439408136714 6.586152029755925 5.740284493232275 0.3263023017432187 -1.5440711184142375 -1.0098498746654156
P 5.563288558677359 6.001327006844498 11.182395158844146 0.636080380579169 0.33263210061598847 0.8233574779647045
Ni 8.635119655361676 3.20889562108275 6.475672943592573 -0.07196209216059864 -0.048820363936812695 0.5274939523273173
P 3.2544654563180933 2.3091417088780903 1.9596594874661377 -0.5844785972424772 -0.37744102940056284 0.0436925557919441
Ni 6.969918133202107 7.82108910280768 5.4627882286836 0.6729381728374668 0.5417072677132219 -1.8326761627169985
P 5.339544855071787 4.747218924402885 6.170984067814371 -1.1341200322011113 -0.589174717166566 0.6051983462883319
P 8.417921039957106 3.156116175478572 11.963296095266399 -0.1542746743175859 -1.4731143275897016 0.05906955246864666
P 7.644672121812685 1.656808516149384 8.55849296697563 0.36662491262166536 0.3681274653091208 -0.6583993557913436
Ni 3.867282337669128 4.586195189788825 11.092623675795728 0.605108614788003 -0.16787015361383348 0.3476239460391303
