# total energy = -340869.3224724141 ev
CRYSTAL
PRIMVEC
9.25938617519779 0.00000000000000 0.00000000000000

0.00000000000000 9.25938617519779 0.00000000000000

0.00000000000000 0.00000000000000 13.55204762050015

PRIMCOORD
 96 1
Ni 3.404083688595971 2.1041306880926083 12.845063999252016 -2.805939239397316 0.865312996460884 -2.367777752188245
Ni 0.023929957579800203 7.170153819547888 7.614624725652627 1.8236819296381883 -0.5363406040846699 0.25568489653597254
Ni 5.168774539620829 5.275766746645512 3.641272124350561 1.0026160759211378 0.29497058150947264 -0.1145300474297963
Ni 5.384101564662715 6.34441102160291 0.9745661338035354 -0.039451006906770766 -0.18046778777318595 0.2157448658079252
Ni 0.7542473736853169 9.184977728172468 6.583977267722186 -0.3871536287026365 1.2612865374479956 -0.6049124396167969
Ni 8.751379193291303 2.354884124564737 12.263423620703804 1.2997376423353424 1.1402333441877008 0.7757257350193544
Ni 2.108362227565588 2.657934574042094 8.396428958474782 -1.986826138531262 0.5607426870781181 -0.02665719757621216
Ni 6.688249067094437 8.456458484858315 10.765272533607275 0.40345802228961486 0.674963945018244 0.8393852208515286
Ni 2.4260517665545005 6.21323329794054 8.885264361465488 -1.3490511438584896 -0.3241358902195192 -0.5261094132749649
Ni 2.299781517554448 7.562909202097953 5.3175525044872245 0.38153165453016874 1.569827658553051 1.2281180211158267
Ni 5.955553840624234 6.120593139456598 10.66344243436418 2.5249806558962193 -0.15878233237995237 0.8937062028915963
Ni 4.617776247676404 2.9328364896072885 3.025169236470874 -0.08925687468530434 0.7691452535883593 0.099259494423971
Ni 6.230326124783254 8.8668437386481 0.15526138705234863 -1.0343797414859799 0.22694716228164788 -1.3185066954127291
Ni 2.524951270079437 2.589581785443547 5.667926750665789 -0.1371758098537702 0.6924973259163171 0.6709345121438767
Ni 6.046703237937171 1.2809990370434292 2.9434644130363607 1.4986908905072256 0.6782922380605286 0.40210947868152036
Ni 1.794274589791094 2.766880511545549 10.909411546009856 -0.6085441228321132 -1.8867896567319504 0.2659646811954258
Ni 5.688624256538768 0.7425935102702355 7.016287821989146 -1.2221605179808113 0.5061252568435541 0.4424675707835928
Ni 1.340305405368232 5.46042668474099 6.402556262903836 0.5223370907167263 -0.1413600231384469 0.536842740532069
Ni 0.4009406799113638 0.3426519181250303 11.438917876749175 -0.9474234899093941 1.0114455012873098 0.47052473403112516
Ni 0.9696521775709088 9.341331722791145 2.110080769636015 2.490855432077736 0.7016990470202431 -0.6183981328080576
Ni 2.9313179502778164 6.343799902116659 11.440977164230118 -3.3387517757240697 1.2770317160973943 2.7027261596422356
Ni 4.715684996882722 0.7249506758898953 11.556752824961734 2.6298045317818453 0.045831713622133965 0.772961799120972
Ni 8.310021292811982 6.105787380994246 9.343947499380022 -0.6722329192403261 0.8240498760460389 1.6271959120598751
Ni 2.8041402814345426 8.165148937025899 0.5118283106915886 0.15731603224707102 -0.8994557037808638 1.9781062421597608
P 1.6895601917606187 6.093990923032373 0.4929993489447524 0.626772730024998 -0.5636732304613518 0.43788895027397495
P 4.048629558867559 2.970827751002552 10.633261465190925 0.21739885647158042 -2.4690571052557218 0.42703940915398064
P 4.723666587748604 7.493787884448514 4.092705162905482 0.01693894184718373 -0.2724628873252598 1.0661385219548154
P 6.516107819080945 5.189654455401067 8.722599169243347 -0.5941837403453831 -1.072847558543875 -0.6678998390826111
P 2.2736515298241446 8.058814146418243 7.516019670607429 0.6896498291651929 -1.0173281853203318 0.09656292142841434
P 7.423648034321991 7.505186188805708 1.575804929088092 0.7162916001224374 -0.7811008832883386 0.33911179480306114
P 7.068763541147172 1.5078539978486858 11.419076864095564 -0.6753388118591596 -0.6329253798899551 0.09793203386179909
P 4.836140351377235 9.00486414867925 8.856575079401855 0.8170253650990895 0.20858125817995044 -1.0936213007561166
Ni 8.101416582118855 5.012827957992987 6.970563121276962 0.97301650788715 -1.5539721795780332 0.4812868576436356
Ni 4.665100970316227 6.255520914511871 8.34457824788224 -0.3398170484002018 -0.4136100231219522 -1.0628757920431438
Ni 7.355573027308103 6.795204236574498 13.108827799210982 0.9692678394779953 0.009442376359822448 -1.164545181460188
Ni 8.726739966732005 0.030567085575931133 0.18555346885946683 -1.397994663636728 -0.4476442298885258 0.42259911399444
Ni 1.673865532227357 5.908655049747556 3.9410438251903197 -1.2154352834418358 -1.7173382746739263 0.17467972033649914
Ni 3.4107226684693326 0.6957169419203297 2.168626016418851 0.30205808448387333 0.3652879389777967 0.5950293761751301
Ni 0.39274056753221537 4.559210630244026 8.578568491658784 2.276770470470737 -1.2617315954052142 1.3534155914747723
Ni 3.3640090653157606 5.56657628762554 2.324447596333596 -1.0595945501887105 -0.23389376880281013 -1.7119263596297356
Ni 5.644169943607094 8.451708419760637 2.32032716949448 -1.3620293012857125 -0.927390225407603 1.6288288196776077
Ni 7.761347106792543 4.962438378535753 2.346645122763736 -0.30421935380125026 -0.07472037163202616 -1.0155896053626703
Ni 8.145778301188976 -0.02608461673814237 2.625763762784062 -2.034995499147637 0.12329519521693605 -0.04005418770840844
Ni 6.681536012131832 8.909538768210266 5.031130060667585 -1.3850776984647437 0.4248418872820296 -1.1242107435071995
Ni 2.8390759453985526 7.826412813305952 2.9661091678178026 0.1346036782512198 0.11784882739038414 0.03816725509834072
Ni 3.964813595389633 5.762041929364273 5.72569976464327 0.16928554590412134 1.2313175018897309 -1.127169054804575
Ni 4.0705002289664165 5.001133353278822 10.355160431709068 1.0257156380530785 -1.8012469976734398 -1.717461430515352
Ni 1.6183462528400787 2.1654370838269594 3.532042849630753 0.11470231134160246 -0.8912088903910393 -1.714166304703848
Ni 6.281326823726738 3.606577204426589 10.56998744989857 -0.458471659521333 -0.38391840959479046 -0.4691083132995727
Ni 1.3520648257854844 3.902516445336663 13.253306631085463 -0.4650981636989151 0.04788859615116269 -1.2924323669231805
Ni 8.693230248235915 1.0902001259269756 4.779522908791936 -0.1693210271277471 1.6742530134486777 -0.15298809429567845
Ni 4.3501799877877545 7.708938981153451 10.486641863237335 0.2700355088306898 1.4160306952028323 -1.024340869192739
Ni 4.772361699539414 3.5468634231109526 5.37243844186148 -0.21996584586780826 0.30494260512052 0.9128141273656408
Ni 6.3733373439521195 6.161278882223058 6.348903675765469 -1.5737974418340768 1.2136954179325936 -0.7609539760268185
Ni 6.4283380977146996 1.3331201217117064 9.356198593202121 -1.3130803821908352 -1.0475355621416476 0.3459031066932817
Ni 0.36267163693144033 3.5326132278179205 4.9168044198078915 -0.41398514707318385 1.1923231229044045 1.172841360030709
P 8.888038473557621 5.827737274136244 5.094363334660858 -0.5008560380248148 -0.46582424323166227 -0.8693105476560512
P 8.349549612309028 2.9968373667128363 3.2373406627110297 -0.10017095049464683 -0.6272635536184874 0.6814503240735361
P 6.101676213541285 1.9342394709148596 5.2636693586335905 0.8648100886825365 -0.5975038058575516 -0.6742394081473937
P 3.2268127406524347 4.457403679466321 7.096746332047155 -0.010757238516504054 -1.7249273998750938 2.072709211648327
P 1.401871063914932 0.02439107501033497 4.286160591909895 0.29616408759694157 0.6183978756977414 -0.2950939944612144
P 5.2070621013730625 4.027249636234933 1.1046882874441994 -0.46247846668788095 0.5758533174673116 0.5981288410360602
P 8.427059933815183 4.244576688686369 0.26687124995268824 -0.30180765903596407 -0.11386953102766195 -0.5138431943131021
P 2.8991786209327124 4.001240020524649 3.8621029285231683 -0.6299084474405023 0.0577433774580554 0.24169552423541601
Ni 7.0160313369926435 1.854377265325254 0.24153108786143332 -1.9821603576244768 0.39336361416809024 0.04765642553569857
Ni 6.125963583426682 4.711184935211237 12.797510569774156 -0.0261396345098453 -0.6970636051307607 0.2788333096279778
Ni 1.2376836286088584 7.818949748064767 10.214300167944083 0.5900262665335838 -0.8071497578565905 -1.7159398516645028
Ni 8.478171745392531 9.003308571805157 9.205946534059798 0.8648748804822008 0.18857036227566235 -0.21460303889399815
Ni 4.281558676990703 0.6812306322803368 4.679237275159549 -0.39826593656571413 0.19841460205959377 0.1382261054951555
Ni 2.686249776905052 8.647442583697874 11.942538667552693 0.356338957314625 1.8786253757536036 -1.0325576006755766
Ni 0.36688095387764724 6.941030309134579 2.119540158532286 -0.3434420467472988 0.06104184570366906 -0.557145199534847
Ni 3.119987202578547 0.9546890095439173 7.273085785743465 0.6355147378836862 -2.3817514407595177 -0.2995206627740003
Ni 7.1822928747975086 4.325050013762225 4.776568238669775 0.13532975778396694 -0.8007852490911435 -0.2773618672887739
Ni 7.129097701335215 6.693341729479861 3.831529361376928 -1.3032549114599812 0.13245860688375896 -0.5093095681088067
Ni 0.6666508028401753 7.562807348850244 12.575134374052228 1.4295870937310282 -1.229166002764367 3.0977211387661616
Ni 3.059217851241204 3.0960979862978304 1.364637220307173 -1.1092204407459543 -0.28392152278416266 0.8516547822475009
Ni 7.823014618586951 1.2189426310304976 7.3680991248990155 2.6602476787630507 -0.5634554580235909 -0.8367657809508106
Ni 4.593535174721785 8.08197187119269 6.374395691789672 -0.8411955345873899 -0.9418596226683714 0.09110626918921728
Ni 8.441661985782119 2.519201191276985 9.773275605366354 1.0279252441098876 -0.14578360612743924 -0.268332410096654
Ni 9.097022819083117 2.412496025223117 1.3334479039816047 0.24624277728646626 -1.491989824337966 -0.4108409450172473
Ni 4.408912274170928 2.718527997042486 8.332435488878158 0.24800295451068255 0.5872985831897757 0.15520592788260365
Ni 8.828852477252838 7.953979376367748 4.586595264798375 2.370633476469485 0.016738910021235686 0.6262672511434892
Ni 6.522487536141959 7.629910120317823 8.379190759269427 0.37726850837844056 0.6562959362950955 0.0006286347229344012
Ni 3.2812857094041625 0.836829060988739 9.858924927303033 0.1447281682797314 0.9607137792603971 -0.3273076030792815
Ni 3.582900954027445 4.627794903496456 13.210535674556827 0.7270151571875285 1.4312624245509222 -0.17599098294875498
Ni 6.622127790559321 3.093375726768167 7.8413093137526255 0.5597769807307391 1.9360445371030206 -0.36238670617060176
Ni 8.241149978588737 4.770880197754564 11.691934307197663 0.8451807444873831 0.4185647960240662 -0.42559804872176377
Ni 0.8644498098900484 4.371180275588012 1.9999431491343707 0.887545325496523 1.100190726443518 0.9108217795259603
P 7.742920928343462 8.093388694322195 6.634838149934724 -0.43917887272999206 1.198537736355549 0.06814348974545684
P 4.669101025135324 1.3920190770456753 0.6322771836157935 2.947779801716607 -1.527422711224279 1.19378119550717
P 1.2706470433217854 0.7094856491332854 9.566594069177686 -1.9624333115091943 0.9565277662035077 -1.22910403917818
P 4.605294595139037 7.1310051348832095 12.63843616750305 0.5641583976278864 0.3994411878207379 0.18399122754541217
P 1.7849040910019136 4.775361740653737 10.661747966697757 -1.4054773451670182 0.7111990160908784 -1.0366536251218212
P 9.273182640688015 2.9064935359954123 7.186582748403267 0.09656369275936273 -0.19987601709646868 -0.292721894684612
P 1.3672502190802032 0.8458940000347939 13.428670145481004 1.2141353336834897 0.530976511559279 -0.1576929559705155
P 8.606590171980617 7.295970358626331 11.114739359942616 -2.7268937580273747 -0.14786105748175826 -0.8071631275930293
