# total energy = -340898.28789786587 ev
CRYSTAL
PRIMVEC
9.01042941809675 0.00000000000000 0.00000000000000
0.00000000000000 9.01042941809675 0.00000000000000
0.00000000000000 0.00000000000000 13.18767424155168
PRIMCOORD
 96 1
Ni 6.39636870718468 2.029139700781511 11.463781066010815 0.35408924204849984 -0.31666349310187397 -0.7638876047338458
Ni 4.690379048050015 0.42227557806680166 6.070431739710225 -0.5371219623353847 -0.7230757129238063 -0.5830385223618411
Ni 2.7283760570697164 1.5791498438250882 4.714685582523207 -0.035827294111254425 -0.1822912141351699 0.7725820471840501
Ni 3.475538887580529 4.310697572059752 4.863060324208424 -0.40994671533775207 0.016533478878648946 -0.23346799411930116
Ni 5.009744709329595 4.637803192233338 2.5743661928090495 -0.20499405504932436 -0.6886838657074978 0.37522833801996025
Ni 7.015682554287978 5.914373804836511 2.704448861676196 0.7142365173656215 0.5223676868443456 -1.0361643441902282
Ni 5.116815642434922 4.790728200788721 11.351000223765638 0.0583172476836544 -0.7650464009286372 -0.6358081007543889
Ni 5.841110003012105 7.756258760873856 12.457525110823322 -1.347288395531112 0.4494116062015938 -0.32996226709330917
Ni 1.9737255596893821 6.487410086305797 0.42438221647124713 -0.6779533666638712 -0.008621680230739991 -0.3242868139750867
Ni 2.7141215576863424 1.5135719383180128 0.5487630855850445 0.11560862520595573 0.5713366605438805 -1.0772318036544997
Ni 0.5793111445353931 -0.052481246307496524 4.634293629964169 0.09765846848543827 0.6709460821081026 0.07406988253222083
Ni 8.56315172818137 2.344666919117147 1.4213411825100406 0.07052895925849788 0.28791238911111056 -0.5818457876053205
Ni 6.796855264765468 0.788384644182744 4.718338410620564 -0.14084271718239616 -0.4984435719285803 -0.31097287047499994
Ni 0.709653313770581 7.48153076706914 2.556351641217913 0.10595747526943688 -0.7955165444930363 -0.10620815782766226
Ni 7.5741129296255005 3.7471042206497427 3.840936129770247 0.028988931033182334 0.07723825295787343 -0.02525234680888554
Ni 7.669254054144491 3.947108723059821 12.62966395912909 0.38892177634665276 -0.6719909784328492 -0.6003713572133338
Ni 7.773513733262706 8.822904388247043 6.8243316683177175 0.6185480281223604 -0.44157539798662665 0.2307230843843123
Ni 6.803216627954255 0.7401950654203177 0.3781010466654569 0.2756235444414285 -0.2338364332023134 -0.168265075059407
Ni 1.8136823118717575 6.393251098596408 9.17339928117623 0.38010572071691956 0.2923603975801352 -0.5884820619749155
Ni 0.09314351231083935 4.879264680523884 1.343837072588406 0.022103516767258708 -0.2472977009135418 0.2267345320502095
Ni 6.4367083998138614 1.9609127290173483 6.9567489394542905 -0.3079112008305407 0.40566917100832073 0.6575524344100159
Ni 3.5259882820479804 4.362804885545245 0.5689338329425793 -0.5924027371855605 0.12853638901121736 -0.15203781456726717
Ni 5.76404379996154 5.463609050947744 4.809677133913395 0.39244418767761446 0.9288989487426454 -0.07864567482836132
Ni 5.355447855879465 3.045020568656641 9.247579443675281 0.04695502859329977 -1.197079149532151 0.00042783156603797283
P 0.2588894609247578 5.492676696340134 12.355400002440835 0.5080774954739186 0.6861037636851474 0.18011374686787687
P 3.8942895856481043 6.1850020532433545 12.496389796152213 0.1403776046205195 0.7577750640782047 1.0609613486292504
P 2.3023989945865493 8.504349665617593 1.4597967943420886 0.6515116275325747 -0.13031276418534976 -0.5420181140854214
P 6.259383148319049 7.76625132712933 5.631360721156313 -0.21479715718267522 -0.8659259474545346 0.8070109182858812
P 4.622665670764268 1.0719527703168077 12.597262454841722 0.7091902131909656 -0.744785336686756 -0.2426136651743112
P 3.988349458633589 6.213934542194057 8.26905401419686 -0.1437228669436686 -0.463888202551214 -0.5367766631808238
P 4.66101405848591 1.0315139629637224 3.661016775637968 0.415225190127872 0.008326003367192112 0.7537957677154824
P 0.06773139814463926 5.548352139886194 3.564008690137793 0.6861446442254118 -0.4583125082356494 -0.03147493067982966
Ni 1.4173856039833017 1.3055301328422144 2.5542675288870815 -0.12141494747508766 -0.8649880090212975 0.509188212039594
Ni 1.7130358149613387 6.389989323137001 4.874256683837867 0.6105282431416775 0.3013672290644358 -0.5534834344125436
Ni 6.021489790089068 5.572256809206098 9.25686379017631 -0.4474747941901971 0.9282919112862659 -0.3333874907247742
Ni 8.590363225107913 2.30147993078307 10.12812095814454 0.4127667012850504 -0.21845557987086892 0.28031092261476886
Ni 2.4020543442579223 5.173329055919448 7.059757970965419 -0.7436388817871386 0.0821014945874457 -0.7112185564749041
Ni 0.48983848118080303 8.954763012757972 9.130235719958712 0.2216396340258054 0.6371887831519994 -0.277553928694922
Ni 1.6912666174201056 1.1514067371705299 11.4538119268719 -0.6861055634573603 0.680248590455951 -0.641334944109889
Ni 4.209888887419307 6.782582744523202 1.6406784623391872 -0.914506170356083 0.4752954159468911 -0.1528309998925239
Ni 5.647358738637464 7.781992547371274 7.91244644593159 -0.1633241861143639 0.12007617405900611 0.1601478452689113
Ni 5.25999136632987 2.7195097944949755 5.009825803194607 -0.22361809790841486 0.5341109434232028 -0.9376916073336109
Ni 0.7397292262179659 7.41115931309686 6.901729455171891 -0.2722327735923247 -0.5112906030945775 0.4824960474603883
Ni 5.045254811775786 4.677719394678562 7.069846047773019 -0.7037754699332975 -0.8264165765060026 0.1917374471497343
Ni 8.213204669362494 7.01198827821517 9.225675089692361 -0.6726916040442995 -0.07194460865910189 -0.35514776522000124
Ni 4.4626134125171975 0.40346900972737215 10.40208126336047 0.46345934254391147 -0.11143161101013067 0.5842312571183615
Ni 8.080517085342546 7.206451366516035 4.508430545206525 -0.7455147586536128 0.01738194292187329 1.0768715921016034
Ni 7.133277668986087 5.876602084599405 7.087768692983809 0.4769064691877528 1.4656720123790434 -0.8355715035323933
Ni 2.198463690928386 5.313170920919421 2.6477552396027537 0.23255936626210272 -0.2587527368280189 -0.33705799759782595
Ni 2.475579448536259 5.060103999502588 11.355655912660321 -0.43753516647898194 0.4365802587648803 -0.35651250677801183
Ni 1.1225193003670557 3.374973484535122 3.8018615014352672 -0.4274690404922315 0.4669071918831959 0.25678018648268036
Ni 3.728641850715146 2.6792331748719165 2.675779477265313 -0.6533972745910618 0.4013666869782249 -0.37645809666200325
Ni 1.144207404043276 3.26837109376098 8.159728671644173 -0.6977783718095982 0.09099314065012072 -0.39447278807186903
Ni 3.7182978777112816 2.563674417228575 6.980684244234312 -0.5379660555032347 0.5108702277277072 -0.04588802078136613
Ni 4.024508311999884 6.89882629480443 5.9985059866585315 0.542793044578233 0.07676157043177102 -0.4191643772812781
Ni 0.8758795182739646 7.28959059901312 11.161968622334747 -0.495581676999753 -0.16884151638816727 1.2621877091060263
P 0.13163877003244934 5.4416416239587 7.938043273901432 0.8148288716684031 0.4264200304024269 0.5609193218652985
P 8.447475834955233 1.6388889910512365 7.947657402120179 0.15834318796000474 -0.4799002617087541 0.912212746336216
P 1.895785344982567 3.102164712202377 10.295182429457558 0.41958295287593544 -0.10214504350188215 0.19273606361757775
P 3.8607888089683424 6.207032553238518 3.8027454245639074 -0.22135424157490266 -0.2080536678112546 -0.027193272585340263
P 6.986677981901707 3.940062567233147 10.431133591022801 0.04224245360897887 0.4635979250043048 0.525093827526257
P 6.183335123795867 7.8964340117633265 10.15386285402846 0.9134877563938978 -1.1357781366298245 0.46602530349887483
P 2.3992971528474847 8.415281570545124 5.7067419739005 -0.022435189075064588 0.3341657636516955 0.6141380719801229
P 6.919379084370471 3.9551460261255413 1.5241519845733589 -0.10839770927981332 0.019178372700663745 0.6545043916123116
Ni 5.373090276734487 2.922938260094486 0.26424706227327477 0.3389642134816033 0.3208834447204925 1.1760683516084391
Ni 1.3712882469382073 0.9138737961183839 6.943745988720949 0.31319353227540253 0.5390027242978652 0.028716908318718287
Ni 6.749613583180747 0.7649232879915757 9.161609134246302 -0.12059168024284392 0.004411241693818209 0.06273414580442745
Ni 2.748144939273965 1.4474894487619687 9.008249822991628 -0.5967607570439399 0.44548913121873596 0.5550425513695473
Ni 6.3290698096534435 2.0327528829893065 2.5096668041729466 -0.21188358308030608 0.01999289818215912 0.227431301006918
Ni 4.0622890426664355 6.843222934693938 10.38538583864021 0.22120948846692226 1.029389230249924 -0.07770490818164683
Ni 8.142499829500716 7.138485697205803 0.3928222862941268 -0.44764011612346777 -0.41708229794126883 0.1449456836071762
Ni 7.511021902645488 3.7998692954847844 8.329757277373716 1.1225220429508669 -0.37659976444619014 -0.7705542181207439
Ni 3.04794895822655 8.393899821470063 12.430503733958087 1.0182380987291109 -0.5527473275774674 -0.10218026761519176
Ni 0.3039506185835765 4.699749894673725 10.207537081194591 -0.9094017592499822 0.14270239609895424 0.0896206857826263
Ni 8.637920271723239 2.222467474972196 5.869636121594799 0.3857886300343098 1.086714032113322 -0.9101157545978712
Ni 3.8704029371870905 2.851305345999783 11.615017520088044 -1.350636228957422 -0.6205221211295958 -1.005993477033803
Ni 1.3278669874385376 3.34064374834634 12.50360354596658 -1.3604385597598248 0.045669991233289096 0.620100460211145
Ni 3.0622845514749364 8.23522615892821 7.900722075136618 0.11340030470072728 0.1146837993988412 0.41302175471865
Ni 5.447119965061793 7.941323971262674 3.509728061069955 0.3179282187469105 -0.27354557886647723 0.9055245356827631
Ni 2.9724866116173505 8.421823142322829 3.512510481682841 0.4677597696914783 -0.5999080444236701 0.5235781622126788
Ni 3.4045276931175907 4.201941688648046 9.088035373648959 -0.4267691862117296 0.3570424111395528 0.2749139199689136
Ni 7.266929368956745 6.153961123802316 11.396880429461088 0.69924929992817 -0.35884783977940776 -0.36623179094830477
Ni 0.6010794410336815 8.938490177178723 0.24939066620291678 -0.5075509335464871 0.5496997990003952 -0.292240069952187
Ni 4.530678196551334 0.30818191625135927 1.5345707441416236 0.31165087037863104 -0.5602680614345448 -0.02405472695635857
Ni 5.735958291378749 5.442641781627192 0.3274011622594098 1.3361223516119636 0.7101338080511577 0.3530235197881469
Ni 7.977248553463376 8.834915290698394 11.178848760858648 -0.15411063793589588 -0.10525145034134777 0.5106660821367012
Ni -0.041424548334463816 4.791349920420486 5.777823449713115 0.5019680401420711 -0.1290009873524617 -0.02098945776747353
Ni 7.857842342446647 8.877642747130732 2.507478170860544 -0.26252763048941885 0.3041334789556633 -0.10573250374282435
P 8.495528455190083 1.692528077542528 3.674784711831264 0.18958003448709929 -0.25833904632936794 -0.7861705845017621
P 1.8790079253543484 3.310125423813163 1.5138395480725555 -0.7490196864830778 -0.02062153290509352 0.7420597102254769
P 4.732385670126683 1.0096276298396931 8.218572182183403 0.4339793308069235 0.38409401594070625 -0.36373370711679937
P 8.60934819995037 1.6218863106868713 12.306566177973028 -0.4019917221567335 0.03778107540351558 0.9909844052194804
P 6.234712592496244 7.668938689113886 1.4578838801707295 0.9343640856222748 0.25435743597380067 -0.4742623466966864
P 1.815871846227105 3.278651993758723 5.953008724214532 0.13213387655448858 -0.5720200597641504 0.0575420600805267
P 6.868434116283495 3.9570832684564037 5.993217765616747 0.008190249120276218 -0.5645672030305309 0.0623569649706668
P 2.3644628326097332 8.546076964381438 10.184484798500266 0.47234918883437355 -0.8175066756108825 -0.6033687492787608
