# total energy = -340866.60633860924 ev
CRYSTAL
PRIMVEC
9.29969371176819 0.00000000000000 0.00000000000000
0.00000000000000 9.29969371176819 0.00000000000000
0.00000000000000 0.00000000000000 13.61104177461757
PRIMCOORD
 96 1
Ni 4.116155976281347 4.618469625488465 13.401798652523256 -0.4002176609754462 0.3027219433201173 -0.38621389049718646
Ni 5.016087324335052 6.708306067216029 5.990573385876528 -1.159704565538435 0.03485567422660449 -1.0022977733497707
Ni 5.39901150732006 7.332185310943743 12.224662038139234 1.0019555595190033 0.1333520652323058 0.7453070135181808
Ni 9.150665993604871 0.8411907635042938 7.063095887203551 1.3364694505387371 -1.198584273322768 -0.11268990889726399
Ni 6.8627181794727585 4.382127212763066 6.250326847228467 -0.20317062868734043 -0.865248975992168 -1.5050050056507112
Ni 7.814383722930232 8.577590975922599 8.573363335219641 -0.5709957322646941 -0.25824854349809073 0.19572008594656615
Ni 8.919931296110187 6.41778363967446 1.5501482539786153 -0.7682641365349866 -0.3583595872890796 -1.1266990571466917
Ni 8.651179451247069 0.454725257202773 4.48908484860305 -1.2995964887717877 -0.46636366067490004 -0.08873262675071815
Ni 5.860081015485345 9.15012661137704 4.241540954956595 -2.2853049903043092 0.5771167575607674 -2.334403547603173
Ni 9.256505806276145 4.286126475902899 4.605867610713767 -0.6938785225345598 1.2506331714992074 0.03900466339797154
Ni 1.8028943962155561 7.56259451916301 8.66130495762054 -0.00046254145871533244 -0.9892337410769609 0.0022000929751123397
Ni 8.717625761899582 1.3489670527222282 9.48377915781913 0.44597069884084484 -0.37507484316123146 1.9810555545960722
Ni 2.5793072140961764 2.236529808310174 13.100423482570003 0.13749102710134387 0.7054497723119271 0.8935465373852804
Ni 2.238715236302244 4.108381432445728 11.670882954672905 0.8788079456235252 0.5559282964086103 0.6239283185976674
Ni 8.831881797263723 6.407851566927519 8.955683968091096 -0.5578563666692586 0.2802543583452206 0.00538800378479072
Ni 7.910905242631062 6.73407551813529 11.119281859443777 0.001208675596120499 0.32058622519504787 0.9226853637327659
Ni 8.379777193712716 2.681110959752308 5.8958271776807445 0.04620478069083655 -0.9548506356114008 -0.8555083516656363
Ni 3.7499247432783207 7.93885082184881 10.729353147251844 0.2576602750947885 2.4702020174934427 -1.0311735758438563
Ni 6.215282811898605 6.135110153517176 1.5689178255377432 1.088863731466473 -0.5204229044131489 1.240956824751708
Ni 9.229406499174477 7.427014286412416 6.609984126837476 -0.05842960489180259 0.22088475813765182 -0.4230115189415102
Ni 3.3715295110683674 3.197327650866425 7.985366959183002 -2.006415116406783 -0.2266365730197645 -1.8887400955901024
Ni 5.269708567738179 1.8672668751989987 8.294500863492784 0.7115242606407811 0.960015724752108 0.39118203313573924
Ni 2.8081633734870373 3.457700471811011 3.825478243856937 -0.4654576039208629 0.6354139506397638 1.762219194347017
Ni 4.235759335455872 7.118469052706456 1.0880083510818956 -0.6219393131920966 0.8077148863314413 -0.6306268136637655
P 0.3973535875488213 8.423141664891537 10.124750308383549 0.4070544813916215 -0.6473520968382465 -2.4470934565004367
P 7.488206270190378 4.603794709014054 8.292608375848587 1.0202548720488234 -0.1636417173547827 0.8349804069156137
P 5.445491375849278 4.365955045621748 11.641265290548885 0.536950726864843 0.2624708091095544 -1.1360889830020242
P 1.6699366770554465 5.422679227489501 4.196515558503801 3.041278996618033 -0.384801326420376 -0.5833568249332083
P 8.88675928909864 8.543600595875722 1.7771119257252792 0.8969686756929519 1.0006445540170636 -0.37524376463892795
P 6.0175527269309725 0.33703856487576245 12.916756394239 0.677073278051763 0.7848690920815192 -0.9176385453374777
P 2.1223574701882835 5.304694014998466 9.497893302770471 -1.3296115470766392 -0.5459421317301759 -0.0998945569048086
P 9.199628880320823 5.852845853877556 12.715734217742888 -1.4470176305026499 0.9179365361938707 -0.1752337930677563
Ni 1.8385401217202564 0.685954698396086 9.148688878749066 -1.1072172942729965 -0.8049553213084331 -3.511003860455683
Ni 4.321539709068017 3.378560079417325 9.961063611716218 0.8038494898387639 -0.959807979616676 2.2186321715671085
Ni 4.339013833310995 9.420961587602813 2.3387985386454697 1.0493499896425669 -0.43316172000163466 0.10576952762834688
Ni 7.328642127688513 2.4110013596260313 12.574315637360712 0.5736359981010185 -0.011571763997999425 -0.6337717870506504
Ni 6.968223203175034 8.342150633474779 0.6923947362025055 -0.9534560692567192 -1.8013200170032202 -0.4453986283874587
Ni 3.3126066525247255 2.3929599540744744 1.9456577122898728 2.7889416763980552 -0.5726062712849235 -1.2981628416490547
Ni 4.64229544044882 3.2247431475499253 5.888517618524288 -0.04696094213057074 1.9280026406351505 -1.193197812199874
Ni 7.447845600038956 8.067205192685197 3.1650437645920793 -0.38676616345623066 -1.7126897201583213 0.1123088714087614
Ni 3.6894023374383544 1.2671576482701414 6.473914730204402 -0.22099942933864522 1.6980202910716047 -0.25595537658853984
Ni 7.1437177207850535 3.3245846578599854 10.051386885643794 -0.41118341595833063 0.03761806746309005 0.4028895513806545
Ni 5.655841145009418 2.42107292777672 3.1569995296425444 0.936492187708871 0.35527632037806556 -0.1962186228495395
Ni 3.5242118803186075 8.609563322461906 4.758148233201209 0.6786547636062699 -0.49659906252067376 -0.3912730501876487
Ni 0.19134584532271348 4.756049292359463 10.701749796757962 -0.705559558416914 -0.2263964319845004 -0.005310356469319887
Ni 4.895730689980282 2.3839299516051122 12.32712606203978 -0.5432051924149871 -0.5369676961457075 -1.1130691250680829
Ni 1.7835231344815905 5.666954278841433 0.12039290315974419 0.856165525633661 0.5597371286317392 0.17943728962614258
Ni 0.8805275373921967 5.239400866350279 7.59960264977766 1.562416967911277 -0.4468860115662626 -0.42797580492532106
Ni 0.2782561317052276 3.762767620116826 13.270656233550604 -0.5086135704830467 1.098345188594347 0.7658447284602166
Ni 0.43020847500918025 1.365855296269459 13.239555268300048 0.6707879592636835 -0.8495014833499241 1.19079794450913
Ni 1.1049430930970428 2.0044373555523327 2.0227642616968966 -1.9517426645645677 -1.259304216910644 0.3171075226178281
Ni 3.908661213051274 5.698061753877495 10.542772464921203 0.2806523651145877 -1.4904762159069171 2.305359337852023
Ni 1.1706547279564772 1.753578121143439 4.57867251676819 1.2680277128265711 0.9639106889311398 1.1161171678657875
Ni 6.77247395294064 6.376297706599461 7.3252858682743085 1.4091936176763409 2.365248558008488 1.139764117860766
Ni 2.1385761357975186 9.076770628392152 6.797449210027889 -1.64760815716764 -0.9280535700232146 0.47769348386542243
Ni 6.802995547280954 4.981148375542681 13.176835344866356 0.8798685256775556 0.2357817298541423 -0.2905467414101641
P 4.117309138285674 1.609730460797312 4.219151012685497 -1.4487559533499952 -0.4972562364886985 0.28386778672809176
P 1.7175418085082408 2.2952666729821507 6.978517034002364 -2.1639057265585055 -1.1443345108402678 0.06904774672728109
P 5.92689931388119 7.932657225922347 9.757728601425944 -0.07904085338425097 0.04549464199768939 0.4096703217479138
P 5.0772049105643475 7.152282738575251 3.235793973434933 -0.10620738649671388 1.019014571883819 0.11931924128832354
P 5.214663681418762 4.14040027745295 1.5507192551646285 1.1933906449369707 -0.7960950427043257 1.0954948636297455
P 1.33384575095582 8.670467015738785 4.820078612649683 -1.5609082445762343 -0.4907076367369033 1.8966210410000752
P 7.183018225867981 1.3360125795607236 7.68699931013458 1.0934107274072074 -0.2552215837463088 0.2295403769301208
P 8.550593965450346 2.625071006219482 3.411348939053242 -0.5070261713912687 -0.975787642874384 0.15085202178928214
Ni 1.8210194990093627 2.969578155011974 9.665431932519995 -1.2299728149363784 0.5171871710846705 0.4560478805711888
Ni 6.282761388538862 1.576084169413016 5.645098138982016 0.2572751238412279 0.6443793873631677 0.527537146860427
Ni 2.093268028659794 9.320617893839255 3.032648676893758 -0.7605454277344902 1.0031873750435756 -0.7509747533269197
Ni 5.7816381001104045 1.9495598637174156 0.8739582338449698 -2.131419838115658 -0.8416727313341247 -0.46461633896649013
Ni 6.5821371243717115 4.50510636070832 3.843703783341443 0.7424410048242955 0.6502607858446092 -0.29865882899433727
Ni 3.5161025475139898 5.449787834284752 2.5760123326596216 0.5297382682768038 -1.2349152465433184 0.1501557670532059
Ni 3.7528076482891364 0.21896686523440417 12.941187619251627 1.4211137661526945 -1.2459483644290283 -1.7480341610958863
Ni 4.10041159504486 9.203869540594798 8.670859462808 0.3862534854858703 -1.4478164722548614 -0.9197481354813128
Ni 5.179957224965974 4.506380418729228 7.916930514103668 0.888676610887489 -0.6034898482376574 -0.37361599922751787
Ni 6.118231209663528 5.732693812781617 9.619930391755739 1.6120307742836621 -0.15895382496081012 2.358740067466009
Ni 2.2931370431515803 6.705776550561378 6.0273229850095635 -0.1182360355264738 -0.3397607412409697 -0.2209215249128582
Ni 9.040111236286876 3.131234728570076 8.100216314997754 0.7069798358032082 0.45831636489039124 -0.30890287531984867
Ni 1.799565105912743 6.893323471055322 11.169506714578981 -2.325327296333518 -0.8361505159643148 0.46156032574898576
Ni 8.757288955032259 9.154776458168678 11.681417647564043 -2.618178260396826 0.37424489106076836 1.7756007578602453
Ni 0.2993813156489994 6.925863098903209 3.949271114990727 -1.9451446996320754 0.5784539883149521 0.7081766843247869
Ni 1.6253074475493008 0.6888589927021435 11.350125363353387 0.5017921766858391 0.12110230133067529 1.3790916560846378
Ni 1.924469290429735 7.093917861646606 2.231108086951123 -0.07673123141446785 0.22642548545022295 -0.4095749338206301
Ni 7.928695556455871 1.0611601357069753 0.8480018590846858 0.4477591581998353 0.15051495016483757 1.4250113014348877
Ni 1.0119740563450237 8.072310724462415 0.07127099168351737 0.15393785980345745 0.5370000920455396 -0.33864539668960386
Ni 0.03851375100578288 4.124590798361379 1.9673808665310493 -0.37784674947941377 2.0891498737028535 2.23972601612293
Ni 4.31556000609397 6.560245645676678 8.53842438642727 -1.4150989274171821 2.21245303933959 -2.2358467356731815
Ni 6.478027054706927 0.851961668612445 10.521566373643257 -0.4838003680941087 -0.6840525375830735 0.49891356958646327
Ni 6.986348305968842 8.543730791585888 5.9350672347553814 2.2124661519657125 -1.5164279027756724 2.2971639465254245
Ni 7.401644722317237 3.3982382310395387 1.461267362525805 -1.2278298004514467 0.2074198908819976 0.22316275553855117
P 3.13328996085198 7.31066581999204 12.858799773858662 0.4631376975384346 -0.35031820504184186 -0.5281022753352776
P 0.11818422593371593 2.5928475679534277 11.590931628998758 -0.29936613947400703 -0.7456132319046901 -3.649045360743857
P 4.904063215430898 8.938930570100823 6.380516047608836 1.1593762356647386 -2.1240821668036642 1.1400235421697398
P 3.5013811325716624 1.1169861962873864 10.35764904457506 1.4790299217431881 1.597444391829055 0.9978374235855719
P 3.389589516007091 4.962948875200207 6.725379374665567 0.529384741592127 1.0935199992915619 -0.7208931034501908
P 1.905265423180268 3.86040510304765 1.3165687802168082 2.7914806407698247 0.25599702845975264 -1.1586730389501272
P 2.6149157408265435 0.32711393188368937 0.9951220816027677 -1.6512359837282145 0.9896911403293536 0.43496894841370254
P 7.726789909069346 6.166366423650569 5.2699912784231095 0.06476274619868201 0.5394156434655678 -0.2902361521482808
