# total energy = -381166.4658384785 ev
CRYSTAL
PRIMVEC
9.25373482247811 0.00000000000000 0.00000000000000

0.00000000000000 9.25373482247811 0.00000000000000

0.00000000000000 0.00000000000000 13.54377629454293

PRIMCOORD
 96 1
Ni 7.756184174212073 4.919192745570573 3.3691089260521827 -0.7917205677857139 -0.12117017845413325 -0.4438801348604033
Ni 8.807389910797273 1.5738566635586673 1.6469500619647939 -0.1743328785200417 -0.23049605597517078 -1.4954775257762503
Ni 0.6098877332547055 6.821325642032636 3.5608213206943113 -0.5767472900364906 -0.735176095731766 -0.1808082018317402
Ni 6.1916737825415655 6.91908209374205 10.48641711818099 1.8078426486130865 -0.0656466914655321 0.09237176616520221
Ni 5.84703694696662 0.6536504946541907 6.885059813322244 1.015113694167516 -2.0274336276399794 -0.8957759409364314
Ni 1.3273926977475596 1.5390626216779972 11.424784666499031 -0.7516702367320474 0.5230531429471443 -0.14566019317569753
Ni 1.098992021763864 1.5636868092962053 4.499730212483103 0.5126550875422718 0.4701827773106741 -1.432256413033075
Ni 8.489681442741677 1.569387109774528 12.316086795559286 -1.4857590129369056 0.0031220905687494613 0.0706955667433492
Ni 0.9702355593362995 0.606589702263676 9.053919578123633 0.4018497972622305 -0.8357805342194057 0.259852654760417
Ni 7.8145197167694525 5.106479078980914 6.84981881606316 -0.18889972059062304 -0.24970399636218932 1.2091427655649045
Ni 9.084631797697504 9.113966136197963 3.285719822593813 -0.6804499078334797 -0.29921495860812336 0.19035676475212376
Ni 6.271181869732713 7.4494506353241565 0.5715402573096267 0.9515868772584644 -0.3529551284440567 -1.831575473453652
Ni 3.7423305476296247 0.7538878725945113 5.270411762525763 -0.29901749788533666 1.124261908460109 0.1826542539015435
Ni 8.057976218854172 0.13235801591159543 8.164960494649598 0.47952822308131604 0.4381149502418519 -2.8864548775548804
Ni 2.9465001232201833 2.1487911906985677 0.42040271251701217 -0.2958457850255744 1.6725887383723772 2.056527459682142
Ni 2.7077167570795426 5.745310643138374 4.259842875811514 0.26162800149328486 0.16990081089061707 -1.3713544353413802
Ni 8.793231696946894 2.399215754893964 7.691889226609176 -0.6016499668154414 -0.6306131868170106 2.305672241106752
Ni 7.255353553290366 7.19580577150789 2.698597201687681 -0.6623719672858464 -0.13595402163152714 1.060482866330935
Ni 4.7141855105109025 3.490221803747451 6.73545561234336 -2.8701666819178184 -0.9464405571708344 -0.4524246819963047
Ni 1.833405410013197 0.703447616348991 2.1188831206564602 0.05052963331843556 0.6064610150508394 -0.5963869186442889
Ni 0.7422115103484929 5.768380203353404 8.031405045488173 0.28499110169925757 2.4777150380410364 -1.0939316329076838
Ni 4.030343781537596 7.991367837615591 10.29612702253808 -1.3707689951515554 -0.09921321456706783 0.28315379138020264
Ni 8.534016084935903 5.468429651885309 1.1460592917685584 -0.09277620069247249 0.05445442229413847 0.18449387821344357
Ni 3.9521312171824303 7.7229169985309545 5.200958783288747 -2.057487509602566 -0.15695479225291034 -0.28079223312656154
P 1.413193324427765 5.6982739104576705 1.3068743921459616 0.28577528816344977 -0.2256904070564113 0.37581763486452696
Ni 9.171838992028205 7.689603554177121 6.515734939360747 0.792592685978022 -0.16600918914569474 1.9759493437177582
P 4.09140917578508 0.8226597769691824 10.00150939828696 1.0350130041946046 -0.5282120614402646 0.8411844788437965
Ni 2.5032369848888076 3.7014660558889227 11.623877839812444 -1.3773170806827184 0.9613490988515506 0.5856962716996622
P 5.390827834009963 5.491832346543876 3.5214087399033644 -0.2714460160249712 0.1139950008619327 -1.4174712843041006
P 0.44210549614008005 5.45457681127484 5.743197090168814 1.576413282190369 -0.41263274681034745 -0.2192438801001192
P 5.5192511619939895 6.045936717228089 12.385444461330513 -0.43865848145014774 0.8443852451692813 1.4113849689007048
Ni 6.034314026642417 1.7952892774316864 4.95890422198725 0.5699048131933605 0.6449404020729602 -0.9321202838934205
Ni 5.5028720518533545 6.3066699417040875 6.00826291315772 0.47973056890010934 -2.529527651836953 0.354603462680757
Ni 5.9440716073817015 5.113604454578816 1.0602503367272647 1.4913527049745994 0.5638226115550226 0.24541102541379026
Ni 7.956259168760469 6.8135987736894545 8.748032755946376 -1.8596092396624166 1.2756888289162545 -1.7853974322356927
Ni 0.9382268915529918 0.6887748948580362 6.6086850013486655 1.6811931922119367 1.0886780978182282 2.7404416719151383
Ni 4.492151403892605 6.906867164145645 1.934864280913158 -0.35776463401755804 -0.6323173139923111 1.0088522866388367
Ni 4.636509662759215 -0.12189019139685771 1.1318326002825632 -1.2985348802764927 0.7675920501686264 0.2675811337529263
Ni 0.025951173151635875 3.863341634244923 11.555725935652134 0.031107262927765778 -0.0996202201974994 0.8457870106128144
Ni 0.713543440735111 4.167641440948102 3.521679874325466 -0.19431523517923951 1.2913383625280532 -1.7588294519391772
Ni 8.328573924352723 8.303385258927408 12.619955378232774 -0.19594042948748835 -0.1254387239225001 -0.3608342740818173
Ni 8.951137423184063 7.750567157344635 1.26599046756272 0.5539668018068653 1.0663832909757698 -0.4267745855283683
Ni 3.631609613825844 0.11806839903070965 7.8803378290780834 -0.08398199943961021 0.8606361598105048 0.38372223442358433
Ni 4.3387985150504615 2.8442556102575445 10.969591613595167 2.4552898762683006 -1.0995998869370547 -1.1635028562386025
Ni 4.228614297850159 3.562188097286273 4.361542343809586 -1.4521742350029248 -0.3989722186041193 -1.6810224709620274
Ni 7.691334002536612 5.740859596823321 12.1340852699463 0.03332689628690389 0.21350157829970326 0.6200521234717128
Ni 4.820131517290634 5.190715824523397 10.488259536728448 0.823680408521762 -1.0759727344364178 0.7404568845147311
Ni 6.675468278170104 0.49354145422239815 0.28963541357331224 1.7442425552639378 0.47003031089320985 -0.1681807428757168
Ni 5.76643691909943 8.7979973702364 11.90101053264507 0.853566397447917 0.5177983223061082 -0.6091568167154477
Ni 8.276651219833457 0.26140041873653025 5.53172519615759 -2.050913198819158 0.9833567134708935 -0.9527407883572494
Ni 3.3189906997687495 5.568249686397752 6.403740691683886 -0.5168732393886776 -0.3209562069399569 1.5062316789689607
Ni 3.9683252526322104 7.869135258040652 12.871760599621945 -0.5893220413777076 -1.750261507764508 -0.6253095152159102
Ni 6.345480104376303 1.4430736332662446 10.464272931420235 0.9661048683689812 0.4703478421336286 1.7663514713478357
Ni 8.449224115320854 8.795915279964285 10.218711204727043 0.20271914297221863 -0.19402778584580777 2.0373627138282333
Ni 4.915583789098908 3.9138207561755225 12.853571459004753 -2.173501854887373 1.8747916038298098 -0.3962525056801111
Ni 3.8505344656377822 4.485840356934463 1.786017960793324 -0.7342088467224903 -1.8483969158863651 2.6701446261617887
P 1.7768558382225654 7.463812431334476 9.331254927742746 0.6056683439462149 0.4780128148780542 0.03750391048272896
Ni 5.994643266657729 4.563710533111547 8.286203850001918 -0.4677497423891493 1.1195524187995816 1.5629962374535147
P 1.2370669948759587 8.65953374027351 4.992683129188582 0.8075261673594029 -1.3435790650003248 -1.4812441557856877
Ni 7.973332308991808 6.572862869560298 5.112450513881337 -1.7138438883674225 -0.15149145514549395 -1.9806781166519956
P 2.3492918570359285 2.8657150206621385 3.0320453468270094 0.8265281623832024 -0.6227569239973855 -0.23920026861738805
P 6.171269297874843 7.722010132545766 7.271287558799495 1.2025504570593677 1.5150338506416232 1.4989467152717733
P 5.09027578979659 8.984117733094356 3.259811216621074 -3.2259482240670763 -1.387948078034003 0.6247749828686788
Ni 0.15555990453058582 6.471747312211873 10.391936488499702 0.875066476303222 -0.28244390979737166 1.1155512680599884
Ni 6.472348804957151 0.9873642219748953 2.613095470633206 3.0671365811110856 -0.39845774086154606 -0.22821163081636825
Ni 1.2051045957653648 3.8416416267422178 0.04796488225533955 -0.4795354221701677 0.08858633098084098 1.054846493980764
Ni 2.111887297342155 7.652690407086166 0.7536435740025832 0.06830649768588237 0.9650278332547186 0.2595058129439595
Ni 6.162903921848213 8.083285182828542 4.78448798257894 1.6336031011377994 1.7487658970555882 0.268814234829079
Ni 3.324385627007162 0.973631679913482 12.306051120447695 1.654504112956525 -2.3540976835979905 -2.138579846199207
Ni 2.0492950368951197 3.660555295475507 5.209722069900714 1.580260423850601 -0.5058714889615352 0.06747526003383862
Ni 1.4953294722290489 8.384744093027102 11.766954456444886 0.31893274875202493 -0.10915772737428941 -0.11679930307994724
Ni 2.734959751573344 5.959118179748183 10.981875946200642 -1.2856323132822118 1.0573558906661789 -0.3908418761875011
Ni 0.6508345832328375 4.079851261341209 9.37245533004735 1.829090245137953 -1.9669101163336253 1.2094037325357752
Ni 2.6456149445632726 7.910573481323003 3.1115608370057917 0.4162973401461282 0.9092325806619697 0.7313970883053081
Ni 6.230557975090122 3.146898998477574 2.6280744907375255 -0.4229349000673039 1.9153759530100756 -0.1736523075132493
Ni 7.8145937466457935 4.6343905575489295 9.769369288174547 -1.1777580806060362 2.208308421043597 -0.8550944040566691
Ni 4.561970831017514 6.587298695446959 8.420788314444495 -0.15922301946179673 0.33772494175786355 -0.391129582631249
Ni 8.317682278795928 2.5172193777828746 3.6487068137669945 -1.4998316889798877 -0.7665021595385574 -0.06851218593878523
Ni 2.6102564248754963 2.2351377877167944 9.631533986787108 -1.0746383318957105 0.4404970773207833 -1.9409293759991475
Ni 5.223483298539209 1.9344746986889092 8.506019836450323 -0.8022543774375023 2.066243915638957 0.7879281906228172
Ni 7.72595222346097 3.4384008903081553 0.39122568750378006 0.1273541957776581 -0.44323813040103016 -0.26120119836851147
Ni 1.5612160621732962 3.779326978331465 7.329132653426108 0.5517721081483916 -0.39731591394761895 1.089745105630162
Ni 6.107640619159022 4.289688945832186 5.1120035585029235 3.3787622546787364 -0.26560729785600706 0.10246540295577837
Ni 8.983830867323531 3.3085432334700062 5.700900120320897 -0.6222535019984058 0.43619099374626163 -1.0158055780282185
Ni 0.7307229989136917 6.282240082511277 12.761311725613721 0.06743952169989675 -0.46457365865401284 0.09137983456557812
Ni 4.190461150330477 1.748104484998299 2.653916469821557 -0.5142581703633337 0.004798449829907865 0.2867062846181514
Ni 2.2595954081132335 7.729015209594614 7.044659898354187 -0.09059410543948913 -0.5942315628641831 0.36005085894857347
Ni 6.900657908267473 3.528125100434479 11.478729312015883 -1.2173106460876777 -0.35268053462643134 1.5567638833905577
P 2.862679795732123 2.1226216294117233 6.99768979256219 0.5365126108861599 -0.839735919322728 -0.12844382929741102
Ni 3.6219672224323176 4.266591624413528 8.909528931186124 -1.1884872940980822 -0.2362841234118576 -1.1557422384565772
P 0.8457219341965775 0.7319852083053203 13.554475223727948 0.8088263742280651 -0.7617456186901784 -0.053557878621798075
Ni 3.2517808257848917 5.4890007037738 13.506381714562464 -0.8631033904040749 1.4140563450852808 -1.7399346719172033
P 5.8909736785755085 2.381763211546373 -0.007077256178280958 1.1943596937184593 -1.7064329406153322 0.9201631115315443
P 6.781312493869866 3.072184345779561 7.026618817489677 1.2189399541609847 -1.2444522394994761 -0.9375753934707207
P 8.106262205698144 2.550319986242225 9.940792869831737 1.2487033014663462 -1.0993160371480486 0.09392831201904468
Ni 6.207766026911375 8.88320575790587 9.270254309637062 -2.0602630154651744 -1.664034421044463 -1.092032873223074
