# total energy = -340886.40655119193 ev
CRYSTAL
PRIMVEC
9.11740416346790 0.00000000000000 0.00000000000000

0.00000000000000 9.11740416346790 0.00000000000000

0.00000000000000 0.00000000000000 13.34424259457229

PRIMCOORD
 96 1
Ni 5.0797435186062065 3.027452301435576 9.52147753134349 0.7741529912155958 0.820299407864671 0.3560821041088125
Ni 4.529690522853709 0.5039964284055102 6.533034043803606 0.09476597742899164 0.6375667353167084 0.5671349637577071
Ni 3.9383721556645166 2.7741708125908153 2.919560587022568 -1.0559610672011814 0.7570736671358058 0.07767636893655654
Ni 4.959174965385072 4.915630242896858 3.3304564658585853 0.3646842439555268 -0.13315203340635778 -0.5151986798997321
Ni 5.069386147428105 5.0364449660315564 12.32430252187316 0.2285178492028774 -0.5048685016183176 -1.4290304498966098
Ni 5.976376400444229 6.079184250271928 5.400522062528959 -0.03727019720536807 -0.16812006484111044 -1.0004306382340447
Ni 3.15557006533934 3.422017085857672 7.898897780068953 1.2283890153890265 -1.7672552141090276 -1.1609435801518586
Ni 5.5304806303419305 8.280608848041327 13.043636538039006 -0.44380403020682924 -0.7412953212556266 0.10034527128898202
Ni 2.2369551219604715 5.473132157885719 12.203296333250133 -0.4775731562374743 -1.3828984314252377 -2.6651587429114234
Ni 8.18682722837764 7.878002513109472 9.196011729918395 -0.8514022999170628 -0.24837242203495932 0.71470548658224
Ni 8.527298453645095 0.27344645172733595 7.121435753387275 -0.6133312598081114 -0.36914382238877713 -0.9363579761238519
Ni 8.683771344629752 2.381985670666505 1.9258009099176512 0.0481297656276913 0.48954292700484076 0.31195708876514017
Ni 2.0231246411153974 1.3547824431932844 3.0452895910243405 -1.5205349829655104 -0.18057628832659223 0.6018749383420537
Ni 1.6819240235114572 6.402359759760459 0.7849392098710809 -0.7991220024561076 1.3211780715973052 1.147183807363605
Ni 7.686382028910397 4.083621522071495 4.275121656535051 -0.3859642363802256 0.5837370910907624 -0.8078125882515701
Ni 7.235590212749436 3.828562139406551 13.122461056102626 1.770131764325874 0.23027005600729375 -0.7846939999562357
Ni 4.8031852968233375 0.27609232242793885 10.979349552154444 -1.5047869761026342 -0.25151045344330875 -1.4046718185465874
Ni 0.5311963803734934 0.2814779730924673 0.8767633228517229 -0.33264032814610456 -0.7849048304154611 0.2937413370880618
Ni 3.246060302084633 4.513926530981405 9.96004929064705 -0.1680107929567558 0.9982824815427905 0.6948974507173774
Ni 8.8989147316805 5.085478365851827 1.72687829668993 0.1630094830874225 -0.9178581175474516 0.3609234913615139
Ni 6.389048349619589 2.242033516103255 7.415168429473128 -1.2752846514993006 -0.28326357748518954 -0.5083664874692471
Ni 3.4417106789427936 4.679717409064671 0.8722420021059303 -0.5238165034757302 0.2068043687851858 1.0426160133528433
Ni 0.5400429976746478 9.100947291482914 4.682828267379784 1.0334369179567364 0.6983802670596554 0.43622981740399713
Ni 6.543725111975649 0.9595065012431141 1.0516287533412947 -1.0732733332273838 0.7978163962708066 -1.0519830563900399
P 8.916584261031874 5.517570385986128 12.889630816632513 1.9474350383281491 0.09136543638787491 1.0590690167025438
P 3.826392197205505 6.546843264214128 13.15732965674834 0.24743885447709643 1.0972997780489682 1.2803391832040723
P 2.206566813741624 8.360750831012725 2.320897239004962 -0.24456127581898526 0.33767480524621846 -0.43393227961907205
P 6.812852649330568 7.843310790105357 6.362255033879197 -0.46160120628925017 1.3339263724019093 0.367223979658245
P 4.505967037109502 1.3263270246661247 13.12254128925964 -0.9773573013543491 -0.8470309103222445 1.1544715992742698
P 4.012214012329517 6.443661600813978 8.891508664243906 -0.9650561153894928 -0.2564503139470874 -0.8977515766055636
P 4.698854840493222 1.3298919297107 4.461647335263772 -0.6145131959313546 -0.9823907500131984 -0.6189974569549533
P 0.47102880653676404 5.660959801935068 4.079188640146502 -1.1550197584682558 1.1306618984491819 0.4181500770841508
Ni 2.6290490898427215 1.8093944517165899 5.380051666605481 -0.5658812938562642 0.5214734571648503 0.7046948964237734
Ni 1.9681284589443537 6.916271365240076 5.415533868554261 -1.6816662751936133 -0.9895654133847668 0.1621399359982756
Ni 7.033101782736718 1.069681213669323 9.660204306781443 -1.8571453515029563 -1.1261632392478798 -0.6519877958380449
Ni 8.438248766764362 2.4351127849753027 10.841169820968856 0.6013267791480676 0.8952964301968516 0.6174005447814787
Ni 3.533677935169471 4.093067152828989 5.314611497916378 -2.5400090109842512 1.9648293225451967 0.36126339119943585
Ni 1.808172719552976 6.833895618238189 9.894261748857694 0.38176022560120704 -0.2380748967636932 0.7895626409024467
Ni 1.2253791252964636 1.25270398570207 12.014088314203983 -0.18817029862376625 0.6892952740392516 0.2037082463583653
Ni 4.116188889895595 7.07535183382767 2.1643824079609564 0.06323525381056205 0.2514451474230121 -0.02875958863119563
Ni 5.71335752390738 8.25170667670807 8.468963478053785 -0.06502705560366219 -0.2799635665776791 -0.3217964434530652
Ni 6.8822634475514155 1.170857048144136 5.200264661325469 0.04064528432518806 -0.9910453403644028 0.4573750840230445
Ni 8.237474408742386 7.312021412208961 4.739221235875198 -0.38525641167992364 -0.040296385626201574 1.5564697491889063
Ni 5.083390480288637 5.056557959710158 7.308295129109939 -1.3405536479104396 -1.0181190566527434 0.9319385068999175
Ni 0.9388738155247667 7.6277115328443035 7.546169116586853 -0.4848097831952296 -0.34338445403648604 -0.039084110485655264
Ni 6.060229166927498 1.875741802124197 11.802034815438674 2.1307264115930593 2.2454392644576235 0.9012086819162286
Ni 0.2563722888706195 7.333374372859589 2.62852210387961 1.1355068852463088 0.037349644293051806 0.17259661255522532
Ni 7.347387823124326 6.145586305104772 7.721886112629272 -0.3566652303057922 0.5555179483440692 -0.42904204140630625
Ni 2.307259425793515 5.58938817891738 2.93830870529152 -0.17681862105637292 -0.5050461648467625 1.2287320005507418
Ni 1.5919899484227344 1.5990832888950608 7.877880339893111 -0.6996521917935434 0.07085086137429089 -2.029420061942389
Ni 0.9755348978373938 3.5461870137402056 4.117406063357106 0.5655056556844003 -0.6651698417459576 -0.6693579116853763
Ni 0.6306699954830322 7.5391450683864925 12.195089757724244 0.5228929632201962 0.020605334955177416 -0.04663158381561001
Ni 2.249081269554551 5.434428777030931 7.620149557795785 -0.3687864390493584 1.6463177204909905 -0.3034266826966258
Ni 6.235939780786974 2.245169903150145 2.9274863464989087 0.790189218742852 0.050352227200306826 0.8242661058219031
Ni 4.009706726172847 7.319333570382234 6.75190644917464 -0.1240133043298832 -0.8178270350647787 -0.08854390777867976
Ni 7.740594114319718 7.257781974587021 0.8240127573366354 0.8365996876865914 0.700825129055722 -0.34628954349842295
P 0.22095846745338346 6.059773296717195 8.75775999150247 -0.9539373797685119 -2.3669241459386976 0.09808938537526977
P 8.350539338301921 1.9842389121764878 8.30524316246572 1.9167589494005313 0.048907010113348026 0.9846466359269108
P 1.6484175630541318 3.146945000960393 10.839194991217818 -1.224055163900363 1.5378652467138418 0.6297251277851026
P 3.79344189840475 6.210082822458545 4.611103471971433 1.179567623010949 0.6013925993889966 0.04454976158591682
P 6.438145571269303 4.0446902061115555 10.93604735261811 1.200936061384396 -0.6360073612493885 -0.16068572005025228
P 6.36412136652018 7.8965473132646276 10.584987174105722 0.13421287057070436 0.46395042324771707 0.0567370476807281
P 2.1198511823376456 9.022683493777967 6.595378853764746 1.158472750013863 0.6794042401777847 -1.3409652815265616
P 6.968805848275479 4.07759491789128 2.0941519551019825 -1.1359560569685856 0.7522579909147173 -0.10042857503140769
Ni 2.408562903927213 1.8680558303784758 0.86685361622014 1.6141766169820717 -0.819887260027917 -0.980578379394808
Ni 0.7603249537359406 3.73685928790185 8.640490115123093 0.25324774784938964 0.1914443413893477 0.4144368898986217
Ni 0.6670858196225158 0.3565114744872017 9.590066851445371 -0.26165216986300105 0.17817590641521572 0.5076810313664483
Ni 2.9236506545494128 1.7742833281189956 9.81679845924204 0.08451010402893833 -0.2344586401673446 1.2082292526116998
Ni 5.188568855209916 3.3283631098528708 0.6881561407427548 0.3542224251922545 -2.0652944072414945 1.0258855879720397
Ni 4.028643574708864 7.124585816540474 11.070704118818472 -0.08379790845326214 -0.11374277564181055 -0.42974626656218246
Ni 7.417026556450326 6.594390527148808 11.911364344494979 -1.372775741168939 -0.24368735785446424 -0.7546722567831647
Ni 7.52040880274301 3.900024353573766 8.741973206119651 -0.8963685802151079 0.919930426695448 0.990259611238314
Ni 2.7203963625833856 8.489233291084732 -0.03905075395503931 0.785448361623757 0.6818498735047999 -0.26614388708576747
Ni -0.11032332611476785 4.8998480162161435 10.784016460962654 0.347891083657588 -0.1296663888506025 -0.3624944353930596
Ni 8.51343999925186 2.905889951155979 6.213880221310376 0.9668093506351738 -1.131875973361941 0.6286074692408916
Ni 3.333632969483982 3.050008759441405 12.322273899437306 0.2559674607733979 0.0980446481802634 -1.19157030389878
Ni 0.9101649331606781 3.4401060158025243 -0.08492497321790506 -1.026929970076154 0.9849657098292263 -0.46822616780493553
Ni 3.0616608020167684 8.610440062600292 8.878538245020343 0.9189775758638755 0.0550419193664923 -0.8063480878909016
Ni 5.527936874568436 8.384601960415816 4.452119647868424 0.6084813879149779 -1.0224122847114585 -0.3781329132612649
Ni 3.058934698159152 8.752981559958066 4.505709926310891 0.5012134213642335 -0.31940865994717893 -0.4990925183664888
Ni 5.399208244582864 3.150236383878786 5.103905551492725 2.498783171565245 0.6641647975202111 0.7200402685315922
Ni 5.956983681697906 5.699389660663673 9.5911609399501 -0.34968674210543 0.6665466674888263 1.4081656906324587
Ni 7.881758883642374 0.05243510332955724 2.8990500745205816 0.6792893118664752 0.7345587738627414 0.7579732961319398
Ni 4.293020944472417 0.38487207201061824 2.407795218493061 0.2917320199675169 0.18395266099799287 -0.7826216908082393
Ni 5.8771243382568965 5.777762867219093 1.103032678255145 -0.2818780099915726 -0.1302150622652209 -0.7437718078205772
Ni 8.156931259985921 -0.02654805756724883 11.538139756357621 -0.8422738552532334 0.23968877821803233 0.4834843795155867
Ni 9.037316927528718 5.355572348052589 6.280241247824291 0.8704228068836234 -0.18241436997659552 -0.4866406657563812
Ni 6.9571993927211455 6.377751885808262 3.075034210506239 0.08267047971703827 0.16738678621951172 -0.3000554522315477
P 8.606628987642152 1.8531853441183677 4.205998968287115 0.44117456300378216 -0.33158411896744827 -1.1676839841994857
P 1.9065859805533483 3.601319956974341 2.027563905223335 -0.5122429397055178 -0.5270131560361568 0.008869277465171821
P 4.697642225733814 1.156132440351325 8.694988487024485 0.7325438003152416 -0.6115266024992049 -0.8887822832274178
P 8.07414522979476 1.596658059376245 13.14131675974121 1.8519522373377915 0.5656966886492838 -1.4658995550088174
P 6.212106886192294 8.248260297918172 2.010563593340688 -1.7893420187057376 -1.9864173331286175 0.505108899763898
P 1.503788180133166 3.7183144877466936 6.2387670878312775 1.6661861772801432 -0.4238036758255023 1.9080763340248688
P 6.912241472580989 4.327931485177478 6.420128668817678 -0.3140437960908398 0.07113214006013556 0.41139373219692377
P 2.220689672856834 8.85826934372982 10.962828815733037 0.9961507799117681 -1.5577491301219624 0.056270649567270827
