# total energy = -340864.3120543168 ev
CRYSTAL
PRIMVEC
9.29755810982754 0.00000000000000 0.00000000000000
0.00000000000000 9.29755810982754 0.00000000000000
0.00000000000000 0.00000000000000 13.60791610530955
PRIMCOORD
 96 1
Ni 4.868814915496282 7.996597045531818 12.23944923174408 0.9088489720703058 -0.47475497006238887 1.1016788809532705
Ni 8.724298301305657 4.522648242590733 3.5140268556974954 2.2458172166223322 1.1251525385951784 0.07151189199705749
Ni 2.3547831725428576 7.652857035218348 2.1030759681066677 -0.10937678536363099 -0.8657346573793349 0.7508775656274229
Ni 2.2771206720384507 4.149249022818499 12.125510449877524 -0.666348178324775 -0.33131209625298425 0.39068246779150134
Ni 2.373099361456263 7.115197861368377 8.669534755966138 0.053267343964572784 1.7842332367242626 -0.6239545438499124
Ni 8.841084925133723 6.647753844205737 1.9354400707830122 1.6364804226855945 1.054178778489778 1.146414019077116
Ni 4.775458137384856 3.0928512052905273 4.0679772103667915 0.7522741888646335 0.8904272750300085 1.273741732492213
Ni 3.6553720487620454 1.8428224485185989 5.947285135298582 -0.7606426154339867 1.3364195711374083 -0.13324433600984795
Ni 6.877329141997525 7.949123715282147 1.105194190256007 -1.3527568748448509 -1.467640448959324 -1.2965291627003734
Ni 3.8615175008371914 2.1256169672953282 2.303125941272358 0.05754694517653315 -0.28638489672299067 1.450029163635464
Ni 7.345693617384747 7.917493423564681 3.5038209264740203 0.004096795777192945 0.4667624387752155 0.4762320688285476
Ni 1.0189844448439387 2.566916251856701 11.28202391725327 -0.7666096316506991 -1.1225354126873055 -0.6053780663993058
Ni 8.109320636590768 0.5108887156071438 1.572326739231541 1.3795140883340369 -0.023502196886998235 -0.5293713718556883
Ni 0.2880188165180712 6.840910608000666 4.373611179938334 -0.7498182711249732 0.248205814550108 -0.14505058461615666
Ni 7.490735519440146 6.393707374221013 12.590111273857566 0.3253419947124784 0.8604978344604276 1.3547818756946794
Ni 7.203217841288791 0.48490390100044983 6.626932893214528 -0.495547738438024 -0.006252922888247295 -0.252572576159236
Ni 0.7278676820588895 4.396870880346795 6.481177868474025 -0.6350036025752226 -1.908013084887101 -0.3304752021739857
Ni 4.109232333943728 4.727891831556945 2.3251843972099495 -0.6882686325469501 -0.043724180360827924 1.753314178547903
Ni 7.5098234056529485 2.520233214022076 13.633634763066556 -0.335494509765448 0.31780429157453655 -0.38989313912098655
Ni 3.202013831702862 0.21908765256624338 0.9404172919632511 0.6727635949328156 0.5494007797027377 -0.42079831334027534
Ni 0.2444737044490676 6.02165630033327 8.243566214500865 -1.6500026255417453 0.7218770646300149 -0.4024378085552166
Ni 9.17209657878605 7.96116405266431 9.77169422334837 -2.8014408373063304 -0.339747371504531 -0.7282670273167586
Ni 1.4974460680280948 4.064297236980027 1.4652458360160139 0.7780770088603502 2.033525856580646 2.710960117516253
Ni 3.253977882381556 2.8071930387039856 0.3995737045585379 -0.4644129647064324 0.717848403086596 -2.388736356717783
P 6.777315312484069 6.150883056529935 2.36034776090056 0.4113438527955948 -1.792825349268648 0.23118536873271153
P 5.661515398018152 2.4058081698813205 6.196350903556955 1.6485545802413093 0.35836498660571825 1.0304436396563674
P 6.792953804744144 5.580831191220924 8.219889053746103 2.3259507888501294 -0.5529879828333638 3.000439079783536
P 3.482112058710613 0.4204978584415939 3.556796551443972 -0.09253605965720839 -0.626286791527515 0.5889854839738953
P 7.742755121819223 7.681075123214383 5.795176159541113 1.3369386768656717 -0.048939406013180226 -0.8301215361614154
P 4.867782886577811 5.274067568373758 4.651416629186671 -0.8100113956751017 0.1626868096406811 -1.5745931982624946
P 7.038214082585128 1.5971065903442365 2.9515980580484356 -0.5244487377430903 1.6515882248613103 1.576753182028291
P 7.109424077959633 7.933271379192118 11.29002539551666 -0.7205771148716686 0.6659419440252918 -0.7789265013448391
Ni 5.714939165275223 7.492948338202273 5.5005783911067345 -0.750655679424604 0.370435287506691 -0.7515684210468605
Ni 7.584389819401942 7.638064620720264 7.923657704402037 -0.22543895316723755 -0.4367039288269382 0.053228263196521235
Ni 1.2165296559318257 0.7049938303001272 9.679868753010567 -0.25622534242047484 0.8230263198775308 -0.10386665417867917
Ni 7.867026279695662 5.948056832597979 10.112682156545915 -0.0004964800204443062 -0.09261524963457597 -0.5538958393596137
Ni 4.590557604937696 4.2145643665325485 12.40946623362648 1.5887975147873346 -1.4973693434823245 -0.1381813683001491
Ni 2.5308231323836843 3.9091395920120475 4.827517023153355 -1.7064439963589255 -0.9622394718763042 -2.944199283454201
Ni 6.692066004795226 3.8573335998163634 2.35701365666485 -1.132218444303024 -0.1981459217792394 -0.37966709051760417
Ni 5.478632435618813 0.2493140130522753 2.3260695247148004 -0.4032960427904538 0.6314955894219639 -0.6571251170646102
Ni 3.5632332507255713 4.609208505932768 6.5401820299371 0.9700569110381938 -0.1026582356928748 1.8111568005879841
Ni 0.9254249799719478 0.8960818874792019 13.724399382056635 0.8192393420312729 -0.5176725953615213 0.4511399017466102
Ni 1.0318894551037396 1.6056882362158473 2.868494626705387 1.0406630033915303 -1.1980273723780335 0.7324766945227321
Ni 7.96811862591671 0.5520276197112797 8.860032418223383 0.41461558156833117 1.9832559046815006 0.3115292571991022
Ni 8.0608431700961 3.255158672225212 10.429855325132904 -0.25105022597743865 -0.6918915740115181 0.41593095794564494
Ni 1.564221128320522 8.115912605088031 10.973980950449512 0.8506517949042833 -0.16910531157251524 2.8943772177257507
Ni 2.489737224359146 0.5245226544003512 7.484557292266055 -0.9135517768626138 -0.30255559294558215 1.6277651542997835
Ni 9.170237067221237 8.128957078715192 -0.00418018199769916 -0.21319227458940057 -0.8303601345347827 -0.21787476766673447
Ni 3.061564923212552 6.815240050848426 4.83652542692909 -0.0022479154939122575 -0.8667980656468427 -0.6850226148058267
Ni 5.693610567626821 5.496427961294072 6.607527960279924 -0.6796958032762745 -0.9722150950317773 -0.2932075760717789
Ni 3.2155696710103476 5.370195018716756 0.26787565749223663 0.35707789236317855 1.2009332331709188 0.5274026781650917
Ni 8.844125226542193 9.232707358241123 4.713890639229687 -0.0128089788392102 1.0790225770063353 -0.30176317895127386
Ni 5.73568201678071 2.956363056433268 10.348792707732237 0.7433465473577004 -0.2647575482612021 0.3892603906329941
Ni 7.133523347839608 5.58411322913282 4.6969625756994136 -0.587621256636517 1.4118462248078394 -0.16023757676924016
Ni 2.501591610584827 7.668467634804952 13.125024878882092 0.04856222517941959 0.1863031635080404 0.2925853691067477
Ni 0.23021775903743033 2.718726776008017 8.658104338377234 1.3187146976584774 0.4589023193008484 0.010121404704718052
P 5.178116771629418 1.7793852114850104 0.45457247811100593 0.646513402987035 -0.5594640774760107 -0.16722763493382814
P 1.0667459993861554 2.9145612364562763 13.49190837013122 -1.248567290109114 -0.2503010065162399 -1.4744687847350673
P 2.01102456711374 6.02051270072091 6.641370141003735 -0.5482234715651849 1.643031336430235 0.718130453103389
P 2.6151240891744725 0.5468061112372853 11.608736380167748 -0.7624588427071192 -0.24682770325565878 1.7227836140592137
P 0.3046447094190624 8.476295243906574 2.6644708773256918 0.4155725461649617 1.848317211688365 0.30952945316025404
P 6.971113607768858 4.373208595684552 12.474403166737089 -0.5587778500422634 -1.257720417363292 -0.6027609404914328
P 4.271056327871562 8.139928196947588 8.270211155713065 0.22707031812307343 0.5439281866239407 -1.394623947392282
P 3.845990579271005 4.013681332185823 10.368755494136284 -0.5745590241359201 0.8503941703675225 1.1038167532318794
Ni 4.708636589303309 5.704051725063245 9.008345201121287 -1.0175354162351316 0.6367074726402068 -1.985180118287407
Ni 0.07122580122280685 1.6134609945567648 6.430787894334945 -0.27558652055590604 0.24900954139832596 1.1499328308636518
Ni 5.640000849213268 5.819704046836777 11.008572514333943 0.9740176954581549 0.26092171945487963 1.2937158616212945
Ni -0.05312252638357189 4.869753968836513 11.806908246652977 0.5191365815015575 -0.07187030377774074 0.8235199716844979
Ni 8.381413666312001 4.962720249519328 0.772614038598762 -0.47325421714714616 -2.4012203481174064 -2.1241790973928447
Ni 7.110781521401947 3.264140113083258 4.72025946633917 0.44051198971911876 -1.8660058872173797 0.8660233922643473
Ni 3.192167717967178 1.9083144458313053 10.09527712829927 -0.33715904195206453 0.7228687391193228 -1.8386123256957756
Ni 3.674664481246978 8.347319521771158 10.32012089891439 1.0693737410626614 0.4399473754649004 -0.37896775045773445
Ni 4.305317828453237 3.2588776953548377 8.517833942997145 -0.6877531263631124 2.1221648951762937 -2.260449107602894
Ni 5.652255030425385 0.754974711894948 4.801607518765036 0.060362303138141206 -0.35827474088475714 -1.371596119038541
Ni 1.7753221787158946 0.6017137687230775 5.064892971959532 1.2940382779577198 0.5933216494554039 -1.0888526757228796
Ni 2.1010156292928555 4.851716706657829 8.694995188311553 1.1462949770007484 -2.498891929228967 0.8330770192453136
Ni 4.490831999716786 1.516970939458629 11.898665844818664 1.3587503734241246 -0.7388352897509082 1.6723871638845327
Ni 8.822071419383514 2.9442297434728646 1.978740657081243 -0.6699196977261171 -1.7365559852529575 -1.0172824196840609
Ni 5.073723792380828 7.322626376423245 3.038674335849706 -1.8160326406230465 -0.8839051576407746 0.29406066810069353
Ni 4.9942017803116086 1.303712855648074 7.991887832493929 0.9535730544505577 -2.8241778738925296 -0.21741351175959978
Ni 5.982941269553867 8.8805623556547 9.482158975149193 -0.7575562631991792 -1.0541831493651521 0.6735534378239626
Ni 7.239459721686993 2.712832124347561 8.026071233589883 -1.1509941822486307 0.5878439141702845 -0.5148855195346874
Ni 6.601740230534444 0.35316215541237544 13.036655310787493 0.37818870619986483 0.29835955258636354 -0.756875949302703
Ni 9.059568236441404 0.5923381114132914 11.649845532086847 -1.5815783713310763 -0.8680748754767372 -0.22030137483035608
Ni 1.0723896169853622 8.011659089206802 6.224206386797851 0.4257155481362346 -0.5014576761645557 1.3409429129290584
Ni 3.8373159578211533 8.722401599509547 5.991783247044552 0.03510532834356535 0.02535107717027892 0.3139437801778658
Ni 3.230334192834961 5.902647560185251 11.243390704982719 -0.056338783801044914 2.706815499220261 -1.1047642047468136
Ni 5.592081236188043 5.3547610727288095 0.6244565249165204 1.4402486872099325 0.7406227206686342 -0.2445083110938628
P 0.36264752390448546 9.05576553529136 7.989560653770567 1.0811180260827833 -0.39067372604075296 -1.638074763755908
P 1.0809805604147973 6.172220951736162 10.414559912756536 -0.5340199263712933 -2.182475262030577 -0.49481883069179944
P 4.376862535909409 7.281745014670836 0.8823968121179622 -0.1490843883658981 0.6934352643495542 -0.5916234358173748
P 1.6514787084993625 5.49759015602208 3.5051272333483015 0.5308353579957246 -0.9042760079876426 -0.9810630323407104
P 2.2678788995613313 2.738298135227672 7.6800486728306065 -0.11641646581923176 0.09943587210083521 -0.29912625554905903
P 7.027893793400416 1.0943876387970977 10.718356684902044 -0.20335137723957883 1.5950715207215045 1.4057357410347275
P 0.29588455043722933 2.8786075803506215 4.77064944047825 0.6592851008304065 0.158731681647675 -1.139889844805353
P 1.1977299940115684 5.9828296988599785 0.19211357780706895 -2.0668476106612275 0.6825335298353858 -0.42165294803108677
