# total energy = -340854.55649809394 ev
CRYSTAL
PRIMVEC
9.34607798877137 0.00000000000000 0.00000000000000
0.00000000000000 9.34607798877137 0.00000000000000
0.00000000000000 0.00000000000000 13.67892985260301
PRIMCOORD
 96 1
Ni 1.9383111717220092 9.034629376283409 2.136334004914121 -3.537980389044526 -1.008644798613721 -1.5440852594816248
Ni 4.346898300389085 0.9654311737452089 13.41868861773552 2.349987518084359 4.093681142823362 -2.3731819539229515
Ni 4.813099367290269 8.519436168074819 7.346146348563688 -0.07291185766837766 -0.5614901067671039 0.9083895159353839
Ni 7.07846719542421 5.598412924233432 10.151585710153489 -0.28114473136997387 0.8435882031892825 0.8366603657211978
Ni 4.03561782378007 7.1960315116214355 5.489272228211782 -2.601483830460281 2.4995362476811858 2.99901160330839
Ni 0.20054907809775666 0.8591288816371526 6.367979274215732 -3.340090806250467 -1.6536394509633843 3.161427161565555
Ni 2.459289602263541 3.3805231727575635 12.066170928055776 0.47602946589943823 -0.8271701668425755 0.3646238230312366
Ni 5.036928591283221 6.570853656540365 9.498142511128124 -1.20663002644538 0.7967635295262601 -0.016402095507107237
Ni 2.0155097766817898 5.364331052584198 5.561579095903287 1.3943742932753211 -0.5287658770612055 -0.9894895658415088
Ni 3.886781530319476 0.5408313696039493 1.9379074211488538 3.0059589811605005 2.490951848446284 1.2319253106770591
Ni 6.75056939198487 5.557327564983651 2.106787313664744 -1.9032470309570253 -0.2550061253013931 1.530709866615983
Ni 2.249946799298151 2.295181817216472 0.9174988776923358 2.770044582383236 -1.5020546647731357 -0.16286267309691305
Ni 9.182456293311114 5.152128349725625 4.966218033728171 0.0043644476162828065 -0.9671765041666052 -0.07526390284032199
Ni 7.264155074763305 6.124597120266804 5.991808977481323 -1.108024106445008 0.46033828041642655 -1.124945564790695
Ni 3.305651741240275 5.185615347494498 8.329852843391023 0.6064648717055814 1.3758019295897723 -1.6304642983985016
Ni 1.4411558942122544 1.6296662891322031 5.039659515298869 3.7581107855146567 1.5941688064015769 -2.7861224617817046
Ni 6.828562413581647 8.598933908242845 5.043093264386305 0.5544555685178257 -2.041833090894761 1.0035385877354073
Ni 2.304574625689182 4.095105610773897 2.7375373004984813 0.02928280812451731 -0.8004821160284278 -0.25024238536416255
Ni 2.9131725382522564 5.804998634164545 12.230126372030105 1.3680240854165664 -1.085924189222175 1.3508126066342865
Ni 8.735881990382756 9.13216504715027 3.8529440546225167 0.7657593678352619 1.45959880960177 0.4663492624971969
Ni 4.126443010583841 0.4066927185355768 9.456996402370807 -0.0993350848569128 -0.025254146581098442 0.5819532597174623
Ni 8.051207002229777 6.764121205204203 3.5722392724597403 0.8877181036289614 -0.4441285034257835 1.0819443786388203
Ni 6.862666252503952 7.081485978644793 8.056808106824498 -1.362941785797653 0.9552936366860902 0.6337293638484892
Ni 1.3629011824291744 0.12943570457736014 10.654819676847971 1.049727941807276 -0.49638283274480965 -0.3195739818804496
P 5.438286568449422 6.197029225404613 11.802823682107444 -3.7877116391002246 -0.9766386780207696 -2.549560402118112
P 7.143740204750978 7.483189760700038 0.4652487015445979 0.28250330228039733 -0.8198944591167685 1.503284680525495
P 7.748721185096205 2.742830919124295 7.432323730737132 0.38055180711540265 -0.5314534511956976 0.19756999467111133
P 8.367356785519666 4.058141871958408 12.803369005815654 0.022601282339283657 0.7116965245525873 0.7116091070451035
P 5.283066903658618 0.6388343443749251 5.872583863208874 -0.3125499851541327 0.09961559221180907 -0.09971740789699601
P 3.1117299671106755 3.377074469945195 6.307026022178602 -0.9670872868869088 0.5125103344342916 -0.34571670171408847
P 0.7905641836097986 5.559813621753542 2.9558523384228783 -1.1704756880120097 0.12836103977561764 -0.337913917840218
P 0.4116442707035783 5.5599444668466935 9.094094732689838 -0.30393061891623785 -1.0622258171639705 0.12020421499643813
Ni 4.433087832464036 3.447758858481614 4.033533648367718 -0.7212103775802934 -1.5475392794684961 0.7631597254288857
Ni 0.4085460458192965 5.784465300617736 12.3065772907433 -0.58458401247209 -1.265094598340176 -0.12870402493733318
Ni 2.0676608923810122 6.785860182823627 10.465968150078018 -1.9140916869810132 0.7181821322769308 -0.7848737200672096
Ni 6.798449350000483 0.011167628700537766 13.177473819293875 -0.40180685983943704 0.6780304997587097 0.5239897958288008
Ni 3.3612141754395357 2.708923347841718 9.395673980249425 -0.012822605685965015 -1.9852832195241743 0.17599663937570978
Ni 4.001990634839963 7.977662713800174 11.365576765105217 0.39106659060379745 0.40139419778205065 0.26815757508168653
Ni 7.177675814267802 0.4262615368242922 7.057178698768352 0.300187864044354 -0.5846963696802382 -0.07307332294690641
Ni 9.087032836090852 1.4134260805420766 0.6446494741577309 -0.2617794394694847 -0.3770381375351894 -0.9001617287089531
Ni 8.90602734187099 8.075927378757454 1.7299197995053963 1.5367650716711274 0.39710379793681283 -1.009646757515674
Ni 0.16377786849076378 2.4747012850212506 11.783167010684755 -1.1603139169876597 0.25083502464283897 0.449422147724555
Ni 1.6615924918613327 7.016269045786518 0.5041040865639432 -0.5373083673145778 -0.5160114056090146 0.7162275796537213
Ni 2.930967470920952 0.8414741401396918 7.451391599240637 -0.09265895838831784 1.016450667811385 -0.9504573916397114
Ni 8.541044300601092 5.740183582663809 0.9800690012377039 2.496573051287804 0.3871045206322559 -2.013143693379868
Ni 7.063504124414451 2.4402049108194888 13.624678982492789 -1.2095042626693815 0.9172081426682784 -0.5535045174584661
Ni 0.7035634119573039 1.7189306808962306 2.5620908535219686 0.06056053519187635 0.4412689224898014 2.2268933831346356
Ni 7.099458486797052 1.8007088641163371 5.130761346013875 1.3022753211555316 -1.3651783884376554 0.9407399072416314
Ni 6.630808747438305 2.9368835383470464 3.1711317701861446 -0.28561407999523714 0.4168694105995143 -1.5004353840021578
Ni 0.7129235091567253 3.7799371656826466 0.6407315982256315 -2.8354539610269813 0.7178265487097251 -0.9760468100730416
Ni 6.1795427133126335 5.465838806636036 13.584559073108908 1.0713712311086645 -1.5785118165906105 -0.15763227793590917
Ni 4.475304067161775 4.90527038933789 1.5132178946580044 0.14346884195133355 -3.668312950724218 2.3450103765847423
Ni 3.6882334475391394 5.628114760378975 3.933800714543709 -1.6539263860761837 -0.6051183849800159 -1.4951916191047154
Ni 8.38599286521577 0.15901230327660007 11.350570702136281 2.1268412176060405 -1.9682393766680104 -0.14425302841552576
Ni 7.166096023523836 7.107935379617696 12.132554251458721 2.708137303355478 1.589118131351547 -1.6299698752605867
Ni 1.3385079186343767 0.8357001331004481 12.866975609420349 1.8689608560806459 -1.3223672068094001 0.4618022665564628
P 7.13275856300428 1.6908831005712543 11.21919849018027 -1.293569308741101 1.7847551706660036 2.2524352361594824
P 1.477128948751019 1.761829179293978 8.83267651725769 -0.559766696318094 -0.1680082218535945 -0.02085190374834473
P 7.264622378667419 1.0046286252223664 1.6095582021381392 -0.8524286842990481 -0.6644938987248556 1.103395863644377
P 9.085817845940154 7.3600645280438455 5.575258015784539 -0.7336426898063751 0.07024793768296934 0.33388834162059267
P 2.5931628247143763 4.549960538883171 0.4818884589623211 1.2498003911852669 0.8721716712539302 -1.5768382855429295
P 3.4319826786786956 1.1885687879600715 11.36404494290753 -0.42015425199837314 0.3316620233932353 0.8363009254992501
P 3.091234017876196 7.952699339242357 9.094997563832587 0.8007309988144403 -0.3053827779817321 -1.2880967156623044
P 7.979158086293341 8.820959339165915 8.888459518899694 0.9026027340502777 -1.5462010202730467 0.7428891481053076
Ni 5.221934206922308 1.892309775400939 7.894137748586486 -0.20071522516831236 0.25839329660607113 -1.3899699935600385
Ni 0.19864995503143373 3.2426217906532577 9.613031979778196 -1.6803838089367638 0.4095024287114819 -0.9056505197376661
Ni 1.7223513454743515 6.50458061685879 7.433540590103448 2.4870139468444585 1.0011361489415016 -0.13690995778689324
Ni 4.446667683917615 5.212036710233154 6.258302113312158 1.2164220728351371 -1.8401472742830631 0.3191505211897859
Ni 7.130048200360413 1.3311338630274436 9.111535448999213 0.6670434046195867 0.9692336438059501 0.1330638445679257
Ni 8.861783008229391 7.199928826181754 10.377930898366197 0.535563102488697 0.5551921895735342 -0.4921726513182041
Ni 3.201657930418546 8.916270643449188 3.9301482672291463 1.2591494365003346 0.6236647805236356 1.708288248656516
Ni 6.020659385913569 9.287281905082168 10.69928925097135 0.017422823462137735 -1.2706019013116505 0.5513874711154633
Ni 4.195706795251751 6.622397277164237 0.4136032086696279 -0.7113640809138329 2.733867104021414 -1.095463753281494
Ni 7.833405998599906 4.919728772131204 8.01923126528681 1.0288297582020283 -1.0378013655730192 -0.27826381027775304
Ni 0.9765156223508141 3.938913953862534 7.137679273114609 -0.2297373234322753 -0.6274237333454357 0.6317727543427507
Ni 1.2232614298015612 7.4188326670253355 3.913200089234708 0.38042736572239644 0.017292468531860544 0.40988089509682313
Ni 0.9364396395339207 9.039853833931412 8.346787002268337 1.0958033960091 0.5065610588293921 0.18848268765786247
Ni 6.774401891094731 3.3495876543051573 10.035314891162853 -0.5875220120544915 1.2858369730938501 -0.463802327705627
Ni 6.7566256505822 8.214800752982319 2.441552615278956 -0.9456082910775264 1.812663724150814 -1.036211138267764
Ni 5.816840115094816 0.7276762934096325 3.6888923460439416 -2.262090499861059 -0.0004154902708638006 -1.7913479933921728
Ni 5.294394350294363 7.170778408643066 3.8271731789183883 2.880089854568801 1.0030755320560596 -0.9424342642249188
Ni 4.427601684629727 4.377160901219565 10.532092587118084 0.4692818627629595 2.247341623686659 -0.16916547538648932
Ni 3.2712207895850893 8.700422970138519 0.20252857743558733 -2.5195412300482025 -3.103141024230153 -1.1370737155127966
Ni 9.154184407112163 7.217901334334012 7.891470377901798 -3.181807010773488 -0.13713235821034447 -1.138663685707736
Ni 4.9819643060812275 3.372420123060211 12.334264112454301 0.7967226489859957 -1.148963524971847 2.1539900101066904
Ni 8.671543588864218 3.9602603962025023 2.560736606807844 0.5046476438567632 -0.48216643203511156 0.8736135459067793
Ni 2.128989856757051 4.506361084629251 9.887102915718158 -2.7423810550296963 -0.0787156088343483 2.9608176087371723
Ni 6.558058875645698 3.7373844721739444 5.889066606514814 -0.8396788408325475 2.191882928497722 0.3627317482148463
P 0.9633283061766919 7.820293451050442 12.275567938274046 0.22262822319131984 1.5479593977250503 -0.66795768890374
P 5.867084630865249 5.087743217816675 3.942924355967648 0.8170194515618188 -0.7246068048563521 1.7848464448282295
P 4.908261134324225 3.9914015283727187 8.457695976263158 2.6044542259425145 -0.6918620063251633 -0.35630450453226375
P 4.85487633631814 2.7002782256155924 1.1338671275521899 0.6056593450851505 -0.4378838080676523 -0.48449816549208174
P 2.8121694724168633 1.9030858034298284 3.3865747583158514 0.5872705581653176 -0.08552568977764625 -1.0145364815078075
P 8.889755819929709 2.4059048042574553 4.300012765081428 0.37941409396653364 0.5336807978643195 -0.6316385427577316
P 2.3319212501579853 8.81784709516451 5.87611294229275 -0.5699606061319603 -0.6118978697956946 0.6251920158014395
P 3.6989720912557 7.300137475380152 2.481125779095022 -1.1631927811973517 0.6245068168089567 -1.5867817699088864
