# total energy = -340884.9815040803 ev
CRYSTAL
PRIMVEC
9.10861979517642 0.00000000000000 0.00000000000000
0.00000000000000 9.10861979517642 0.00000000000000
0.00000000000000 0.00000000000000 13.33138578363917
PRIMCOORD
 96 1
Ni 5.4742441040346845 2.9391785664696872 9.729658318839919 -1.7932986893606406 1.3528918577608182 -0.276262206466692
Ni 4.623061794944719 0.4796134680988491 6.304585890874867 -0.06978591044488627 -0.7366660500137313 0.8705019968609912
Ni 3.624839035383482 2.596940392303977 3.12928912596985 -1.0904143637830446 -0.5899617318442355 -0.3584210366546343
Ni 5.003993386294469 4.330875486933976 3.5290582540611997 0.4972189554928598 1.4590511646284163 0.01371426426229896
Ni 4.803940768212296 4.328215769933566 12.281886317953449 0.5000731371122032 1.2737054799376388 -0.6800051069865772
Ni 5.840073603649233 6.096672533849702 5.385706497228587 0.5429138864268134 -0.8058055851238703 0.6172303377522015
Ni 4.105528231488319 2.58409723829515 7.340940976636496 -1.3835142106323657 0.850239132846897 1.9329728401562323
Ni 5.508337668187195 8.082269686713657 13.13913405701113 -0.5547923830319542 0.14552521025973 -0.20338120203624974
Ni 1.9901332455564333 5.745407717398356 11.757095917051068 0.17948922591000055 -0.045916302916140274 0.42128090940364865
Ni 8.010566631140973 8.081732278141656 9.374576990665382 1.6075174597943414 -1.1364461092311267 0.31190875202570795
Ni 8.05047149476698 0.22468779136747333 7.253646696441891 0.18637129774181455 -0.19486108038038052 -0.04491614378640007
Ni 8.755505998132387 2.980158247239696 2.1897067502337384 -2.5169048208666203 1.344537572258852 -2.931236295535629
Ni 1.0499870462507144 1.3803020370139039 2.7906187982050317 1.4547419957301009 -1.6786971652629605 0.71662481509214
Ni 1.824656948479584 6.485082302108139 1.0469884885913485 -1.647902548479607 0.6926559629813683 -1.9268201902912752
Ni 7.603429540441296 3.951710967837922 4.336259592135832 0.3959419164182278 -0.5930359998941851 -0.0017313808688099214
Ni 7.607573962479606 4.001034144403736 12.957000826788223 0.2917782998244201 -0.5357718760653933 0.6298112597410056
Ni 4.755455584674008 0.46323434785865586 11.06387711537378 -0.3551377379176722 -1.2111109450348692 -0.10017917802476295
Ni 0.4171538399645743 0.09377597409012421 0.5647417184896966 1.3116202527055412 0.2972814890308364 0.4634220615480728
Ni 3.308569536451222 4.3359307709587265 9.753628562875116 0.7464719803605595 1.0663550088409959 -0.5268630036115378
Ni 8.55777607811564 5.462448441310266 1.720855116504697 1.7683258214653867 -1.0946710821768695 -1.016430613206727
Ni 6.273543714376936 2.037807761926788 7.66682644555962 1.8919925410891283 -0.43897267025645687 -1.1222114536889833
Ni 3.5475341785941814 4.724349647837028 1.3546685589914635 -1.0810280374721382 -0.8517118607376816 -0.45863672434428754
Ni 0.6189070373754341 0.29863703259872276 4.939292126811561 -0.5272147305240017 -0.11684249761305684 0.7012881847350697
Ni 6.943519139884207 0.8602180599954669 0.94204534654745 -1.9472188085522852 0.1297795173896991 -0.7035916360572656
P -0.22822284673685325 6.040882237180154 12.955360364350641 1.6347721817452363 -0.8545017647779929 -0.0040947388946639155
P 3.997363370598376 6.296470110575672 13.087661246157314 -1.044911237144923 -0.29026649116558395 0.4701071868777323
P 2.137692887359976 8.781164980290448 1.9861500460897241 -0.06241481479179573 -0.7408132394128855 -0.9924396496087682
P 6.150741301364877 7.9505408262344694 6.686209737334313 0.8071955234928614 0.24210921473406688 -2.7537833833293672
P 4.474910092849989 1.1675793287003275 -0.16814239011116391 1.2462707807654538 0.5714299915886353 1.0021000555166677
P 4.224058701783967 6.443337497269519 8.794328757718501 -0.7547835855500485 -0.6463948751312997 -0.6244253128387439
P 4.530536434361979 0.845074979470875 4.226862334978234 -0.174875381287073 1.9436231207812267 0.25878307584532206
P 9.273485883962143 5.608350314298485 4.320541757697796 -0.46235351107424244 0.8316909375310645 -0.9000989937918177
Ni 2.6472655170548762 2.1171074064663955 5.378867745434382 0.17109251720587307 -0.500224575088403 -0.370347098668259
Ni 1.9041114395568868 6.733856927845074 5.38357325845634 -2.0226693734821164 -1.6321493994104084 0.3069357242911488
Ni 6.97638304035502 1.1806137637263072 9.865065240020357 -0.6460320924752423 -1.698580791560765 0.10259190123131365
Ni 8.490171901481943 2.871046089883854 10.696704094329231 0.6338669178676181 0.007478053544600023 0.8036903385530804
Ni 3.7658313622647808 4.777407358547252 5.72304423390724 -0.944315797518348 -0.8687191939289555 0.5493257034904282
Ni 1.5782687811471257 7.192321091480735 9.666747814022354 -0.02503406015049237 -0.7610218531502765 1.2686355216138991
Ni 1.2496662109184467 1.353258544636452 11.90298139452353 -1.5954924103090071 1.9790914888911657 1.3155314148344894
Ni 3.8276971083838953 7.1572437963828675 1.9368104740081544 0.8924949561923144 0.16371242269171804 0.5151320883278547
Ni 5.79456693880661 8.225876187496041 8.71008768690245 -2.6517532681387945 1.6996087186046471 0.42344372138292236
Ni 6.930630442776057 0.7859627691367731 5.23670131745256 -0.33355846908499975 0.009283739294771108 0.3246627092572667
Ni 7.976646130765886 7.531917765885765 4.863089413025856 -0.13082698481760696 -0.21622720476098245 1.9684661479668357
Ni 5.533313503855425 4.778354655013151 7.71635274434841 -3.0799699854303277 0.46576613630021724 -0.30526425012599684
Ni 0.8648179130269972 7.8094391959147975 7.259166520079726 -1.358921608894666 0.10070882527598785 0.06310746998344616
Ni 6.190090539179155 2.231265739227124 11.93708315643392 0.33783704185569563 0.011948687721443939 1.3604537292684762
Ni 0.3404583498442033 7.539514354852687 3.1324489062008163 2.253556751358435 -1.2721530478488543 -0.9288200158755939
Ni 7.369711463340241 6.346749692227249 7.440233130916511 0.7611200692910376 0.74956810278738 -0.40634614247068734
Ni 2.10775285386564 5.609252067665062 3.1788427506182337 -0.12057393963103105 -0.42618246047032415 0.5592259933232756
Ni 1.6803126494881804 1.4218646694552348 7.497944435515465 -0.684453372565918 -0.12659752011729164 -0.6677679414904371
Ni 0.9980770216434063 3.4397974228378665 4.080217198609079 0.13814665840747176 0.771742067781258 1.166882828454429
Ni 0.1797522369903488 7.638925832052926 11.574868868043557 0.7126694299888178 -0.08705395349671459 0.5280480250585744
Ni 2.289551797739523 5.652918791295074 7.6766519138073654 0.5839988293925813 -0.18015179919466393 0.603702992689728
Ni 6.171335890878322 1.8809117847622185 3.1218109490611647 0.4781267147480991 1.168282279905117 -0.32312030447081125
Ni 3.851944254462971 7.188832490072664 6.466762134974838 1.4613024225564382 0.5079057457827446 0.8756850837238275
Ni 7.926976826645225 7.6227580317935875 0.8576986157409694 -0.007962706490502415 -0.921748196630477 -0.9433734882097365
P 0.23289010355538012 6.010559641651511 8.450552137657692 -0.6337252500834313 -0.08185364024269773 0.5897164486026489
P 8.41391453597705 1.9417937999359767 8.533139993968355 0.5666238284492435 0.603556954030167 -0.3094168388417897
P 1.743134800693059 3.657602741035787 11.01312479635124 -1.744438473324828 0.13874084034804493 0.1914782799510767
P 3.9785085274790344 6.257539869275157 4.18740197200161 0.42248958499976913 0.24716143244599367 -0.22519932635260573
P 6.703953328830195 4.28907603037617 10.758001462568808 0.5482427548388945 0.5801138925158784 1.9574446000453514
P 6.518592914589326 7.992139893155258 10.957105873323092 -0.03075656445656639 0.6653161375158348 1.1482040210980033
P 2.38275119619223 9.009809556127024 6.139716227880987 0.4542095418108694 -0.5777893581477598 0.04004853128145361
P 6.696520695020832 4.037168039405874 2.1564183880772427 0.6069168716413353 -0.8507284137784896 -0.3278480489637838
Ni 2.5247545798784787 1.7852257330865264 0.9768348092576012 0.7518594699247181 0.19641505513106172 -0.7729240039045011
Ni 0.9374318305861231 3.412644627022042 8.861198779591128 -0.2950723971946596 1.3135856039620282 -0.3293027791324393
Ni 0.6679105013840068 0.4974299285536472 9.480695144671788 -0.5665675212900113 -0.6560426826337089 0.4960794425717779
Ni 2.631616908127809 1.8678682411163747 9.56745565974234 1.3573969447200236 -0.28142755271771536 1.0257428917465883
Ni 5.147390388819973 3.0224768951297736 0.9055744326103274 0.37607088852591364 -1.1099115532757078 0.4476352310274614
Ni 4.306983577029612 6.758277137701573 10.961318610010386 0.03562006319645478 0.628058538715957 0.1987897260108254
Ni 6.816198851419396 6.066104005584721 12.278192772598429 -0.8276591906638521 1.119035369953847 -1.0509754410611318
Ni 7.449065759599034 4.221644917519897 8.643817012216902 2.570601539059128 -1.248668334463353 0.499410820937856
Ni 2.980158247239696 8.695134065671038 12.994328861854587 -0.34885319046054114 -0.9227714956886689 0.3861442136015156
Ni 8.854671542596286 5.4470002220202165 10.499319391005347 -0.20303615999200517 -0.4894845629630796 0.34072593336771645
Ni 8.937086335129525 2.732431112787168 6.466322188635386 -0.6648129726271712 -0.2540735861847947 -0.36661745642249766
Ni 3.3593318749556142 2.525155359152513 11.825112714164623 0.9196329500596871 0.06302493757196888 0.2686800232440598
Ni 1.0227067297567878 3.918182138117006 13.358315687670563 -0.2476365723101993 -0.18027444081545727 -0.876988118805967
Ni 2.8109200901588425 8.494234345941473 8.38980128660998 2.54772823400538 1.125189562480701 -0.23721203454276565
Ni 5.694900420250168 8.101862328042015 4.057620534449435 -0.9447006916615923 -0.20528150438275614 -0.013643044704731344
Ni 2.8254665560823153 8.15452836809807 4.028625064835039 0.9129457678474987 2.158342887758747 -1.165091540881961
Ni 5.171336950443524 2.8345569587070027 5.36428302330748 1.11165141878495 -0.5043679078328152 -0.7233557060580703
Ni 6.445842367732233 6.232955704261098 9.694103732061157 -0.44704027775593974 -1.4112582135148533 0.505526961137923
Ni 7.909624905803511 9.039367027587055 2.8180812870962466 -0.45530971685358357 0.7798559551376439 1.064653452768857
Ni 4.486414279738747 0.3303541578286065 2.1698162570358126 -0.20572090591301986 0.42479560742512645 -1.5868560747902478
Ni 5.641888252639265 5.649994924318596 1.258274767552306 0.9085342690433643 1.119101447305092 -1.4354576935791923
Ni 8.034203499689132 0.39569210984003683 11.907767063400296 -1.1436027748805662 -0.35411829551422236 -0.8499488552999876
Ni 9.274852176941808 5.201932804568099 6.40549118173287 -0.19216399316419164 -0.9895523007586443 0.1062868335843976
Ni 7.017007484950316 5.9468903887992415 3.1941734687120324 -0.6652911978151704 1.9792521828387464 1.286476663560378
P 8.288124495649463 1.77401302203343 3.8627689383098436 0.47229416722672213 0.13894344327715424 1.9433773233190077
P 1.7358205789419328 3.717983782117002 2.042488681675111 0.6175504400957816 -0.837750256351267 0.43444830002354207
P 4.61570203009427 1.1084643857802663 9.00356468634798 0.11392712373847476 -0.3770360806526603 -1.6442400120263552
P 8.383928959383393 1.9367476245310902 13.259156519240568 1.2940531903560553 1.9806025262190534 -0.529416623271327
P 6.193324099231023 7.931421833139059 1.9627399821761882 -1.0844622599646678 -0.9554841554303416 0.09115357748738495
P 2.2317576046998022 3.55489394344463 7.051956348508095 -0.8460546624519041 0.3807294703438475 -0.7931655277623565
P 6.918124307702214 3.9172621675107 6.335234574994654 -0.13681174164613213 0.1518192707985579 0.685767206281335
P 2.3475372717963965 9.103473494192816 10.935095804282717 0.6765749982591057 -2.0884816439912353 -2.0448315114014526
