# total energy = -340866.6890085622 ev
CRYSTAL
PRIMVEC
9.26330596291255 0.00000000000000 0.00000000000000

0.00000000000000 9.26330596291255 0.00000000000000

0.00000000000000 0.00000000000000 13.55778462603859

PRIMCOORD
 96 1
Ni 7.639188896698711 5.098366020104631 4.033562916698463 -0.26793954553360955 -0.31495808037499307 2.9606849398140493
Ni 1.4158592338588083 6.293712260087192 9.89265383864316 0.740314445399596 -0.8088878235936198 0.09525011615426177
Ni 0.7401742579873261 0.5959084602419241 7.537247143020545 -1.3496509822260176 -0.9710177322895664 -0.3027908488848398
Ni 6.858690542360085 2.9752533906376946 8.010643752789447 -0.3769232092238799 1.301586779728939 0.13996417123218477
Ni 8.977273415305053 2.578496741164325 7.204891774258197 0.4018886209199659 0.949108590921301 -0.38411021389062233
Ni 6.144313664614135 7.533624264133548 11.305714627828579 1.2651493628375114 -3.7013112600271096 -0.036179535244350594
Ni 1.6191980588358095 5.074800170223464 0.5415532346394437 -0.3312786719118876 -0.8957222048803607 -0.26031442488818396
Ni 4.356421544384486 8.374926957552354 7.857766785999417 -0.5649945203759367 -0.2999775478057608 -0.5226139985271967
Ni 8.837221495354832 3.2904281061867575 0.3390805287520217 -0.31714223251050544 0.09228254888550559 -0.7746476714638272
Ni 3.9236584253796334 3.2978109608861637 8.95887556371347 -0.572449176881769 0.9173978900815813 0.28383950459331764
Ni 7.334815195678516 1.9317790487690207 1.6172944494998898 -0.011491288469051177 -0.1134113604443208 -0.30759444092107024
Ni 8.797583809961155 2.8046232983377375 4.689678232798345 2.760841061507097 0.5508462539000126 -0.8639531399988799
Ni 0.96294842480225 1.1031670842563461 13.343367703575511 0.8083136962577047 -0.12515770234697154 1.0723047986665275
Ni 8.50258457438111 3.6462965239873792 9.686575854149705 0.5271648511226728 -0.01817847068123966 0.8449565442917192
Ni 1.2919439925614942 0.9157574398829829 5.179805299120066 -2.1226027540446606 0.8379875691730536 -1.655338178822046
Ni 4.815918563844154 7.78232549747064 0.14818139709476083 3.274975304698057 -0.027404360154881836 0.1508124268005983
Ni 0.5041683852092501 4.859937792867465 11.94438065484782 1.2337585072310557 -0.9167569140634728 0.32511728029618203
Ni 6.146240432214482 3.4135744931050875 3.4336036128429246 1.6438402054847756 0.3511640979819049 -2.6606333442372434
Ni 8.523603015175281 6.698954097646705 2.7919001478614076 1.7276537976673214 -0.5011748548168142 -0.7122732229916635
Ni 2.161555348416167 8.386070714394744 9.137539721108528 0.44685464410769493 0.3733198081433377 -0.8499840794132973
Ni 1.695240535909118 2.5194061136517614 11.622179721871527 0.04613176136105603 0.9047619464851258 0.27304575641192336
Ni 3.328954194887926 4.968336996998524 6.342792033053145 0.9853354344638192 -0.06777865020687038 -1.0369382462417756
Ni 6.599401350526854 1.7437061517024608 10.353659850612905 1.5882030757364456 -0.37117139434176716 -0.9558117139730893
Ni 3.5697630917082126 8.248093774937207 11.213182540152493 -0.2833239984094798 0.38123340656345955 1.0691845078699909
P 5.0164506071725725 8.807402914078308 9.707631348166958 1.021281513541125 1.4055794179625214 2.2185282989993924
P 7.476590090502123 1.491373702503176 3.66294731611057 -0.6174496528518593 -0.7656364691041523 0.9396075934094013
P 8.41396252807092 7.978077675021275 11.688911650314507 0.14869460912664714 0.3842246279812996 1.0382237978224185
P 8.409905200143267 4.437531049714477 2.2649227248524735 0.21963185956715725 -1.288334028484091 -1.6387136828914874
P 8.803679065158407 2.4270139018928156 11.57974451813504 -0.25547226630453423 0.45245090724854975 0.5969628457524171
P 2.8243356130182105 3.169023220753357 13.440333209393549 -0.6814739782226199 0.545058700683958 0.3046525846839269
P 4.969624596500679 2.43766670352935 11.361803017940796 -1.6180029327066972 1.2328660773237734 -0.2813298507975865
P 3.112498528939332 5.440144949827716 8.294625212485585 -1.0296465976763685 -0.39870893764040366 2.352807761141974
Ni 2.1822032569795007 8.183852749416022 3.9486637929775976 -0.8558503083860873 0.5883478503898963 -0.8493068508406146
Ni 2.97530897047232 1.0948764255913916 10.199873227196175 1.4309826885269743 1.0059104304016935 -0.7981079593692965
Ni -0.22697600231260368 5.456383524844101 8.114428904316021 0.028286762759835157 1.052281304356749 -0.10892118588345111
Ni 2.9586072301673894 6.518625324204616 2.003365875766527 -1.845597241654041 -0.7437288703977837 0.41963926003516766
Ni 5.273285022976515 0.5823710651883325 3.4890009603446313 0.8911795798150006 2.0086710023204954 0.8422879963206203
Ni 3.321728816386625 3.7672752973553183 1.971830803930656 -1.819924776588601 0.23942446881305218 -0.3912044017332424
Ni 4.043636761724316 5.601585842802941 0.15874990264877933 -1.133243800243745 -0.9610081705723642 -1.2582613774684266
Ni 7.315843945459714 8.421549175497287 2.5841547683291903 -1.4374667535894212 4.538746556241119 -0.30135951575495196
Ni 3.6854895707040525 1.2861173732315987 12.684947676999832 -0.6842620824907183 1.0143084246574015 0.2868721207720544
Ni 1.3219478399534357 2.592502859489924 1.7582680683743142 -1.517113101768155 1.8673035229828807 -0.20114357095498264
Ni 6.595353285904972 7.410885462669137 4.489172126726084 0.44673123115595326 -0.1947852328371226 0.6225887738506375
Ni 8.053629196888725 0.6829001647364353 12.735125151699634 -0.6354833704251185 1.4696227694966753 -1.4059933655714885
Ni 4.784905016123185 2.12695690136186 1.5332225389843654 0.26259010829623813 -0.14616644338815474 0.0814558905836468
Ni 1.3052183097311922 9.052954623453296 11.372134382867078 -0.7555731713308794 -0.06484862104426897 0.2915096195440657
Ni 0.9940453422751575 7.297159857719812 13.131622428611418 -0.9121014175693324 -1.1217234583089715 -0.9104348285001869
Ni 3.414074711616716 4.296478692741 11.369748155300494 -1.0960725905100865 0.10810923150511703 0.5812336079426184
Ni 1.5078068069407504 3.7221074184164156 8.524606231190269 0.5366439942577015 0.6253583661759746 0.0916361735507583
Ni 7.489336399242879 8.275087047953605 7.275717157521335 0.8754207743188472 0.06969746449613803 0.17133497223398234
Ni 0.13790931732541106 0.5930053402133245 2.095260648005575 0.019870770781998035 -1.1458710020894525 0.5855425197306173
Ni 6.101998883852669 2.0267742494495886 13.149410754683277 0.33147201886961625 0.8201099175616844 -0.08401928043544886
Ni 4.2303479528425525 2.9560042412457666 4.163242713177008 -2.7343538138498458 -0.4324634083830294 1.6114530474033215
Ni 1.1228516090195062 5.180262906425149 2.9868204805538157 0.6872041958381778 -0.28414418031793 0.8141727261416429
Ni 5.525839791514302 5.221975572311505 5.332208910985202 1.0695277501420226 -0.9029349205787159 -0.4729567405113855
Ni 8.331157837784856 6.047400959638991 10.742483405024078 -1.064591746292986 0.6202830085355963 -0.9444224982995412
P 2.730489062253234 6.381843351191525 11.90372122682761 -0.46091420752455453 -0.6904494422483529 0.5103806896857985
P 7.097498565133857 5.13204739988762 9.12282959154434 -0.4201650506316506 -0.11844223800000891 0.06628561060111166
P 6.1611636178114 5.828018089066793 13.144190881881375 0.7769914891056554 1.2870158238932996 -1.382161039038581
P 4.795733820569365 3.238599910398578 6.520033346681793 0.7787074433554976 0.2633172162702497 0.08377194031133316
P 7.882832365084893 0.9845411905542153 8.473154125616388 -0.09184391868619021 0.2523090380852042 -0.16149150378099927
P 9.056974898157867 8.388210538027822 4.03222066369226 0.29085630223078296 0.8200934625014521 1.1249730755945204
P 5.672598344842651 0.21354884059768575 1.3990546708598206 0.12160649466060346 -1.2268509814779454 -1.495031182267451
P 3.3037394765795396 0.9343803898047979 4.5614083114581305 1.0081118089283865 -1.1699136448609528 -0.20975111011833555
Ni 5.5907848282740735 0.11921596627973714 11.97348966690229 -0.21335631097109062 2.4854928822142424 0.4219380833716733
Ni 0.5870907194786056 1.6504431892010512 9.697083221885634 -0.44355103365575865 -0.5429442254441166 -0.2046850084493378
Ni 4.427739735514637 7.951788413243464 2.6873155730468055 0.14512591793878235 1.4723103436311675 -0.7117345768793742
Ni 5.5286002566340295 4.410528513392307 10.508977698473569 0.6677396593556629 0.4275366605053733 -0.9272673266764934
Ni 1.2227563617586505 4.378672004846186 5.722822136071311 -1.7151201839766848 0.7868192738293546 -0.9776879452208904
Ni 6.050948805749246 6.520487248664567 2.199045799532149 1.562473275070509 -0.7578339423405981 -0.9770649669249108
Ni 8.196200736008631 0.642839146269029 5.803843639996479 -0.43129407066527653 -0.0435899687758088 -1.4237316633915158
Ni 2.9038147765325224 8.605407268438087 13.508068353851517 -1.7058138189740946 0.15309273819434277 0.005255334861668369
Ni 8.964073204581522 8.422771931859046 9.611208672067093 -1.0047500915450052 0.1634969642468023 0.21701601921086494
Ni 6.748920368974933 2.724504966725233 5.50992450586932 -1.73296955345328 0.024662021523054304 2.04947389526947
Ni 8.14508581476481 8.152922571446991 0.42193153556694124 0.13334589458471874 -1.0226876498600324 0.4548176077085135
Ni 2.5242508225699414 2.622599339939575 6.2954759935059705 1.3578150060940486 -0.3174911312094919 -1.3673232026948
Ni 7.2605234833959065 4.026017954148066 11.99678132293264 0.4502821817320052 0.30812923037861767 0.8851590846525337
Ni 2.5453896863391328 8.817027488774272 6.514678229615637 0.7435460649630162 -0.5703614411148048 -0.2546394859905937
Ni 5.856030325717992 4.386462444999512 1.0311291342677968 1.571914108768435 -2.3387829076177917 0.5625694558742117
Ni 9.290632522923019 6.623782371315861 5.849302386736587 0.06037155910952182 0.590442528135396 -0.39388554810983134
Ni 5.214703877281351 0.053125058596105 5.759088904494958 -0.7590295053105961 4.149249881227603 -0.7314333408598823
Ni 4.135982656954407 6.981345974072557 4.755636675209452 0.1255215134442935 0.14672977209079247 0.5063764536224118
Ni 4.156111820394569 6.599697776311523 9.733594541581633 -1.0990350155725201 -1.2793667919884741 0.2184499234439141
Ni 2.692259399336734 0.9156435012220007 1.8690220048323352 0.8879813845926773 -1.971399776673863 0.6603194556321919
Ni 5.128675556587012 1.6059700581949656 8.025543780121938 -0.74062632021306 -2.2916993238664274 -0.558533081021309
Ni 6.260142039973454 7.119489653033971 8.942348899887609 1.3854181125232978 0.3018670515189898 -0.38427013650725433
Ni 5.400609160797519 5.2059593166336215 7.766726090552446 -1.0661531772428348 -0.33981242041451154 0.19865577153612238
Ni 8.348044844205205 5.775383985676546 0.5720341422785865 -0.7653464486675593 -0.5723108515316918 -0.9623523433050846
P 1.5090573532198217 8.13651725692673 1.5190274492210403 -0.29520043813209157 0.9613804663101184 0.5839443220055621
P 4.594219866829231 5.126878475267458 2.6924400337992664 1.299007706147853 0.8429163739332386 2.1748262301257513
P 8.270112652754632 4.497455374746422 6.314781649063101 -0.23442752981909304 -0.39221818770973743 -1.3852409635154854
P 0.5329985717600186 7.7882447498582446 7.7725832787913856 0.32346277541189455 -2.727030540715555 -1.3679623789406956
P 5.594369727607411 7.553318052202478 6.364064288425437 1.3651431643243457 -5.084189893958006 1.3568963509345213
P 2.3873762164991397 1.6837447734474327 8.083327355190228 1.296632006826825 -0.1172055373794304 3.023989613409966
P 2.1660017351861987 6.277038309699574 4.935887636883065 -1.5084443703495636 -0.8434221099250635 -0.15522264005315203
P 1.8944016099834438 3.2039273568981037 3.772602624504162 -0.19247946752208142 -0.14363982031155906 0.8300577728030155
